REMARK  Name = 
REMARK  3 active torsions:
REMARK  status: ('A' for Active; 'I' for Inactive)
REMARK    1  A    between atoms: C_5  and  C_6
REMARK    2  A    between atoms: N_8  and  C_9
REMARK    3  A    between atoms: C_14  and  N_15
REMARK                            x       y       z     vdW  Elec       q    Type
REMARK                         _______ _______ _______ _____ _____    ______ ____
ROOT
ATOM      1  C   UNL     1       1.302   0.440  -0.672  0.00  0.00    +0.000 C 
ATOM      2  O   UNL     1       1.106   0.711  -1.882  0.00  0.00    +0.000 OA
ATOM      3  N   UNL     1       0.199   0.113   0.131  0.00  0.00    +0.000 NA
ENDROOT
BRANCH   1   8
ATOM      4  C   UNL     1       6.538   0.510   1.594  0.00  0.00    +0.000 C 
ATOM      5  C   UNL     1       5.191   0.507   0.947  0.00  0.00    +0.000 A 
ATOM      6  C   UNL     1       5.002   0.806  -0.384  0.00  0.00    +0.000 A 
ATOM      7  C   UNL     1       3.716   0.775  -0.882  0.00  0.00    +0.000 A 
ATOM      8  C   UNL     1       2.626   0.458  -0.101  0.00  0.00    +0.000 A 
ATOM      9  C   UNL     1       2.801   0.158   1.230  0.00  0.00    +0.000 A 
ATOM     10  C   UNL     1       1.643  -0.195   2.125  0.00  0.00    +0.000 C 
ATOM     11  C   UNL     1       4.091   0.190   1.725  0.00  0.00    +0.000 A 
ENDBRANCH   1   8
BRANCH   3  12
ATOM     12  C   UNL     1      -1.146   0.075  -0.371  0.00  0.00    +0.000 A 
ATOM     13  C   UNL     1      -1.351   0.376  -1.700  0.00  0.00    +0.000 A 
ATOM     14  C   UNL     1      -2.640   0.345  -2.200  0.00  0.00    +0.000 A 
ATOM     15  C   UNL     1      -3.677   0.011  -1.348  0.00  0.00    +0.000 A 
ATOM     16  F   UNL     1      -4.940  -0.009  -1.882  0.00  0.00    +0.000 F 
ATOM     17  C   UNL     1      -3.486  -0.293  -0.014  0.00  0.00    +0.000 A 
ATOM     18  C   UNL     1      -2.186  -0.255   0.464  0.00  0.00    +0.000 A 
BRANCH  17  19
ATOM     19  N   UNL     1      -4.579  -0.635   0.841  0.00  0.00    +0.000 N 
ATOM     20  O   UNL     1      -4.382  -1.375   1.836  0.00  0.00    +0.000 OA
ATOM     21  O   UNL     1      -5.827  -0.138   0.546  0.00  0.00    +0.000 OA
ENDBRANCH  17  19
ENDBRANCH   3  12
TORSDOF 3
