REMARK  Name = 
REMARK  5 active torsions:
REMARK  status: ('A' for Active; 'I' for Inactive)
REMARK    1  A    between atoms: C_2  and  C_3
REMARK    2  A    between atoms: C_2  and  N_7
REMARK    3  A    between atoms: C_3  and  C_4
REMARK    4  A    between atoms: N_7  and  N_8
REMARK    5  A    between atoms: C_9  and  C_11
REMARK                            x       y       z     vdW  Elec       q    Type
REMARK                         _______ _______ _______ _____ _____    ______ ____
ROOT
ATOM      1  N   UNL     1       0.528  -0.194   0.237  0.00  0.00    +0.000 NA
ATOM      2  C   UNL     1      -0.439   0.682  -0.320  0.00  0.00    +0.000 C 
ATOM      3  O   UNL     1      -0.021   1.703  -0.920  0.00  0.00    +0.000 OA
ENDROOT
BRANCH   2   4
ATOM      4  C   UNL     1      -1.873   0.418  -0.207  0.00  0.00    +0.000 A 
ATOM      5  C   UNL     1      -2.760   1.314  -0.772  0.00  0.00    +0.000 A 
ATOM      6  C   UNL     1      -4.131   1.114  -0.696  0.00  0.00    +0.000 A 
ATOM      7  C   UNL     1      -4.660   0.025  -0.060  0.00  0.00    +0.000 A 
ATOM      8 BR   UNL     1      -6.529  -0.317   0.084  0.00  0.00    +0.000 Br
ATOM      9  C   UNL     1      -3.751  -0.876   0.509  0.00  0.00    +0.000 A 
ATOM     10  C   UNL     1      -2.391  -0.666   0.427  0.00  0.00    +0.000 A 
ENDBRANCH   2   4
BRANCH   1  11
ATOM     11  N   UNL     1       1.901  -0.003   0.165  0.00  0.00    +0.000 NA
BRANCH  11  13
ATOM     12  C   UNL     1       2.313  -2.171  -0.654  0.00  0.00    +0.000 C 
ATOM     13  C   UNL     1       2.716  -0.929  -0.521  0.00  0.00    +0.000 C 
BRANCH  13  14
ATOM     14  C   UNL     1       4.006  -0.463  -1.069  0.00  0.00    +0.000 C 
BRANCH  14  15
ATOM     15  C   UNL     1       4.848   0.038   0.025  0.00  0.00    +0.000 C 
ATOM     16  C   UNL     1       4.359   1.157   0.828  0.00  0.00    +0.000 C 
ATOM     17  C   UNL     1       5.885  -0.832   0.570  0.00  0.00    +0.000 C 
ENDBRANCH  14  15
ENDBRANCH  13  14
ENDBRANCH  11  13
ENDBRANCH   1  11
TORSDOF 5
