REMARK  Name = 
REMARK  2 active torsions:
REMARK  status: ('A' for Active; 'I' for Inactive)
REMARK    1  A    between atoms: C_5  and  C_6
REMARK    2  A    between atoms: C_12  and  O_13
REMARK                            x       y       z     vdW  Elec       q    Type
REMARK                         _______ _______ _______ _____ _____    ______ ____
ROOT
ATOM      1  C   UNL     1       0.030  -1.077   0.118  0.00  0.00    +0.000 A 
ATOM      2  C   UNL     1      -0.134  -2.440   0.420  0.00  0.00    +0.000 A 
ATOM      3  N   UNL     1      -1.409  -2.651   0.765  0.00  0.00    +0.000 NA
ATOM      4  C   UNL     1      -2.102  -1.512   0.708  0.00  0.00    +0.000 A 
ATOM      5  C   UNL     1      -3.407  -1.137   0.932  0.00  0.00    +0.000 A 
ATOM      6  C   UNL     1      -3.823   0.163   0.764  0.00  0.00    +0.000 A 
ATOM      7  C   UNL     1      -2.930   1.161   0.357  0.00  0.00    +0.000 A 
ATOM      8  C   UNL     1      -1.621   0.772   0.138  0.00  0.00    +0.000 A 
ATOM      9  C   UNL     1      -1.206  -0.529   0.306  0.00  0.00    +0.000 A 
ENDROOT
BRANCH   1  14
ATOM     10  C   UNL     1       5.306   2.050   0.024  0.00  0.00    +0.000 C 
ATOM     11  N   UNL     1       4.019   1.736   0.626  0.00  0.00    +0.000 NA
ATOM     12  C   UNL     1       3.180   0.775  -0.024  0.00  0.00    +0.000 A 
ATOM     13  N   UNL     1       1.997   0.364   0.399  0.00  0.00    +0.000 NA
ATOM     14  C   UNL     1       1.339  -0.526  -0.270  0.00  0.00    +0.000 A 
ATOM     15  C   UNL     1       1.936  -1.002  -1.421  0.00  0.00    +0.000 A 
ATOM     16  C   UNL     1       1.402  -2.020  -2.394  0.00  0.00    +0.000 C 
ATOM     17  S   UNL     1       3.403  -0.127  -1.445  0.00  0.00    +0.000 S 
ENDBRANCH   1  14
BRANCH   7  18
ATOM     18  O   UNL     1      -3.382   2.455   0.193  0.00  0.00    +0.000 OA
ATOM     19  C   UNL     1      -2.598   3.544  -0.213  0.00  0.00    +0.000 C 
ENDBRANCH   7  18
TORSDOF 2
