REMARK  Name = 
REMARK  3 active torsions:
REMARK  status: ('A' for Active; 'I' for Inactive)
REMARK    1  A    between atoms: C_7  and  C_8
REMARK    2  A    between atoms: C_16  and  N_17
REMARK    3  A    between atoms: N_17  and  C_18
REMARK                            x       y       z     vdW  Elec       q    Type
REMARK                         _______ _______ _______ _____ _____    ______ ____
ROOT
ATOM      1  C   UNL     1      -1.123   0.107   0.117  0.00  0.00    +0.000 A 
ATOM      2  N   UNL     1      -1.730   1.254  -0.229  0.00  0.00    +0.000 NA
ATOM      3  C   UNL     1      -0.795   2.231  -0.434  0.00  0.00    +0.000 A 
ATOM      4  C   UNL     1      -0.899   3.558  -0.797  0.00  0.00    +0.000 A 
ATOM      5  C   UNL     1       0.213   4.356  -0.943  0.00  0.00    +0.000 A 
ATOM      6  C   UNL     1       1.441   3.777  -0.712  0.00  0.00    +0.000 A 
ATOM      7  C   UNL     1       1.536   2.450  -0.349  0.00  0.00    +0.000 A 
ATOM      8  N   UNL     1       0.422   1.702  -0.217  0.00  0.00    +0.000 N 
ATOM      9  C   UNL     1       0.226   0.394   0.122  0.00  0.00    +0.000 A 
ENDROOT
BRANCH   1  16
ATOM     10  O   UNL     1      -3.961  -0.279   0.046  0.00  0.00    +0.000 OA
ATOM     11  C   UNL     1      -3.108  -1.324   0.379  0.00  0.00    +0.000 A 
ATOM     12  C   UNL     1      -3.718  -2.543   0.669  0.00  0.00    +0.000 A 
ATOM     13  C   UNL     1      -2.926  -3.618   1.007  0.00  0.00    +0.000 A 
ATOM     14  C   UNL     1      -1.558  -3.513   1.063  0.00  0.00    +0.000 A 
ATOM     15  C   UNL     1      -0.991  -2.289   0.769  0.00  0.00    +0.000 A 
ATOM     16  C   UNL     1      -1.739  -1.184   0.426  0.00  0.00    +0.000 A 
ENDBRANCH   1  16
BRANCH   9  17
ATOM     17  N   UNL     1       1.221  -0.540   0.435  0.00  0.00    +0.000 NA
BRANCH  17  18
ATOM     18  C   UNL     1       2.635  -0.306   0.457  0.00  0.00    +0.000 C 
ATOM     19  C   UNL     1       3.160   0.128  -0.894  0.00  0.00    +0.000 C 
ATOM     20  C   UNL     1       3.861  -1.067  -1.489  0.00  0.00    +0.000 C 
ATOM     21  C   UNL     1       4.442  -1.742  -0.255  0.00  0.00    +0.000 C 
ATOM     22  C   UNL     1       3.391  -1.554   0.829  0.00  0.00    +0.000 C 
ENDBRANCH  17  18
ENDBRANCH   9  17
TORSDOF 3
