REMARK  Name = 
REMARK  5 active torsions:
REMARK  status: ('A' for Active; 'I' for Inactive)
REMARK    1  A    between atoms: C_2  and  O_4
REMARK    2  A    between atoms: O_4  and  C_5
REMARK    3  A    between atoms: C_11  and  C_12
REMARK    4  A    between atoms: C_15  and  O_16
REMARK    5  A    between atoms: O_16  and  C_17
REMARK                            x       y       z     vdW  Elec       q    Type
REMARK                         _______ _______ _______ _____ _____    ______ ____
ROOT
ATOM      1  C   UNL     1       2.438  -0.463  -0.496  0.00  0.00    +0.000 A 
ATOM      2  C   UNL     1       2.406  -1.529  -1.390  0.00  0.00    +0.000 A 
ATOM      3  C   UNL     1       1.224  -2.167  -1.706  0.00  0.00    +0.000 A 
ATOM      4  C   UNL     1       0.024  -1.768  -1.143  0.00  0.00    +0.000 A 
ATOM      5  C   UNL     1      -1.153  -2.412  -1.465  0.00  0.00    +0.000 A 
ATOM      6  C   UNL     1      -2.351  -1.986  -0.880  0.00  0.00    +0.000 A 
ATOM      7  C   UNL     1      -2.350  -0.936   0.007  0.00  0.00    +0.000 A 
ATOM      8  C   UNL     1      -1.155  -0.332   0.292  0.00  0.00    +0.000 A 
ATOM      9  C   UNL     1       0.056  -0.713  -0.258  0.00  0.00    +0.000 A 
ATOM     10  C   UNL     1       1.240  -0.077   0.056  0.00  0.00    +0.000 A 
ENDROOT
BRANCH   7  11
ATOM     11  C   UNL     1      -3.595  -0.465   0.639  0.00  0.00    +0.000 C 
ATOM     12  N   UNL     1      -4.831  -1.076   0.356  0.00  0.00    +0.000 NA
ATOM     13  O   UNL     1      -3.546   0.493   1.439  0.00  0.00    +0.000 OA
ENDBRANCH   7  11
BRANCH   1  14
ATOM     14  O   UNL     1       3.645   0.108  -0.241  0.00  0.00    +0.000 OA
BRANCH  14  16
ATOM     15  C   UNL     1       5.304   1.597   0.703  0.00  0.00    +0.000 C 
ATOM     16  C   UNL     1       3.870   1.191   0.631  0.00  0.00    +0.000 C 
ATOM     17  C   UNL     1       2.945   2.349   0.384  0.00  0.00    +0.000 C 
ENDBRANCH  14  16
ENDBRANCH   1  14
BRANCH   8  18
ATOM     18  O   UNL     1      -1.157   0.730   1.189  0.00  0.00    +0.000 OA
BRANCH  18  19
ATOM     19  C   UNL     1      -1.337   2.024   0.647  0.00  0.00    +0.000 C 
ATOM     20  C   UNL     1      -1.326   3.103   1.679  0.00  0.00    +0.000 C 
ATOM     21  C   UNL     1      -0.352   2.328  -0.446  0.00  0.00    +0.000 C 
ENDBRANCH  18  19
ENDBRANCH   8  18
TORSDOF 5
