REMARK  Name = 
REMARK  5 active torsions:
REMARK  status: ('A' for Active; 'I' for Inactive)
REMARK    1  A    between atoms: C_2  and  C_3
REMARK    2  A    between atoms: C_3  and  O_4
REMARK    3  A    between atoms: C_3  and  C_8
REMARK    4  A    between atoms: O_4  and  C_5
REMARK    5  A    between atoms: C_11  and  C_12
REMARK                            x       y       z     vdW  Elec       q    Type
REMARK                         _______ _______ _______ _____ _____    ______ ____
ROOT
ATOM      1  C   UNL     1      -1.397   0.382   0.254  0.00  0.00    +0.000 C 
ATOM      2  C   UNL     1      -1.008  -1.052   0.328  0.00  0.00    +0.000 C 
ATOM      3  C   UNL     1       0.402  -1.206   0.780  0.00  0.00    +0.000 C 
ATOM      4  C   UNL     1       1.325  -0.605  -0.232  0.00  0.00    +0.000 C 
ATOM      5  C   UNL     1       0.876   0.690  -0.799  0.00  0.00    +0.000 C 
ATOM      6  C   UNL     1      -0.333   1.294  -0.241  0.00  0.00    +0.000 C 
ENDROOT
BRANCH   4   7
ATOM      7  C   UNL     1       2.703  -0.403   0.290  0.00  0.00    +0.000 A 
ATOM      8  C   UNL     1       3.202  -0.967   1.423  0.00  0.00    +0.000 A 
ATOM      9  C   UNL     1       4.513  -0.718   1.834  0.00  0.00    +0.000 A 
ATOM     10  C   UNL     1       5.342   0.103   1.114  0.00  0.00    +0.000 A 
ATOM     11  C   UNL     1       4.845   0.679  -0.035  0.00  0.00    +0.000 A 
ATOM     12  C   UNL     1       3.531   0.425  -0.441  0.00  0.00    +0.000 A 
ENDBRANCH   4   7
BRANCH   1  13
ATOM     13  C   UNL     1      -2.510   0.514  -0.946  0.00  0.00    +0.000 C 
BRANCH  13  15
ATOM     14  C   UNL     1      -2.764   3.297  -0.606  0.00  0.00    +0.000 C 
ATOM     15  C   UNL     1      -2.655   2.103  -0.735  0.00  0.00    +0.000 C 
ENDBRANCH  13  15
BRANCH  13  16
ATOM     16  O   UNL     1      -3.694   0.206  -0.041  0.00  0.00    +0.000 OA
BRANCH  16  17
ATOM     17  C   UNL     1      -3.989  -1.130   0.017  0.00  0.00    +0.000 C 
ATOM     18  N   UNL     1      -5.058  -1.659   0.816  0.00  0.00    +0.000 NA
ATOM     19  O   UNL     1      -3.332  -1.952  -0.631  0.00  0.00    +0.000 OA
ENDBRANCH  16  17
ENDBRANCH  13  16
ENDBRANCH   1  13
TORSDOF 5
