REMARK  Name = 
REMARK  2 active torsions:
REMARK  status: ('A' for Active; 'I' for Inactive)
REMARK    1  A    between atoms: C_11  and  C_12
REMARK    2  A    between atoms: C_13  and  C_14
REMARK                            x       y       z     vdW  Elec       q    Type
REMARK                         _______ _______ _______ _____ _____    ______ ____
ROOT
ATOM      1  C   UNL     1       6.021   0.732   0.648  0.00  0.00    +0.000 C 
ATOM      2  C   UNL     1       4.579   0.324   0.482  0.00  0.00    +0.000 A 
ATOM      3  S   UNL     1       3.293   1.343  -0.061  0.00  0.00    +0.000 S 
ATOM      4  C   UNL     1       2.031   0.228   0.011  0.00  0.00    +0.000 A 
ATOM      5  C   UNL     1       2.579  -0.905   0.443  0.00  0.00    +0.000 A 
ATOM      6  C   UNL     1       3.952  -0.849   0.696  0.00  0.00    +0.000 A 
ATOM      7  C   UNL     1       4.797  -2.002   1.191  0.00  0.00    +0.000 C 
ATOM      8  C   UNL     1       1.722  -2.083   0.629  0.00  0.00    +0.000 C 
ATOM      9  O   UNL     1       2.169  -3.199   1.035  0.00  0.00    +0.000 OA
ATOM     10  N   UNL     1       0.373  -1.920   0.333  0.00  0.00    +0.000 NA
ATOM     11  C   UNL     1      -0.074  -0.945  -0.804  0.00  0.00    +0.000 C 
ATOM     12  N   UNL     1       0.713   0.341  -0.284  0.00  0.00    +0.000 NA
ENDROOT
BRANCH  11  13
ATOM     13  C   UNL     1      -1.440  -0.520  -0.055  0.00  0.00    +0.000 C 
ATOM     14  C   UNL     1      -2.250   0.253  -0.620  0.00  0.00    +0.000 C 
BRANCH  14  15
ATOM     15  C   UNL     1      -3.499   0.858  -0.354  0.00  0.00    +0.000 A 
ATOM     16  C   UNL     1      -4.008   1.674  -1.346  0.00  0.00    +0.000 A 
ATOM     17  C   UNL     1      -5.214   2.337  -1.242  0.00  0.00    +0.000 A 
ATOM     18  C   UNL     1      -5.982   2.204  -0.104  0.00  0.00    +0.000 A 
ATOM     19  C   UNL     1      -5.487   1.392   0.896  0.00  0.00    +0.000 A 
ATOM     20  C   UNL     1      -4.276   0.737   0.772  0.00  0.00    +0.000 A 
ENDBRANCH  14  15
ENDBRANCH  11  13
TORSDOF 2
