REMARK  Name = 
REMARK  4 active torsions:
REMARK  status: ('A' for Active; 'I' for Inactive)
REMARK    1  A    between atoms: C_2  and  N_3
REMARK    2  A    between atoms: C_2  and  C_14
REMARK    3  A    between atoms: N_3  and  N_4
REMARK    4  A    between atoms: C_5  and  C_7
REMARK                            x       y       z     vdW  Elec       q    Type
REMARK                         _______ _______ _______ _____ _____    ______ ____
ROOT
ATOM      1  N   UNL     1       0.649  -0.769   0.615  0.00  0.00    +0.000 NA
ENDROOT
BRANCH   1   2
ATOM      2  N   UNL     1      -0.549  -0.021   0.611  0.00  0.00    +0.000 NA
ATOM      3  C   UNL     1      -1.693  -0.472  -0.062  0.00  0.00    +0.000 C 
ATOM      4  O   UNL     1      -1.576  -1.596  -0.663  0.00  0.00    +0.000 OA
BRANCH   3   5
ATOM      5  C   UNL     1      -2.990   0.177  -0.162  0.00  0.00    +0.000 A 
ATOM      6  C   UNL     1      -3.319   1.045  -1.164  0.00  0.00    +0.000 A 
ATOM      7  C   UNL     1      -4.552   1.656  -1.281  0.00  0.00    +0.000 A 
ATOM      8  C   UNL     1      -5.524   1.395  -0.344  0.00  0.00    +0.000 A 
ATOM      9  C   UNL     1      -5.219   0.523   0.679  0.00  0.00    +0.000 A 
ATOM     10  C   UNL     1      -3.990  -0.080   0.785  0.00  0.00    +0.000 A 
ATOM     11 CL   UNL     1      -3.613  -1.202   2.101  0.00  0.00    +0.000 Cl
ENDBRANCH   3   5
ENDBRANCH   1   2
BRANCH   1  13
ATOM     12  C   UNL     1       1.622  -0.085   2.688  0.00  0.00    +0.000 C 
ATOM     13  C   UNL     1       1.719  -0.331   1.403  0.00  0.00    +0.000 C 
BRANCH  13  14
ATOM     14  C   UNL     1       3.015  -0.171   0.760  0.00  0.00    +0.000 A 
ATOM     15  C   UNL     1       4.226   0.000   1.392  0.00  0.00    +0.000 A 
ATOM     16  C   UNL     1       5.169   0.106   0.386  0.00  0.00    +0.000 A 
ATOM     17  C   UNL     1       6.616   0.302   0.637  0.00  0.00    +0.000 C 
ATOM     18  O   UNL     1       4.545   0.004  -0.766  0.00  0.00    +0.000 OA
ATOM     19  C   UNL     1       3.269  -0.162  -0.612  0.00  0.00    +0.000 A 
ATOM     20  C   UNL     1       2.195  -0.319  -1.635  0.00  0.00    +0.000 C 
ENDBRANCH  13  14
ENDBRANCH   1  13
TORSDOF 4
