REMARK  Name = 
REMARK  2 active torsions:
REMARK  status: ('A' for Active; 'I' for Inactive)
REMARK    1  A    between atoms: C_2  and  C_10
REMARK    2  A    between atoms: N_3  and  C_4
REMARK                            x       y       z     vdW  Elec       q    Type
REMARK                         _______ _______ _______ _____ _____    ______ ____
ROOT
ATOM      1  C   UNL     1      -0.891  -0.735   0.392  0.00  0.00    +0.000 A 
ATOM      2  C   UNL     1      -1.581  -1.474   1.319  0.00  0.00    +0.000 A 
ATOM      3  C   UNL     1      -2.930  -1.348   1.459  0.00  0.00    +0.000 A 
ATOM      4  C   UNL     1      -3.625  -0.456   0.648  0.00  0.00    +0.000 A 
ATOM      5  O   UNL     1      -4.990  -0.318   0.792  0.00  0.00    +0.000 OA
ATOM      6  C   UNL     1      -2.918   0.301  -0.299  0.00  0.00    +0.000 A 
ATOM      7  C   UNL     1      -3.630   1.177  -1.067  0.00  0.00    +0.000 A 
ATOM      8  C   UNL     1      -2.956   1.961  -2.012  0.00  0.00    +0.000 A 
ATOM      9  C   UNL     1      -1.586   1.801  -2.104  0.00  0.00    +0.000 A 
ATOM     10  C   UNL     1      -0.859   0.926  -1.339  0.00  0.00    +0.000 A 
ATOM     11  C   UNL     1      -1.564   0.157  -0.415  0.00  0.00    +0.000 A 
ENDROOT
BRANCH   1  13
ATOM     12  O   UNL     1       1.104  -1.962   0.116  0.00  0.00    +0.000 OA
ATOM     13  C   UNL     1       0.572  -0.878   0.368  0.00  0.00    +0.000 C 
ATOM     14  N   UNL     1       1.395   0.219   0.647  0.00  0.00    +0.000 NA
BRANCH  14  15
ATOM     15  C   UNL     1       2.776   0.346   0.720  0.00  0.00    +0.000 C 
ATOM     16  C   UNL     1       3.430   1.352  -0.123  0.00  0.00    +0.000 C 
ATOM     17  C   UNL     1       4.369   0.683  -1.085  0.00  0.00    +0.000 C 
ATOM     18  C   UNL     1       5.251  -0.369  -0.430  0.00  0.00    +0.000 C 
ATOM     19  C   UNL     1       5.060  -0.433   1.068  0.00  0.00    +0.000 C 
ATOM     20  C   UNL     1       3.573  -0.711   1.346  0.00  0.00    +0.000 C 
ENDBRANCH  14  15
ENDBRANCH   1  13
TORSDOF 2
