REMARK  Name = 
REMARK  2 active torsions:
REMARK  status: ('A' for Active; 'I' for Inactive)
REMARK    1  A    between atoms: C_11  and  C_12
REMARK    2  A    between atoms: N_15  and  C_16
REMARK                            x       y       z     vdW  Elec       q    Type
REMARK                         _______ _______ _______ _____ _____    ______ ____
ROOT
ATOM      1  C   UNL     1      -3.639  -1.520   0.828  0.00  0.00    +0.000 C 
ATOM      2  C   UNL     1      -2.449  -0.647   0.817  0.00  0.00    +0.000 C 
ATOM      3  C   UNL     1      -2.170   0.100   2.066  0.00  0.00    +0.000 C 
ATOM      4  C   UNL     1      -2.772   0.517  -0.327  0.00  0.00    +0.000 C 
ATOM      5  C   UNL     1      -2.644  -0.510  -1.591  0.00  0.00    +0.000 C 
ATOM      6  C   UNL     1      -1.885  -1.639  -1.124  0.00  0.00    +0.000 C 
ATOM      7  C   UNL     1      -1.239  -1.226   0.145  0.00  0.00    +0.000 C 
ATOM      8  C   UNL     1      -0.588  -2.257   0.947  0.00  0.00    +0.000 C 
ATOM      9  C   UNL     1      -0.464   0.004  -0.102  0.00  0.00    +0.000 A 
ATOM     10  C   UNL     1      -1.267   1.029  -0.383  0.00  0.00    +0.000 A 
ATOM     11  C   UNL     1      -0.521   2.145  -0.606  0.00  0.00    +0.000 A 
ATOM     12  N   UNL     1       0.773   1.770  -0.452  0.00  0.00    +0.000 NA
ATOM     13  N   UNL     1       0.794   0.459  -0.144  0.00  0.00    +0.000 N 
ENDROOT
BRANCH  13  14
ATOM     14  C   UNL     1       1.986  -0.284   0.091  0.00  0.00    +0.000 A 
ATOM     15  C   UNL     1       2.048  -1.651  -0.082  0.00  0.00    +0.000 A 
ATOM     16  C   UNL     1       3.195  -2.387   0.142  0.00  0.00    +0.000 A 
ATOM     17  C   UNL     1       4.338  -1.724   0.559  0.00  0.00    +0.000 A 
ATOM     18  C   UNL     1       4.322  -0.358   0.746  0.00  0.00    +0.000 A 
ATOM     19  C   UNL     1       3.152   0.339   0.510  0.00  0.00    +0.000 A 
ENDBRANCH  13  14
BRANCH  11  20
ATOM     20  C   UNL     1      -1.022   3.484  -0.946  0.00  0.00    +0.000 C 
ATOM     21  O   UNL     1       0.052   4.356  -1.095  0.00  0.00    +0.000 OA
ENDBRANCH  11  20
TORSDOF 2
