REMARK  Name = 
REMARK  5 active torsions:
REMARK  status: ('A' for Active; 'I' for Inactive)
REMARK    1  A    between atoms: C_2  and  C_4
REMARK    2  A    between atoms: C_4  and  C_5
REMARK    3  A    between atoms: C_5  and  C_6
REMARK    4  A    between atoms: C_6  and  N_7
REMARK    5  A    between atoms: C_14  and  C_15
REMARK                            x       y       z     vdW  Elec       q    Type
REMARK                         _______ _______ _______ _____ _____    ______ ____
ROOT
ATOM      1  N   UNL     1       1.311  -0.990  -0.247  0.00  0.00    +0.000 N 
ATOM      2  C   UNL     1       1.276  -1.080   1.168  0.00  0.00    +0.000 C 
ATOM      3  O   UNL     1       2.346  -1.365   1.794  0.00  0.00    +0.000 OA
ATOM      4  N   UNL     1       0.075  -0.861   1.890  0.00  0.00    +0.000 NA
ATOM      5  C   UNL     1      -1.166  -0.537   1.232  0.00  0.00    +0.000 C 
ATOM      6  O   UNL     1      -2.205  -0.354   1.909  0.00  0.00    +0.000 OA
ATOM      7  C   UNL     1      -1.168  -0.435  -0.215  0.00  0.00    +0.000 C 
ATOM      8  C   UNL     1      -2.200  -0.148  -0.955  0.00  0.00    +0.000 C 
ATOM      9  C   UNL     1       0.096  -0.670  -0.912  0.00  0.00    +0.000 C 
ATOM     10  O   UNL     1       0.138  -0.590  -2.172  0.00  0.00    +0.000 OA
ENDROOT
BRANCH   8  11
ATOM     11  C   UNL     1      -3.555   0.135  -0.594  0.00  0.00    +0.000 A 
ATOM     12  C   UNL     1      -4.722  -0.296  -1.237  0.00  0.00    +0.000 A 
ATOM     13  C   UNL     1      -5.760   0.253  -0.526  0.00  0.00    +0.000 A 
ATOM     14  C   UNL     1      -5.271   1.002   0.526  0.00  0.00    +0.000 A 
ATOM     15  N   UNL     1      -3.951   0.898   0.438  0.00  0.00    +0.000 NA
ENDBRANCH   8  11
BRANCH   1  16
ATOM     16  C   UNL     1       2.522  -1.226  -0.996  0.00  0.00    +0.000 C 
BRANCH  16  17
ATOM     17  C   UNL     1       3.299   0.043  -1.184  0.00  0.00    +0.000 C 
BRANCH  17  18
ATOM     18  C   UNL     1       3.719   0.680   0.113  0.00  0.00    +0.000 C 
BRANCH  18  20
ATOM     19  C   UNL     1       4.922   2.586   1.089  0.00  0.00    +0.000 C 
ATOM     20  C   UNL     1       4.498   1.939  -0.228  0.00  0.00    +0.000 C 
ATOM     21  C   UNL     1       5.796   1.456  -0.895  0.00  0.00    +0.000 C 
ENDBRANCH  18  20
ENDBRANCH  17  18
ENDBRANCH  16  17
ENDBRANCH   1  16
TORSDOF 5
