REMARK  Name = 
REMARK  3 active torsions:
REMARK  status: ('A' for Active; 'I' for Inactive)
REMARK    1  A    between atoms: O_2  and  C_3
REMARK    2  A    between atoms: C_7  and  C_8
REMARK    3  A    between atoms: C_19  and  O_20
REMARK                            x       y       z     vdW  Elec       q    Type
REMARK                         _______ _______ _______ _____ _____    ______ ____
ROOT
ATOM      1  C   UNL     1      -3.593  -0.057  -0.081  0.00  0.00    +0.000 A 
ATOM      2  C   UNL     1      -2.439   0.666  -0.077  0.00  0.00    +0.000 A 
ATOM      3  C   UNL     1      -1.200   0.017  -0.069  0.00  0.00    +0.000 A 
ATOM      4  C   UNL     1       0.002   0.607  -0.064  0.00  0.00    +0.000 A 
ATOM      5  C   UNL     1       1.109  -0.149  -0.057  0.00  0.00    +0.000 A 
ATOM      6  S   UNL     1       0.424  -1.742  -0.057  0.00  0.00    +0.000 S 
ATOM      7  C   UNL     1      -1.234  -1.348  -0.067  0.00  0.00    +0.000 A 
ATOM      8  C   UNL     1      -2.403  -2.078  -0.071  0.00  0.00    +0.000 A 
ATOM      9  C   UNL     1      -3.647  -1.435  -0.079  0.00  0.00    +0.000 A 
ENDROOT
BRANCH   5  10
ATOM     10  C   UNL     1       2.526   0.128  -0.051  0.00  0.00    +0.000 C 
ATOM     11  N   UNL     1       3.374  -0.769  -0.044  0.00  0.00    +0.000 NA
ATOM     12  N   UNL     1       4.774  -0.596  -0.038  0.00  0.00    +0.000 NA
ATOM     13  C   UNL     1       5.124   0.801  -0.041  0.00  0.00    +0.000 C 
ATOM     14  O   UNL     1       6.116   1.210   0.614  0.00  0.00    +0.000 OA
ATOM     15  C   UNL     1       4.224   1.625  -0.858  0.00  0.00    +0.000 C 
ATOM     16  C   UNL     1       2.839   1.660  -0.047  0.00  0.00    +0.000 C 
ATOM     17  C   UNL     1       3.501   1.704   1.432  0.00  0.00    +0.000 C 
ENDBRANCH   5  10
BRANCH   1  19
ATOM     18  C   UNL     1      -4.946   2.004  -0.092  0.00  0.00    +0.000 C 
ATOM     19  O   UNL     1      -4.851   0.585  -0.089  0.00  0.00    +0.000 OA
ENDBRANCH   1  19
BRANCH   9  20
ATOM     20  O   UNL     1      -4.853  -2.108  -0.083  0.00  0.00    +0.000 OA
ATOM     21  C   UNL     1      -4.846  -3.524  -0.080  0.00  0.00    +0.000 C 
ENDBRANCH   9  20
TORSDOF 3
