REMARK  Name = 
REMARK  3 active torsions:
REMARK  status: ('A' for Active; 'I' for Inactive)
REMARK    1  A    between atoms: C_6  and  N_7
REMARK    2  A    between atoms: C_8  and  C_10
REMARK    3  A    between atoms: C_10  and  C_11
REMARK                            x       y       z     vdW  Elec       q    Type
REMARK                         _______ _______ _______ _____ _____    ______ ____
ROOT
ATOM      1  N   UNL     1      -0.241  -0.746   0.110  0.00  0.00    +0.000 NA
ATOM      2  C   UNL     1       0.090  -1.417  -1.111  0.00  0.00    +0.000 C 
ATOM      3  O   UNL     1      -0.741  -1.374  -2.028  0.00  0.00    +0.000 OA
ENDROOT
BRANCH   1   9
ATOM      4  C   UNL     1      -5.249   1.921   0.482  0.00  0.00    +0.000 C 
ATOM      5  C   UNL     1      -3.952   1.249   0.399  0.00  0.00    +0.000 A 
ATOM      6  C   UNL     1      -3.070   1.224   1.456  0.00  0.00    +0.000 A 
ATOM      7  C   UNL     1      -1.847   0.576   1.393  0.00  0.00    +0.000 A 
ATOM      8  O   UNL     1      -1.017   0.591   2.501  0.00  0.00    +0.000 OA
ATOM      9  C   UNL     1      -1.492  -0.065   0.240  0.00  0.00    +0.000 A 
ATOM     10  C   UNL     1      -2.378  -0.026  -0.788  0.00  0.00    +0.000 A 
ATOM     11  C   UNL     1      -3.601   0.597  -0.790  0.00  0.00    +0.000 A 
ATOM     12  C   UNL     1      -4.458   0.577  -1.980  0.00  0.00    +0.000 C 
ENDBRANCH   1   9
BRANCH   2  13
ATOM     13  C   UNL     1       1.413  -2.133  -1.220  0.00  0.00    +0.000 C 
BRANCH  13  14
ATOM     14  C   UNL     1       2.486  -1.206  -0.756  0.00  0.00    +0.000 A 
ATOM     15  C   UNL     1       3.047  -1.597   0.546  0.00  0.00    +0.000 A 
ATOM     16  C   UNL     1       3.992  -0.733   1.040  0.00  0.00    +0.000 A 
ATOM     17  C   UNL     1       4.466   0.409   0.502  0.00  0.00    +0.000 A 
ATOM     18 CL   UNL     1       5.673   1.459   1.212  0.00  0.00    +0.000 Cl
ATOM     19  C   UNL     1       3.910   0.796  -0.788  0.00  0.00    +0.000 A 
ATOM     20  C   UNL     1       2.968  -0.102  -1.241  0.00  0.00    +0.000 A 
ENDBRANCH  13  14
ENDBRANCH   2  13
TORSDOF 3
