REMARK  Name = 
REMARK  3 active torsions:
REMARK  status: ('A' for Active; 'I' for Inactive)
REMARK    1  A    between atoms: C_5  and  C_6
REMARK    2  A    between atoms: N_8  and  N_9
REMARK    3  A    between atoms: C_10  and  C_11
REMARK                            x       y       z     vdW  Elec       q    Type
REMARK                         _______ _______ _______ _____ _____    ______ ____
ROOT
ATOM      1  N   UNL     1      -0.176  -0.786   0.893  0.00  0.00    +0.000 NA
ATOM      2  C   UNL     1       0.621  -0.415  -0.034  0.00  0.00    +0.000 C 
ENDROOT
BRANCH   2   3
ATOM      3  C   UNL     1       2.051  -0.319   0.215  0.00  0.00    +0.000 A 
ATOM      4  C   UNL     1       2.555  -0.629   1.457  0.00  0.00    +0.000 A 
ATOM      5  C   UNL     1       3.914  -0.540   1.701  0.00  0.00    +0.000 A 
ATOM      6  C   UNL     1       4.799  -0.138   0.708  0.00  0.00    +0.000 A 
ATOM      7  C   UNL     1       4.295   0.173  -0.535  0.00  0.00    +0.000 A 
ATOM      8  C   UNL     1       2.928   0.080  -0.769  0.00  0.00    +0.000 A 
ATOM      9  O   UNL     1       5.205   0.571  -1.505  0.00  0.00    +0.000 OA
ATOM     10  C   UNL     1       6.312   1.348  -1.104  0.00  0.00    +0.000 C 
ATOM     11  C   UNL     1       6.867   0.983   0.232  0.00  0.00    +0.000 C 
ATOM     12  O   UNL     1       6.162  -0.033   0.901  0.00  0.00    +0.000 OA
ENDBRANCH   2   3
BRANCH   1  15
ATOM     13  C   UNL     1      -2.409   0.179   0.445  0.00  0.00    +0.000 C 
ATOM     14  O   UNL     1      -1.917   1.329   0.330  0.00  0.00    +0.000 OA
ATOM     15  N   UNL     1      -1.559  -0.902   0.728  0.00  0.00    +0.000 NA
BRANCH  13  20
ATOM     16  C   UNL     1      -8.122  -0.353  -0.228  0.00  0.00    +0.000 C 
ATOM     17  C   UNL     1      -6.650  -0.220  -0.054  0.00  0.00    +0.000 A 
ATOM     18  C   UNL     1      -6.027   1.008  -0.165  0.00  0.00    +0.000 A 
ATOM     19  C   UNL     1      -4.662   1.125  -0.002  0.00  0.00    +0.000 A 
ATOM     20  C   UNL     1      -3.855   0.043   0.275  0.00  0.00    +0.000 A 
ATOM     21  C   UNL     1      -4.485  -1.190   0.385  0.00  0.00    +0.000 A 
ATOM     22  C   UNL     1      -5.849  -1.313   0.224  0.00  0.00    +0.000 A 
ENDBRANCH  13  20
ENDBRANCH   1  15
TORSDOF 3
