REMARK  Name = 
REMARK  2 active torsions:
REMARK  status: ('A' for Active; 'I' for Inactive)
REMARK    1  A    between atoms: C_6  and  C_7
REMARK    2  A    between atoms: C_7  and  C_8
REMARK                            x       y       z     vdW  Elec       q    Type
REMARK                         _______ _______ _______ _____ _____    ______ ____
ROOT
ATOM      1  C   UNL     1       0.956   0.704  -1.471  0.00  0.00    +0.000 C 
ATOM      2  C   UNL     1       0.008  -0.068  -2.571  0.00  0.00    +0.000 C 
ATOM      3  C   UNL     1      -0.373  -1.382  -1.976  0.00  0.00    +0.000 C 
ATOM      4  C   UNL     1      -1.497  -1.093  -1.050  0.00  0.00    +0.000 A 
ATOM      5  N   UNL     1      -2.748  -1.475  -0.833  0.00  0.00    +0.000 NA
ATOM      6  C   UNL     1      -3.265  -0.797   0.214  0.00  0.00    +0.000 A 
ATOM      7  C   UNL     1      -4.493  -0.786   0.872  0.00  0.00    +0.000 A 
ATOM      8  C   UNL     1      -4.722   0.048   1.950  0.00  0.00    +0.000 A 
ATOM      9  C   UNL     1      -3.740   0.899   2.412  0.00  0.00    +0.000 A 
ATOM     10  C   UNL     1      -2.492   0.903   1.760  0.00  0.00    +0.000 A 
ATOM     11  C   UNL     1      -2.306   0.060   0.694  0.00  0.00    +0.000 A 
ATOM     12  C   UNL     1      -1.176  -0.136  -0.121  0.00  0.00    +0.000 A 
ATOM     13  C   UNL     1       0.125   0.427  -0.155  0.00  0.00    +0.000 C 
ATOM     14  O   UNL     1       0.672   0.738   0.938  0.00  0.00    +0.000 OA
ENDROOT
BRANCH   1  15
ATOM     15  C   UNL     1       1.962  -0.587  -1.285  0.00  0.00    +0.000 C 
BRANCH  15  21
ATOM     16  C   UNL     1       4.314   1.401  -1.783  0.00  0.00    +0.000 C 
ATOM     17  C   UNL     1       4.021   0.749  -0.477  0.00  0.00    +0.000 A 
ATOM     18  N   UNL     1       4.702   0.896   0.678  0.00  0.00    +0.000 NA
ATOM     19  C   UNL     1       4.069   0.115   1.585  0.00  0.00    +0.000 A 
ATOM     20  N   UNL     1       3.020  -0.494   0.976  0.00  0.00    +0.000 NA
ATOM     21  C   UNL     1       2.962  -0.122  -0.302  0.00  0.00    +0.000 A 
ENDBRANCH  15  21
ENDBRANCH   1  15
TORSDOF 2
