REMARK  Name = 
REMARK  4 active torsions:
REMARK  status: ('A' for Active; 'I' for Inactive)
REMARK    1  A    between atoms: C_7  and  N_8
REMARK    2  A    between atoms: N_8  and  C_9
REMARK    3  A    between atoms: C_9  and  C_10
REMARK    4  A    between atoms: C_15  and  N_16
REMARK                            x       y       z     vdW  Elec       q    Type
REMARK                         _______ _______ _______ _____ _____    ______ ____
ROOT
ATOM      1  C   UNL     1      -1.272   0.124   0.120  0.00  0.00    +0.000 A 
ATOM      2  C   UNL     1      -1.729  -0.728  -0.863  0.00  0.00    +0.000 A 
ATOM      3  C   UNL     1      -3.075  -0.901  -1.117  0.00  0.00    +0.000 A 
ATOM      4  C   UNL     1      -3.962  -0.184  -0.345  0.00  0.00    +0.000 A 
ATOM      5  C   UNL     1      -3.504   0.670   0.642  0.00  0.00    +0.000 A 
ATOM      6  C   UNL     1      -2.159   0.843   0.896  0.00  0.00    +0.000 A 
ATOM      7  O   UNL     1      -5.220  -0.561  -0.827  0.00  0.00    +0.000 OA
ATOM      8  C   UNL     1      -5.074  -1.159  -2.099  0.00  0.00    +0.000 C 
ATOM      9  O   UNL     1      -3.779  -1.685  -2.035  0.00  0.00    +0.000 OA
ENDROOT
BRANCH   6  10
ATOM     10  N   UNL     1      -1.675   1.724   1.912  0.00  0.00    +0.000 N 
ATOM     11  O   UNL     1      -0.622   1.437   2.492  0.00  0.00    +0.000 OA
ATOM     12  O   UNL     1      -2.381   2.862   2.222  0.00  0.00    +0.000 OA
ENDBRANCH   6  10
BRANCH   1  13
ATOM     13  C   UNL     1       0.170   0.314   0.396  0.00  0.00    +0.000 C 
BRANCH  13  14
ATOM     14  N   UNL     1       1.000  -0.483  -0.469  0.00  0.00    +0.000 NA
BRANCH  14  21
ATOM     15  C   UNL     1       5.576  -1.851  -1.833  0.00  0.00    +0.000 C 
ATOM     16  C   UNL     1       4.641  -1.058  -0.972  0.00  0.00    +0.000 A 
ATOM     17  C   UNL     1       5.153  -0.216   0.002  0.00  0.00    +0.000 A 
ATOM     18  C   UNL     1       4.337   0.535   0.820  0.00  0.00    +0.000 A 
ATOM     19  C   UNL     1       4.907   1.443   1.872  0.00  0.00    +0.000 C 
ATOM     20  C   UNL     1       2.978   0.415   0.628  0.00  0.00    +0.000 A 
ATOM     21  C   UNL     1       2.413  -0.407  -0.326  0.00  0.00    +0.000 A 
ATOM     22  C   UNL     1       3.275  -1.135  -1.114  0.00  0.00    +0.000 A 
ENDBRANCH  14  21
ENDBRANCH  13  14
ENDBRANCH   1  13
TORSDOF 4
