REMARK  Name = 
REMARK  2 active torsions:
REMARK  status: ('A' for Active; 'I' for Inactive)
REMARK    1  A    between atoms: C_3  and  C_4
REMARK    2  A    between atoms: C_4  and  C_5
REMARK                            x       y       z     vdW  Elec       q    Type
REMARK                         _______ _______ _______ _____ _____    ______ ____
ROOT
ATOM      1  O   UNL     1       0.360  -2.224  -0.312  0.00  0.00    +0.000 OA
ATOM      2  C   UNL     1      -0.212  -1.146  -0.086  0.00  0.00    +0.000 A 
ATOM      3  C   UNL     1       0.333  -0.184   0.775  0.00  0.00    +0.000 A 
ATOM      4  C   UNL     1      -0.329   0.996   1.001  0.00  0.00    +0.000 A 
ATOM      5  O   UNL     1       0.126   1.996   1.827  0.00  0.00    +0.000 OA
ATOM      6  N   UNL     1      -1.537   1.209   0.363  0.00  0.00    +0.000 N 
ATOM      7  C   UNL     1      -1.944   0.277  -0.397  0.00  0.00    +0.000 A 
ATOM      8  N   UNL     1      -1.405  -0.894  -0.694  0.00  0.00    +0.000 N 
ATOM      9  C   UNL     1      -2.053  -1.853  -1.564  0.00  0.00    +0.000 C 
ATOM     10  C   UNL     1      -3.531  -1.865  -1.288  0.00  0.00    +0.000 C 
ATOM     11  C   UNL     1      -4.049  -0.739  -0.450  0.00  0.00    +0.000 C 
ATOM     12  C   UNL     1      -3.349   0.617  -1.068  0.00  0.00    +0.000 C 
ATOM     13  C   UNL     1      -3.761   1.550   0.286  0.00  0.00    +0.000 C 
ATOM     14  C   UNL     1      -2.452   2.296   0.388  0.00  0.00    +0.000 C 
ENDROOT
BRANCH   3  15
ATOM     15  C   UNL     1       1.646  -0.434   1.448  0.00  0.00    +0.000 C 
BRANCH  15  16
ATOM     16  C   UNL     1       2.705  -0.230   0.445  0.00  0.00    +0.000 A 
ATOM     17  C   UNL     1       3.233  -1.232  -0.309  0.00  0.00    +0.000 A 
ATOM     18  C   UNL     1       4.230  -0.951  -1.240  0.00  0.00    +0.000 A 
ATOM     19  C   UNL     1       4.674   0.346  -1.389  0.00  0.00    +0.000 A 
ATOM     20  C   UNL     1       4.146   1.394  -0.625  0.00  0.00    +0.000 A 
ATOM     21  C   UNL     1       3.171   1.072   0.275  0.00  0.00    +0.000 A 
ENDBRANCH  15  16
ENDBRANCH   3  15
TORSDOF 2
