REMARK  Name = 
REMARK  2 active torsions:
REMARK  status: ('A' for Active; 'I' for Inactive)
REMARK    1  A    between atoms: N_2  and  C_4
REMARK    2  A    between atoms: C_7  and  C_8
REMARK                            x       y       z     vdW  Elec       q    Type
REMARK                         _______ _______ _______ _____ _____    ______ ____
ROOT
ATOM      1  C   UNL     1       0.015  -2.023   0.183  0.00  0.00    +0.000 C 
ATOM      2  C   UNL     1       1.247  -1.619  -0.023  0.00  0.00    +0.000 C 
ATOM      3  C   UNL     1       2.434  -2.523  -0.033  0.00  0.00    +0.000 C 
ATOM      4  O   UNL     1       2.346  -3.768   0.132  0.00  0.00    +0.000 OA
ATOM      5  N   UNL     1       3.546  -1.693  -0.253  0.00  0.00    +0.000 NA
ATOM      6  C   UNL     1       3.144  -0.339  -0.381  0.00  0.00    +0.000 A 
ATOM      7  C   UNL     1       3.880   0.834  -0.597  0.00  0.00    +0.000 A 
ATOM      8  C   UNL     1       3.196   2.020  -0.666  0.00  0.00    +0.000 A 
ATOM      9 CL   UNL     1       4.077   3.504  -0.934  0.00  0.00    +0.000 Cl
ATOM     10  C   UNL     1       1.826   2.066  -0.529  0.00  0.00    +0.000 A 
ATOM     11  C   UNL     1       1.091   0.913  -0.316  0.00  0.00    +0.000 A 
ATOM     12  C   UNL     1       1.758  -0.288  -0.243  0.00  0.00    +0.000 A 
ENDROOT
BRANCH   1  16
ATOM     13  C   UNL     1      -3.420   0.486   0.369  0.00  0.00    +0.000 A 
ATOM     14  C   UNL     1      -3.146  -0.461   1.342  0.00  0.00    +0.000 A 
ATOM     15  C   UNL     1      -2.012  -1.236   1.237  0.00  0.00    +0.000 A 
ATOM     16  C   UNL     1      -1.097  -1.121   0.181  0.00  0.00    +0.000 A 
ATOM     17  C   UNL     1      -1.407  -0.169  -0.761  0.00  0.00    +0.000 A 
ATOM     18  C   UNL     1      -2.542   0.620  -0.675  0.00  0.00    +0.000 A 
BRANCH  13  20
ATOM     19  C   UNL     1      -5.870   0.907  -0.060  0.00  0.00    +0.000 C 
ATOM     20  N   UNL     1      -4.576   1.293   0.457  0.00  0.00    +0.000 N 
ATOM     21  C   UNL     1      -4.491   2.598   1.092  0.00  0.00    +0.000 C 
ENDBRANCH  13  20
ENDBRANCH   1  16
TORSDOF 2
