REMARK  Name = 
REMARK  4 active torsions:
REMARK  status: ('A' for Active; 'I' for Inactive)
REMARK    1  A    between atoms: C_2  and  C_4
REMARK    2  A    between atoms: C_4  and  C_5
REMARK    3  A    between atoms: C_8  and  C_9
REMARK    4  A    between atoms: C_14  and  C_15
REMARK                            x       y       z     vdW  Elec       q    Type
REMARK                         _______ _______ _______ _____ _____    ______ ____
ROOT
ATOM      1  C   UNL     1       2.249   0.657   0.135  0.00  0.00    +0.000 A 
ATOM      2  C   UNL     1       1.854   0.229  -1.118  0.00  0.00    +0.000 A 
ATOM      3  C   UNL     1       0.554  -0.235  -1.348  0.00  0.00    +0.000 A 
ATOM      4  C   UNL     1      -0.292  -0.242  -0.288  0.00  0.00    +0.000 A 
ATOM      5  C   UNL     1       0.102   0.186   0.963  0.00  0.00    +0.000 A 
ATOM      6  C   UNL     1       1.383   0.645   1.198  0.00  0.00    +0.000 A 
ENDROOT
BRANCH   4   7
ATOM      7  C   UNL     1      -1.701  -0.706  -0.382  0.00  0.00    +0.000 A 
ATOM      8  C   UNL     1      -1.970  -1.861  -1.052  0.00  0.00    +0.000 A 
ATOM      9  S   UNL     1      -3.661  -2.013  -0.917  0.00  0.00    +0.000 S 
ATOM     10  C   UNL     1      -3.981  -0.609  -0.015  0.00  0.00    +0.000 A 
ATOM     11  N   UNL     1      -5.272  -0.157   0.437  0.00  0.00    +0.000 NA
ATOM     12  C   UNL     1      -2.746  -0.046   0.164  0.00  0.00    +0.000 A 
BRANCH  12  13
ATOM     13  C   UNL     1      -2.642   1.206   0.916  0.00  0.00    +0.000 C 
ATOM     14  N   UNL     1      -2.539   2.205   1.514  0.00  0.00    +0.000 NA
ENDBRANCH  12  13
ENDBRANCH   4   7
BRANCH   1  15
ATOM     15  C   UNL     1       3.628   1.139   0.340  0.00  0.00    +0.000 C 
BRANCH  15  17
ATOM     16  C   UNL     1       5.936   0.584   0.924  0.00  0.00    +0.000 C 
ATOM     17  C   UNL     1       4.553  -0.010   0.738  0.00  0.00    +0.000 C 
ATOM     18  C   UNL     1       4.545  -0.974  -0.446  0.00  0.00    +0.000 C 
ENDBRANCH  15  17
ENDBRANCH   1  15
TORSDOF 4
