REMARK  Name = 
REMARK  2 active torsions:
REMARK  status: ('A' for Active; 'I' for Inactive)
REMARK    1  A    between atoms: C_12  and  C_13
REMARK    2  A    between atoms: C_13  and  C_14
REMARK                            x       y       z     vdW  Elec       q    Type
REMARK                         _______ _______ _______ _____ _____    ______ ____
ROOT
ATOM      1  C   UNL     1       0.491   1.467   0.549  0.00  0.00    +0.000 C 
ATOM      2  C   UNL     1       0.323   0.123  -0.358  0.00  0.00    +0.000 C 
ATOM      3  C   UNL     1      -1.248   0.046  -0.226  0.00  0.00    +0.000 A 
ATOM      4  C   UNL     1      -2.204   0.997  -0.449  0.00  0.00    +0.000 A 
ATOM      5  C   UNL     1      -3.528   0.653  -0.302  0.00  0.00    +0.000 A 
ATOM      6  O   UNL     1      -4.560   1.594  -0.520  0.00  0.00    +0.000 OA
ATOM      7  C   UNL     1      -3.839  -0.640   0.066  0.00  0.00    +0.000 A 
ATOM      8  O   UNL     1      -5.189  -0.945   0.203  0.00  0.00    +0.000 OA
ATOM      9  C   UNL     1      -2.853  -1.592   0.289  0.00  0.00    +0.000 A 
ATOM     10  C   UNL     1      -1.528  -1.218   0.135  0.00  0.00    +0.000 A 
ATOM     11  O   UNL     1      -0.381  -1.982   0.304  0.00  0.00    +0.000 OA
ATOM     12  C   UNL     1       0.552  -0.914   0.991  0.00  0.00    +0.000 C 
ENDROOT
BRANCH  12  13
ATOM     13  C   UNL     1       1.914  -1.607   0.328  0.00  0.00    +0.000 C 
BRANCH  13  14
ATOM     14  C   UNL     1       2.815  -0.432   0.172  0.00  0.00    +0.000 A 
ATOM     15  C   UNL     1       2.846   0.343  -0.969  0.00  0.00    +0.000 A 
ATOM     16  C   UNL     1       3.681   1.430  -1.110  0.00  0.00    +0.000 A 
ATOM     17  C   UNL     1       4.531   1.766  -0.063  0.00  0.00    +0.000 A 
ATOM     18  C   UNL     1       4.518   1.005   1.087  0.00  0.00    +0.000 A 
ATOM     19  C   UNL     1       3.659  -0.093   1.202  0.00  0.00    +0.000 A 
ENDBRANCH  13  14
ENDBRANCH  12  13
TORSDOF 2
