REMARK  Name = 
REMARK  3 active torsions:
REMARK  status: ('A' for Active; 'I' for Inactive)
REMARK    1  A    between atoms: C_6  and  C_7
REMARK    2  A    between atoms: N_9  and  C_10
REMARK    3  A    between atoms: C_10  and  C_11
REMARK                            x       y       z     vdW  Elec       q    Type
REMARK                         _______ _______ _______ _____ _____    ______ ____
ROOT
ATOM      1  C   UNL     1      -0.177  -0.268   0.996  0.00  0.00    +0.000 C 
ATOM      2  O   UNL     1       0.529  -1.109   1.589  0.00  0.00    +0.000 OA
ATOM      3  N   UNL     1       0.239   1.083   0.865  0.00  0.00    +0.000 NA
ENDROOT
BRANCH   1   9
ATOM      4  N   UNL     1      -1.174  -3.138   1.215  0.00  0.00    +0.000 NA
ATOM      5  C   UNL     1      -1.856  -2.041   0.567  0.00  0.00    +0.000 A 
ATOM      6  S   UNL     1      -3.367  -2.095  -0.221  0.00  0.00    +0.000 S 
ATOM      7  C   UNL     1      -3.494  -0.482  -0.709  0.00  0.00    +0.000 A 
ATOM      8  C   UNL     1      -2.345   0.079  -0.246  0.00  0.00    +0.000 A 
ATOM      9  C   UNL     1      -1.475  -0.730   0.427  0.00  0.00    +0.000 A 
ATOM     10  C   UNL     1      -2.413   1.544  -0.665  0.00  0.00    +0.000 C 
ATOM     11  C   UNL     1      -3.871   1.814  -0.916  0.00  0.00    +0.000 C 
ATOM     12  C   UNL     1      -4.369   0.480  -1.425  0.00  0.00    +0.000 C 
ENDBRANCH   1   9
BRANCH   3  13
ATOM     13  C   UNL     1       1.501   1.482   1.432  0.00  0.00    +0.000 C 
BRANCH  13  14
ATOM     14  C   UNL     1       2.647   1.007   0.576  0.00  0.00    +0.000 A 
ATOM     15  C   UNL     1       2.644   1.217  -0.785  0.00  0.00    +0.000 A 
ATOM     16  C   UNL     1       3.704   0.774  -1.548  0.00  0.00    +0.000 A 
ATOM     17  C   UNL     1       4.771   0.125  -0.980  0.00  0.00    +0.000 A 
ATOM     18  C   UNL     1       4.783  -0.091   0.383  0.00  0.00    +0.000 A 
ATOM     19  C   UNL     1       3.724   0.350   1.155  0.00  0.00    +0.000 A 
ENDBRANCH  13  14
ENDBRANCH   3  13
TORSDOF 3
