REMARK  Name = 
REMARK  3 active torsions:
REMARK  status: ('A' for Active; 'I' for Inactive)
REMARK    1  A    between atoms: O_2  and  C_3
REMARK    2  A    between atoms: C_6  and  C_7
REMARK    3  A    between atoms: N_11  and  C_12
REMARK                            x       y       z     vdW  Elec       q    Type
REMARK                         _______ _______ _______ _____ _____    ______ ____
ROOT
ATOM      1  C   UNL     1      -0.042  -0.541  -0.255  0.00  0.00    +0.000 C 
ATOM      2  C   UNL     1       0.351  -1.760  -0.511  0.00  0.00    +0.000 C 
ATOM      3  S   UNL     1       2.065  -2.168  -0.538  0.00  0.00    +0.000 S 
ATOM      4  C   UNL     1       2.928  -0.649  -0.169  0.00  0.00    +0.000 C 
ATOM      5  N   UNL     1       4.330  -0.586  -0.102  0.00  0.00    +0.000 NA
ATOM      6  N   UNL     1       2.221   0.400   0.038  0.00  0.00    +0.000 NA
ATOM      7  N   UNL     1       0.861   0.491   0.007  0.00  0.00    +0.000 NA
ENDROOT
BRANCH   1  11
ATOM      8  C   UNL     1      -4.237   0.227  -0.241  0.00  0.00    +0.000 A 
ATOM      9  C   UNL     1      -3.331   1.228   0.015  0.00  0.00    +0.000 A 
ATOM     10  C   UNL     1      -1.981   0.997   0.014  0.00  0.00    +0.000 A 
ATOM     11  C   UNL     1      -1.513  -0.259  -0.247  0.00  0.00    +0.000 A 
ATOM     12  C   UNL     1      -2.396  -1.273  -0.505  0.00  0.00    +0.000 A 
ATOM     13  C   UNL     1      -3.758  -1.052  -0.507  0.00  0.00    +0.000 A 
BRANCH   8  15
ATOM     14  C   UNL     1      -6.159   1.734   0.022  0.00  0.00    +0.000 C 
ATOM     15  O   UNL     1      -5.600   0.480  -0.235  0.00  0.00    +0.000 OA
ENDBRANCH   8  15
ENDBRANCH   1  11
BRANCH   5  16
ATOM     16  C   UNL     1       5.056   0.635   0.255  0.00  0.00    +0.000 C 
ATOM     17  C   UNL     1       4.674   1.684  -0.794  0.00  0.00    +0.000 C 
ATOM     18  C   UNL     1       6.530   0.410   0.208  0.00  0.00    +0.000 C 
ENDBRANCH   5  16
TORSDOF 3
