REMARK  Name = 
REMARK  2 active torsions:
REMARK  status: ('A' for Active; 'I' for Inactive)
REMARK    1  A    between atoms: C_4  and  N_5
REMARK    2  A    between atoms: N_5  and  N_6
REMARK                            x       y       z     vdW  Elec       q    Type
REMARK                         _______ _______ _______ _____ _____    ______ ____
ROOT
ATOM      1  N   UNL     1      -0.272  -1.830   0.715  0.00  0.00    +0.000 NA
ATOM      2  C   UNL     1       0.820  -0.998   0.359  0.00  0.00    +0.000 A 
ATOM      3  N   UNL     1       1.948  -0.877   1.014  0.00  0.00    +0.000 NA
ATOM      4  C   UNL     1       2.875  -0.078   0.586  0.00  0.00    +0.000 A 
ATOM      5  C   UNL     1       4.126   0.143   1.191  0.00  0.00    +0.000 A 
ATOM      6  C   UNL     1       5.001   1.008   0.635  0.00  0.00    +0.000 A 
ATOM      7  C   UNL     1       4.781   1.730  -0.525  0.00  0.00    +0.000 A 
ATOM      8  C   UNL     1       3.555   1.519  -1.128  0.00  0.00    +0.000 A 
ATOM      9  C   UNL     1       2.638   0.626  -0.561  0.00  0.00    +0.000 A 
ATOM     10  S   UNL     1       1.046   0.069  -0.952  0.00  0.00    +0.000 S 
ENDROOT
BRANCH   1  11
ATOM     11  N   UNL     1      -1.432  -1.886  -0.054  0.00  0.00    +0.000 NA
BRANCH  11  15
ATOM     12  C   UNL     1      -3.572   1.771  -0.484  0.00  0.00    +0.000 C 
ATOM     13  C   UNL     1      -4.447   0.393  -0.697  0.00  0.00    +0.000 C 
ATOM     14  C   UNL     1      -3.196  -0.556  -0.751  0.00  0.00    +0.000 C 
ATOM     15  C   UNL     1      -2.559  -1.031   0.220  0.00  0.00    +0.000 C 
ATOM     16  C   UNL     1      -2.866  -0.791   1.626  0.00  0.00    +0.000 C 
ATOM     17  C   UNL     1      -3.615   0.525   1.690  0.00  0.00    +0.000 C 
ATOM     18  C   UNL     1      -4.830   0.262   0.880  0.00  0.00    +0.000 C 
ENDBRANCH  11  15
ENDBRANCH   1  11
TORSDOF 2
