REMARK  Name = 
REMARK  2 active torsions:
REMARK  status: ('A' for Active; 'I' for Inactive)
REMARK    1  A    between atoms: N_11  and  C_12
REMARK    2  A    between atoms: C_12  and  C_13
REMARK                            x       y       z     vdW  Elec       q    Type
REMARK                         _______ _______ _______ _____ _____    ______ ____
ROOT
ATOM      1  C   UNL     1       3.043   1.895  -0.868  0.00  0.00    +0.000 C 
ATOM      2  C   UNL     1       2.549   1.176   0.514  0.00  0.00    +0.000 C 
ATOM      3  C   UNL     1       3.987   0.575   0.982  0.00  0.00    +0.000 C 
ATOM      4  C   UNL     1       4.893   0.382  -0.119  0.00  0.00    +0.000 C 
ATOM      5  C   UNL     1       4.359  -0.475  -1.210  0.00  0.00    +0.000 C 
ATOM      6  C   UNL     1       2.893  -0.581  -1.286  0.00  0.00    +0.000 C 
ATOM      7  C   UNL     1       2.056  -0.201  -0.201  0.00  0.00    +0.000 C 
ATOM      8  N   UNL     1       1.804  -1.136   0.844  0.00  0.00    +0.000 NA
ATOM      9  C   UNL     1       0.541  -1.747   0.640  0.00  0.00    +0.000 C 
ATOM     10  O   UNL     1       0.095  -2.815   1.181  0.00  0.00    +0.000 OA
ATOM     11  N   UNL     1      -0.161  -0.940  -0.297  0.00  0.00    +0.000 N 
ATOM     12  C   UNL     1       0.683   0.147  -0.648  0.00  0.00    +0.000 C 
ATOM     13  O   UNL     1       0.305   1.183  -1.225  0.00  0.00    +0.000 OA
ENDROOT
BRANCH  11  14
ATOM     14  C   UNL     1      -1.480  -1.123  -0.836  0.00  0.00    +0.000 C 
BRANCH  14  15
ATOM     15  C   UNL     1      -2.524  -0.455  -0.017  0.00  0.00    +0.000 A 
ATOM     16  C   UNL     1      -2.252   0.260   1.131  0.00  0.00    +0.000 A 
ATOM     17  C   UNL     1      -3.247   0.873   1.874  0.00  0.00    +0.000 A 
ATOM     18  C   UNL     1      -4.553   0.781   1.478  0.00  0.00    +0.000 A 
ATOM     19  C   UNL     1      -4.861   0.063   0.318  0.00  0.00    +0.000 A 
ATOM     20  C   UNL     1      -3.845  -0.538  -0.404  0.00  0.00    +0.000 A 
ATOM     21 CL   UNL     1      -4.286  -1.425  -1.848  0.00  0.00    +0.000 Cl
ENDBRANCH  14  15
ENDBRANCH  11  14
TORSDOF 2
