REMARK  Name = 
REMARK  4 active torsions:
REMARK  status: ('A' for Active; 'I' for Inactive)
REMARK    1  A    between atoms: C_2  and  O_3
REMARK    2  A    between atoms: O_3  and  C_4
REMARK    3  A    between atoms: C_4  and  C_6
REMARK    4  A    between atoms: C_8  and  C_9
REMARK                            x       y       z     vdW  Elec       q    Type
REMARK                         _______ _______ _______ _____ _____    ______ ____
ROOT
ATOM      1  C   UNL     1       1.560   0.263  -0.259  0.00  0.00    +0.000 A 
ATOM      2  N   UNL     1       0.319   0.354   0.263  0.00  0.00    +0.000 NA
ATOM      3  C   UNL     1      -0.744  -0.207  -0.340  0.00  0.00    +0.000 A 
ATOM      4  C   UNL     1      -0.542  -0.888  -1.521  0.00  0.00    +0.000 A 
ATOM      5  N   UNL     1       0.675  -1.000  -2.069  0.00  0.00    +0.000 N 
ATOM      6  O   UNL     1       0.807  -1.687  -3.238  0.00  0.00    +0.000 OA
ATOM      7  C   UNL     1       1.711  -0.429  -1.442  0.00  0.00    +0.000 A 
ATOM      8  N   UNL     1       3.022  -0.525  -1.994  0.00  0.00    +0.000 NA
ENDROOT
BRANCH   3   9
ATOM      9  C   UNL     1      -2.095  -0.109   0.227  0.00  0.00    +0.000 A 
ATOM     10  C   UNL     1      -3.166  -0.694  -0.413  0.00  0.00    +0.000 A 
ATOM     11  C   UNL     1      -4.446  -0.601   0.125  0.00  0.00    +0.000 A 
ATOM     12  C   UNL     1      -4.693   0.071   1.304  0.00  0.00    +0.000 A 
ATOM     13  C   UNL     1      -6.072   0.161   1.866  0.00  0.00    +0.000 C 
ATOM     14  C   UNL     1      -3.614   0.653   1.937  0.00  0.00    +0.000 A 
ATOM     15  C   UNL     1      -2.337   0.563   1.405  0.00  0.00    +0.000 A 
ENDBRANCH   3   9
BRANCH   1  16
ATOM     16  C   UNL     1       2.690   0.883   0.420  0.00  0.00    +0.000 C 
ATOM     17  O   UNL     1       2.553   1.512   1.496  0.00  0.00    +0.000 OA
BRANCH  16  18
ATOM     18  O   UNL     1       3.961   0.788  -0.118  0.00  0.00    +0.000 OA
BRANCH  18  20
ATOM     19  C   UNL     1       5.306   0.781   1.866  0.00  0.00    +0.000 C 
ATOM     20  C   UNL     1       5.105   1.364   0.485  0.00  0.00    +0.000 C 
ENDBRANCH  18  20
ENDBRANCH  16  18
ENDBRANCH   1  16
TORSDOF 4
