REMARK  Name = 
REMARK  2 active torsions:
REMARK  status: ('A' for Active; 'I' for Inactive)
REMARK    1  A    between atoms: O_2  and  C_3
REMARK    2  A    between atoms: C_9  and  C_10
REMARK                            x       y       z     vdW  Elec       q    Type
REMARK                         _______ _______ _______ _____ _____    ______ ____
ROOT
ATOM      1  C   UNL     1      -2.451   1.543   0.130  0.00  0.00    +0.000 A 
ATOM      2  C   UNL     1      -3.436   0.568   0.050  0.00  0.00    +0.000 A 
ATOM      3  C   UNL     1      -3.065  -0.760   0.078  0.00  0.00    +0.000 A 
ATOM      4  C   UNL     1      -1.735  -1.112   0.184  0.00  0.00    +0.000 A 
ATOM      5  C   UNL     1      -0.758  -0.140   0.264  0.00  0.00    +0.000 A 
ATOM      6  C   UNL     1      -1.114   1.170   0.237  0.00  0.00    +0.000 A 
ATOM      7  C   UNL     1       0.450  -0.773   0.360  0.00  0.00    +0.000 A 
ATOM      8  C   UNL     1       0.224  -2.122   0.341  0.00  0.00    +0.000 A 
ATOM      9  C   UNL     1       1.286  -3.149   0.425  0.00  0.00    +0.000 C 
ATOM     10  N   UNL     1      -1.105  -2.314   0.234  0.00  0.00    +0.000 N 
ATOM     11  C   UNL     1      -1.716  -3.614   0.183  0.00  0.00    +0.000 C 
ENDROOT
BRANCH   7  12
ATOM     12  C   UNL     1       1.739  -0.044   0.465  0.00  0.00    +0.000 A 
ATOM     13  C   UNL     1       2.243   0.293   1.694  0.00  0.00    +0.000 A 
ATOM     14  S   UNL     1       3.706   1.095   1.243  0.00  0.00    +0.000 S 
ATOM     15  C   UNL     1       3.559   0.939  -0.444  0.00  0.00    +0.000 A 
ATOM     16  N   UNL     1       4.425   1.378  -1.509  0.00  0.00    +0.000 NA
ATOM     17  N   UNL     1       2.424   0.294  -0.582  0.00  0.00    +0.000 NA
ENDBRANCH   7  12
BRANCH   1  19
ATOM     18  C   UNL     1      -1.842   3.875   0.181  0.00  0.00    +0.000 C 
ATOM     19  O   UNL     1      -2.835   2.873   0.100  0.00  0.00    +0.000 OA
ENDBRANCH   1  19
TORSDOF 2
