REMARK  Name = 
REMARK  4 active torsions:
REMARK  status: ('A' for Active; 'I' for Inactive)
REMARK    1  A    between atoms: C_6  and  C_7
REMARK    2  A    between atoms: C_10  and  N_11
REMARK    3  A    between atoms: C_12  and  C_14
REMARK    4  A    between atoms: C_19  and  N_20
REMARK                            x       y       z     vdW  Elec       q    Type
REMARK                         _______ _______ _______ _____ _____    ______ ____
ROOT
ATOM      1  N   UNL     1      -0.190   0.382   0.448  0.00  0.00    +0.000 NA
ATOM      2  C   UNL     1       0.332  -0.409  -0.548  0.00  0.00    +0.000 C 
ATOM      3  O   UNL     1      -0.263  -0.576  -1.635  0.00  0.00    +0.000 OA
ENDROOT
BRANCH   1  10
ATOM      4  C   UNL     1      -0.585   3.172  -0.538  0.00  0.00    +0.000 C 
ATOM      5  C   UNL     1      -1.688   2.323  -0.006  0.00  0.00    +0.000 A 
ATOM      6  C   UNL     1      -2.975   2.882   0.042  0.00  0.00    +0.000 A 
ATOM      7  C   UNL     1      -4.028   2.155   0.519  0.00  0.00    +0.000 A 
ATOM      8  C   UNL     1      -3.759   0.880   0.938  0.00  0.00    +0.000 A 
ATOM      9  C   UNL     1      -2.510   0.336   0.892  0.00  0.00    +0.000 A 
ATOM     10  C   UNL     1      -1.401   1.047   0.412  0.00  0.00    +0.000 A 
BRANCH   9  11
ATOM     11  C   UNL     1      -2.372  -1.073   1.360  0.00  0.00    +0.000 C 
ATOM     12  C   UNL     1      -3.622  -1.472   2.161  0.00  0.00    +0.000 C 
ATOM     13  C   UNL     1      -2.276  -2.042   0.166  0.00  0.00    +0.000 C 
ENDBRANCH   9  11
ENDBRANCH   1  10
BRANCH   2  14
ATOM     14  C   UNL     1       1.600  -1.116  -0.394  0.00  0.00    +0.000 A 
ATOM     15  C   UNL     1       1.532  -2.523  -0.543  0.00  0.00    +0.000 A 
ATOM     16  C   UNL     1       2.646  -3.260  -0.341  0.00  0.00    +0.000 A 
ATOM     17  C   UNL     1       3.854  -2.691   0.004  0.00  0.00    +0.000 A 
ATOM     18  C   UNL     1       3.947  -1.340   0.151  0.00  0.00    +0.000 A 
ATOM     19  C   UNL     1       2.784  -0.560  -0.058  0.00  0.00    +0.000 A 
BRANCH  19  20
ATOM     20  N   UNL     1       2.924   0.859   0.054  0.00  0.00    +0.000 N 
ATOM     21  O   UNL     1       4.075   1.301  -0.280  0.00  0.00    +0.000 OA
ATOM     22  O   UNL     1       1.975   1.725   0.437  0.00  0.00    +0.000 OA
ENDBRANCH  19  20
ENDBRANCH   2  14
TORSDOF 4
