REMARK  Name = 
REMARK  2 active torsions:
REMARK  status: ('A' for Active; 'I' for Inactive)
REMARK    1  A    between atoms: C_2  and  C_5
REMARK    2  A    between atoms: N_9  and  C_10
REMARK                            x       y       z     vdW  Elec       q    Type
REMARK                         _______ _______ _______ _____ _____    ______ ____
ROOT
ATOM      1  C   UNL     1      -0.754   0.668   0.382  0.00  0.00    +0.000 A 
ATOM      2  C   UNL     1      -0.833  -0.112  -0.766  0.00  0.00    +0.000 A 
ATOM      3  C   UNL     1      -2.039  -0.583  -1.256  0.00  0.00    +0.000 A 
ATOM      4  C   UNL     1      -3.214  -0.275  -0.597  0.00  0.00    +0.000 A 
ATOM      5  C   UNL     1      -4.444  -0.753  -1.035  0.00  0.00    +0.000 A 
ATOM      6  C   UNL     1      -5.616  -0.468  -0.360  0.00  0.00    +0.000 A 
ATOM      7  C   UNL     1      -5.554   0.312   0.790  0.00  0.00    +0.000 A 
ATOM      8  C   UNL     1      -4.306   0.757   1.185  0.00  0.00    +0.000 A 
ATOM      9  O   UNL     1      -4.281   1.540   2.350  0.00  0.00    +0.000 OA
ATOM     10  C   UNL     1      -3.118   0.498   0.532  0.00  0.00    +0.000 A 
ATOM     11  N   UNL     1      -1.919   0.950   0.993  0.00  0.00    +0.000 NA
ENDROOT
BRANCH   1  16
ATOM     12  C   UNL     1       3.759  -0.357  -0.100  0.00  0.00    +0.000 A 
ATOM     13  C   UNL     1       3.231  -1.202  -1.064  0.00  0.00    +0.000 A 
ATOM     14  S   UNL     1       1.557  -0.823  -0.984  0.00  0.00    +0.000 S 
ATOM     15  C   UNL     1       1.649   0.379   0.274  0.00  0.00    +0.000 A 
ATOM     16  N   UNL     1       0.536   1.061   0.907  0.00  0.00    +0.000 NA
ATOM     17  N   UNL     1       2.923   0.408   0.531  0.00  0.00    +0.000 NA
BRANCH  12  19
ATOM     18  C   UNL     1       5.465  -1.802   0.805  0.00  0.00    +0.000 C 
ATOM     19  C   UNL     1       5.253  -0.445   0.173  0.00  0.00    +0.000 C 
ATOM     20  C   UNL     1       5.986  -0.420  -1.135  0.00  0.00    +0.000 C 
ATOM     21  C   UNL     1       5.719   0.666   1.065  0.00  0.00    +0.000 C 
ENDBRANCH  12  19
ENDBRANCH   1  16
TORSDOF 2
