REMARK  Name = 
REMARK  2 active torsions:
REMARK  status: ('A' for Active; 'I' for Inactive)
REMARK    1  A    between atoms: N_11  and  C_12
REMARK    2  A    between atoms: C_12  and  C_13
REMARK                            x       y       z     vdW  Elec       q    Type
REMARK                         _______ _______ _______ _____ _____    ______ ____
ROOT
ATOM      1  C   UNL     1      -4.370   0.396   0.346  0.00  0.00    +0.000 C 
ATOM      2  C   UNL     1      -2.943  -0.138   0.950  0.00  0.00    +0.000 C 
ATOM      3  C   UNL     1      -3.094  -1.702   0.507  0.00  0.00    +0.000 C 
ATOM      4  C   UNL     1      -3.975  -1.879  -0.618  0.00  0.00    +0.000 C 
ATOM      5  C   UNL     1      -3.915  -0.812  -1.652  0.00  0.00    +0.000 C 
ATOM      6  C   UNL     1      -2.793   0.113  -1.580  0.00  0.00    +0.000 C 
ATOM      7  C   UNL     1      -2.047   0.281  -0.351  0.00  0.00    +0.000 C 
ATOM      8  N   UNL     1      -1.723   1.654  -0.012  0.00  0.00    +0.000 NA
ATOM      9  C   UNL     1      -0.518   1.604   0.737  0.00  0.00    +0.000 C 
ATOM     10  O   UNL     1       0.019   2.513   1.430  0.00  0.00    +0.000 OA
ATOM     11  N   UNL     1       0.063   0.302   0.604  0.00  0.00    +0.000 N 
ATOM     12  C   UNL     1      -0.789  -0.462  -0.234  0.00  0.00    +0.000 C 
ATOM     13  O   UNL     1      -0.518  -1.556  -0.767  0.00  0.00    +0.000 OA
ENDROOT
BRANCH  11  14
ATOM     14  C   UNL     1       1.300  -0.143   1.221  0.00  0.00    +0.000 C 
BRANCH  14  15
ATOM     15  C   UNL     1       2.474   0.105   0.370  0.00  0.00    +0.000 A 
ATOM     16  C   UNL     1       2.332   0.695  -0.853  0.00  0.00    +0.000 A 
ATOM     17  C   UNL     1       3.425   0.944  -1.685  0.00  0.00    +0.000 A 
ATOM     18  C   UNL     1       4.673   0.577  -1.237  0.00  0.00    +0.000 A 
ATOM     19  C   UNL     1       4.824  -0.016  -0.009  0.00  0.00    +0.000 A 
ATOM     20  C   UNL     1       3.719  -0.257   0.807  0.00  0.00    +0.000 A 
ATOM     21  F   UNL     1       3.856  -0.843   2.027  0.00  0.00    +0.000 F 
ENDBRANCH  14  15
ENDBRANCH  11  14
TORSDOF 2
