REMARK  Name = 
REMARK  4 active torsions:
REMARK  status: ('A' for Active; 'I' for Inactive)
REMARK    1  A    between atoms: O_2  and  C_3
REMARK    2  A    between atoms: C_5  and  C_6
REMARK    3  A    between atoms: C_15  and  N_16
REMARK    4  A    between atoms: C_20  and  O_21
REMARK                            x       y       z     vdW  Elec       q    Type
REMARK                         _______ _______ _______ _____ _____    ______ ____
ROOT
ATOM      1  C   UNL     1      -2.761   0.643   0.785  0.00  0.00    +0.000 A 
ATOM      2  C   UNL     1      -1.429   0.859   0.626  0.00  0.00    +0.000 A 
ATOM      3  C   UNL     1      -0.545  -0.113   0.099  0.00  0.00    +0.000 A 
ATOM      4  C   UNL     1      -1.063  -1.316  -0.261  0.00  0.00    +0.000 A 
ATOM      5  C   UNL     1      -2.455  -1.545  -0.097  0.00  0.00    +0.000 A 
ATOM      6  C   UNL     1      -3.283  -0.581   0.416  0.00  0.00    +0.000 A 
ENDROOT
BRANCH   3   7
ATOM      7  C   UNL     1       0.861   0.246  -0.042  0.00  0.00    +0.000 A 
ATOM      8  N   UNL     1       1.887  -0.415  -0.551  0.00  0.00    +0.000 NA
ATOM      9  C   UNL     1       3.040   0.263  -0.521  0.00  0.00    +0.000 A 
ATOM     10  C   UNL     1       4.336  -0.012  -0.927  0.00  0.00    +0.000 A 
ATOM     11  C   UNL     1       5.319   0.936  -0.744  0.00  0.00    +0.000 A 
ATOM     12  C   UNL     1       5.034   2.153  -0.164  0.00  0.00    +0.000 A 
ATOM     13  C   UNL     1       3.729   2.398   0.231  0.00  0.00    +0.000 A 
ATOM     14  C   UNL     1       2.724   1.469   0.061  0.00  0.00    +0.000 A 
ATOM     15  N   UNL     1       1.413   1.444   0.344  0.00  0.00    +0.000 NA
ENDBRANCH   3   7
BRANCH   4  16
ATOM     16  N   UNL     1      -0.266  -2.343  -0.792  0.00  0.00    +0.000 N 
ATOM     17  O   UNL     1       0.886  -2.666  -0.532  0.00  0.00    +0.000 OA
ATOM     18  O   UNL     1      -0.892  -3.160  -1.746  0.00  0.00    +0.000 OA
ENDBRANCH   4  16
BRANCH   1  20
ATOM     19  C   UNL     1      -3.040   2.881   1.681  0.00  0.00    +0.000 C 
ATOM     20  O   UNL     1      -3.567   1.638   1.306  0.00  0.00    +0.000 OA
ENDBRANCH   1  20
BRANCH   6  21
ATOM     21  O   UNL     1      -4.645  -0.785   0.584  0.00  0.00    +0.000 OA
ATOM     22  C   UNL     1      -5.281  -1.995   0.243  0.00  0.00    +0.000 C 
ENDBRANCH   6  21
TORSDOF 4
