REMARK  Name = 
REMARK  4 active torsions:
REMARK  status: ('A' for Active; 'I' for Inactive)
REMARK    1  A    between atoms: C_7  and  S_8
REMARK    2  A    between atoms: S_8  and  C_9
REMARK    3  A    between atoms: C_9  and  S_12
REMARK    4  A    between atoms: S_12  and  C_13
REMARK                            x       y       z     vdW  Elec       q    Type
REMARK                         _______ _______ _______ _____ _____    ______ ____
ROOT
ATOM      1  C   UNL     1      -0.021  -1.274  -0.259  0.00  0.00    +0.000 C 
ATOM      2  C   UNL     1      -0.036  -0.620  -1.631  0.00  0.00    +0.000 C 
ATOM      3  C   UNL     1      -0.874  -2.515  -0.307  0.00  0.00    +0.000 C 
ENDROOT
BRANCH   1   4
ATOM      4  S   UNL     1      -0.761  -0.118   0.898  0.00  0.00    +0.000 S 
BRANCH   4  11
ATOM      5  C   UNL     1      -5.873  -1.432   1.277  0.00  0.00    +0.000 C 
ATOM      6  C   UNL     1      -4.795  -0.579   0.666  0.00  0.00    +0.000 A 
ATOM      7  C   UNL     1      -5.172   0.360  -0.262  0.00  0.00    +0.000 A 
ATOM      8  C   UNL     1      -4.177   1.150  -0.827  0.00  0.00    +0.000 A 
ATOM      9  C   UNL     1      -2.860   1.010  -0.484  0.00  0.00    +0.000 A 
ATOM     10  O   UNL     1      -1.857   1.799  -1.046  0.00  0.00    +0.000 OA
ATOM     11  C   UNL     1      -2.486   0.059   0.456  0.00  0.00    +0.000 A 
ATOM     12  C   UNL     1      -3.472  -0.725   1.016  0.00  0.00    +0.000 A 
ENDBRANCH   4  11
ENDBRANCH   1   4
BRANCH   1  13
ATOM     13  S   UNL     1       1.660  -1.728   0.119  0.00  0.00    +0.000 S 
BRANCH  13  14
ATOM     14  C   UNL     1       2.825  -0.415  -0.025  0.00  0.00    +0.000 A 
ATOM     15  C   UNL     1       2.510   0.877  -0.379  0.00  0.00    +0.000 A 
ATOM     16  C   UNL     1       3.504   1.833  -0.453  0.00  0.00    +0.000 A 
ATOM     17  C   UNL     1       3.192   3.234  -0.830  0.00  0.00    +0.000 C 
ATOM     18  C   UNL     1       4.821   1.526  -0.178  0.00  0.00    +0.000 A 
ATOM     19  C   UNL     1       5.148   0.246   0.173  0.00  0.00    +0.000 A 
ATOM     20  C   UNL     1       4.147  -0.701   0.243  0.00  0.00    +0.000 A 
ATOM     21  O   UNL     1       4.579  -1.986   0.612  0.00  0.00    +0.000 OA
ENDBRANCH  13  14
ENDBRANCH   1  13
TORSDOF 4
