REMARK  Name = 
REMARK  3 active torsions:
REMARK  status: ('A' for Active; 'I' for Inactive)
REMARK    1  A    between atoms: C_3  and  C_4
REMARK    2  A    between atoms: N_6  and  C_7
REMARK    3  A    between atoms: C_19  and  N_20
REMARK                            x       y       z     vdW  Elec       q    Type
REMARK                         _______ _______ _______ _____ _____    ______ ____
ROOT
ATOM      1  C   UNL     1      -0.416  -0.983  -0.540  0.00  0.00    +0.000 C 
ATOM      2  O   UNL     1       0.111  -1.565  -1.530  0.00  0.00    +0.000 OA
ATOM      3  N   UNL     1       0.453  -0.165   0.260  0.00  0.00    +0.000 NA
ENDROOT
BRANCH   3   4
ATOM      4  C   UNL     1       1.839  -0.019  -0.018  0.00  0.00    +0.000 A 
ATOM      5  C   UNL     1       2.481  -0.499  -1.125  0.00  0.00    +0.000 A 
ATOM      6  C   UNL     1       3.820  -0.304  -1.238  0.00  0.00    +0.000 A 
ATOM      7  C   UNL     1       4.565   0.362  -0.278  0.00  0.00    +0.000 A 
ATOM      8  C   UNL     1       3.912   0.846   0.838  0.00  0.00    +0.000 A 
ATOM      9  C   UNL     1       2.571   0.641   0.934  0.00  0.00    +0.000 A 
ATOM     10  C   UNL     1       4.916   1.492   1.694  0.00  0.00    +0.000 C 
ATOM     11  C   UNL     1       6.020   1.850   0.732  0.00  0.00    +0.000 C 
ATOM     12  C   UNL     1       6.022   0.665  -0.220  0.00  0.00    +0.000 C 
ENDBRANCH   3   4
BRANCH   1  15
ATOM     13  C   UNL     1      -2.236   1.360  -0.526  0.00  0.00    +0.000 C 
ATOM     14  C   UNL     1      -2.653  -0.016  -0.063  0.00  0.00    +0.000 A 
ATOM     15  C   UNL     1      -1.788  -1.062  -0.133  0.00  0.00    +0.000 A 
ATOM     16  C   UNL     1      -2.270  -2.314   0.309  0.00  0.00    +0.000 A 
ATOM     17  C   UNL     1      -3.544  -2.488   0.791  0.00  0.00    +0.000 A 
ATOM     18  C   UNL     1      -4.379  -1.418   0.840  0.00  0.00    +0.000 A 
ATOM     19  C   UNL     1      -3.941  -0.156   0.409  0.00  0.00    +0.000 A 
BRANCH  19  20
ATOM     20  N   UNL     1      -4.858   0.943   0.466  0.00  0.00    +0.000 N 
ATOM     21  O   UNL     1      -4.791   1.837  -0.386  0.00  0.00    +0.000 OA
ATOM     22  O   UNL     1      -5.834   0.991   1.448  0.00  0.00    +0.000 OA
ENDBRANCH  19  20
ENDBRANCH   1  15
TORSDOF 3
