REMARK  Name = 
REMARK  1 active torsions:
REMARK  status: ('A' for Active; 'I' for Inactive)
REMARK    1  A    between atoms: C_16  and  N_17
REMARK                            x       y       z     vdW  Elec       q    Type
REMARK                         _______ _______ _______ _____ _____    ______ ____
ROOT
ATOM      1  C   UNL     1       4.692   1.565  -0.726  0.00  0.00    +0.000 C 
ATOM      2  C   UNL     1       3.687   0.494  -0.501  0.00  0.00    +0.000 A 
ATOM      3  C   UNL     1       4.148  -0.774  -0.249  0.00  0.00    +0.000 A 
ATOM      4  C   UNL     1       3.257  -1.829  -0.029  0.00  0.00    +0.000 A 
ATOM      5  C   UNL     1       1.916  -1.530  -0.079  0.00  0.00    +0.000 A 
ATOM      6  N   UNL     1       1.020  -2.509   0.126  0.00  0.00    +0.000 NA
ATOM      7  C   UNL     1      -0.301  -2.282   0.091  0.00  0.00    +0.000 A 
ATOM      8  C   UNL     1      -1.265  -3.402   0.324  0.00  0.00    +0.000 C 
ATOM      9  N   UNL     1      -0.774  -1.044  -0.155  0.00  0.00    +0.000 N 
ATOM     10  C   UNL     1      -2.063  -0.598  -0.235  0.00  0.00    +0.000 A 
ATOM     11  C   UNL     1      -3.275  -1.217  -0.100  0.00  0.00    +0.000 A 
ATOM     12  C   UNL     1      -4.447  -0.491  -0.237  0.00  0.00    +0.000 A 
ATOM     13  C   UNL     1      -4.337   0.851  -0.509  0.00  0.00    +0.000 A 
ATOM     14  C   UNL     1      -3.131   1.503  -0.650  0.00  0.00    +0.000 A 
ATOM     15  C   UNL     1      -1.980   0.761  -0.510  0.00  0.00    +0.000 A 
ATOM     16  C   UNL     1      -0.664   1.139  -0.597  0.00  0.00    +0.000 A 
ATOM     17  C   UNL     1       0.062  -0.005  -0.371  0.00  0.00    +0.000 A 
ATOM     18  C   UNL     1       1.415  -0.266  -0.330  0.00  0.00    +0.000 A 
ATOM     19  C   UNL     1       2.333   0.757  -0.544  0.00  0.00    +0.000 A 
ENDROOT
BRANCH  16  20
ATOM     20  N   UNL     1      -0.206   2.447  -0.864  0.00  0.00    +0.000 NA
ATOM     21  C   UNL     1       0.055   3.398   0.149  0.00  0.00    +0.000 C 
ATOM     22  O   UNL     1      -0.141   3.031   1.343  0.00  0.00    +0.000 OA
ENDBRANCH  16  20
TORSDOF 1
