REMARK  Name = 
REMARK  1 active torsions:
REMARK  status: ('A' for Active; 'I' for Inactive)
REMARK    1  A    between atoms: C_10  and  C_11
REMARK                            x       y       z     vdW  Elec       q    Type
REMARK                         _______ _______ _______ _____ _____    ______ ____
ROOT
ATOM      1  C   UNL     1      -5.719   0.861  -0.511  0.00  0.00    +0.000 C 
ATOM      2  C   UNL     1      -4.360   1.379  -0.328  0.00  0.00    +0.000 C 
ATOM      3  C   UNL     1      -4.047   2.803  -0.145  0.00  0.00    +0.000 C 
ATOM      4  C   UNL     1      -3.349   0.514  -0.327  0.00  0.00    +0.000 A 
ATOM      5  N   UNL     1      -2.058   0.730  -0.183  0.00  0.00    +0.000 NA
ATOM      6  N   UNL     1      -1.225  -0.244  -0.210  0.00  0.00    +0.000 N 
ATOM      7  C   UNL     1       0.139  -0.164  -0.073  0.00  0.00    +0.000 A 
ATOM      8  N   UNL     1       0.733   0.956   0.103  0.00  0.00    +0.000 NA
ATOM      9  C   UNL     1       0.868  -1.303  -0.128  0.00  0.00    +0.000 A 
ATOM     10  C   UNL     1       2.200  -1.230   0.004  0.00  0.00    +0.000 C 
ATOM     11  C   UNL     1       0.382  -2.583  -0.312  0.00  0.00    +0.000 A 
ATOM     12  O   UNL     1       1.077  -3.606  -0.357  0.00  0.00    +0.000 OA
ATOM     13  N   UNL     1      -0.971  -2.663  -0.447  0.00  0.00    +0.000 NA
ATOM     14  C   UNL     1      -1.751  -1.540  -0.399  0.00  0.00    +0.000 A 
ATOM     15  S   UNL     1      -3.430  -1.179  -0.517  0.00  0.00    +0.000 S 
ENDROOT
BRANCH  10  16
ATOM     16  C   UNL     1       2.904   0.010   0.204  0.00  0.00    +0.000 A 
ATOM     17  C   UNL     1       3.367   0.765  -0.844  0.00  0.00    +0.000 A 
ATOM     18  C   UNL     1       4.044   1.958  -0.658  0.00  0.00    +0.000 A 
ATOM     19  C   UNL     1       4.256   2.394   0.631  0.00  0.00    +0.000 A 
ATOM     20  C   UNL     1       3.810   1.672   1.702  0.00  0.00    +0.000 A 
ATOM     21  C   UNL     1       3.129   0.470   1.479  0.00  0.00    +0.000 A 
ENDBRANCH  10  16
TORSDOF 1
