REMARK  Name = 
REMARK  2 active torsions:
REMARK  status: ('A' for Active; 'I' for Inactive)
REMARK    1  A    between atoms: C_6  and  C_7
REMARK    2  A    between atoms: N_11  and  C_12
REMARK                            x       y       z     vdW  Elec       q    Type
REMARK                         _______ _______ _______ _____ _____    ______ ____
ROOT
ATOM      1  C   UNL     1      -1.607   2.945  -2.467  0.00  0.00    +0.000 C 
ATOM      2  C   UNL     1      -1.831   1.793  -1.556  0.00  0.00    +0.000 A 
ATOM      3  C   UNL     1      -3.102   1.319  -1.256  0.00  0.00    +0.000 A 
ATOM      4  C   UNL     1      -3.276   0.251  -0.409  0.00  0.00    +0.000 A 
ATOM      5  C   UNL     1      -4.597  -0.317  -0.036  0.00  0.00    +0.000 C 
ATOM      6  C   UNL     1      -2.147  -0.331   0.130  0.00  0.00    +0.000 A 
ATOM      7  C   UNL     1      -0.870   0.155  -0.179  0.00  0.00    +0.000 A 
ATOM      8  N   UNL     1       0.260  -0.493   0.413  0.00  0.00    +0.000 NA
ATOM      9  N   UNL     1      -0.773   1.191  -1.006  0.00  0.00    +0.000 NA
ENDROOT
BRANCH   8  10
ATOM     10  C   UNL     1       1.590  -0.062   0.150  0.00  0.00    +0.000 A 
ATOM     11  C   UNL     1       1.816   1.006  -0.693  0.00  0.00    +0.000 A 
ATOM     12  C   UNL     1       3.129   1.372  -0.904  0.00  0.00    +0.000 A 
ATOM     13  C   UNL     1       4.199   0.729  -0.320  0.00  0.00    +0.000 A 
ATOM     14  C   UNL     1       3.963  -0.349   0.531  0.00  0.00    +0.000 A 
ATOM     15 CL   UNL     1       5.267  -1.218   1.312  0.00  0.00    +0.000 Cl
ATOM     16  C   UNL     1       2.643  -0.717   0.744  0.00  0.00    +0.000 A 
ATOM     17  C   UNL     1       2.413  -1.874   1.658  0.00  0.00    +0.000 C 
ENDBRANCH   8  10
BRANCH   6  18
ATOM     18  C   UNL     1      -2.274  -1.462   1.030  0.00  0.00    +0.000 C 
ATOM     19  N   UNL     1      -3.561  -1.957   1.347  0.00  0.00    +0.000 NA
ATOM     20  O   UNL     1      -1.243  -1.981   1.512  0.00  0.00    +0.000 OA
ENDBRANCH   6  18
TORSDOF 2
