REMARK  Name = 
REMARK  2 active torsions:
REMARK  status: ('A' for Active; 'I' for Inactive)
REMARK    1  A    between atoms: S_2  and  C_3
REMARK    2  A    between atoms: C_5  and  C_7
REMARK                            x       y       z     vdW  Elec       q    Type
REMARK                         _______ _______ _______ _____ _____    ______ ____
ROOT
ATOM      1  C   UNL     1      -2.202   0.328   0.886  0.00  0.00    +0.000 C 
ATOM      2  N   UNL     1      -1.206   0.573   0.136  0.00  0.00    +0.000 NA
ATOM      3  C   UNL     1      -0.328  -0.388  -0.493  0.00  0.00    +0.000 C 
ATOM      4  C   UNL     1      -0.682  -0.513  -1.976  0.00  0.00    +0.000 C 
ATOM      5  C   UNL     1      -0.494  -1.759   0.162  0.00  0.00    +0.000 C 
ATOM      6  C   UNL     1      -1.985  -2.011   0.234  0.00  0.00    +0.000 C 
ATOM      7  C   UNL     1      -2.560  -1.700  -1.135  0.00  0.00    +0.000 C 
ATOM      8  C   UNL     1      -2.300  -3.422   0.663  0.00  0.00    +0.000 C 
ATOM      9  N   UNL     1      -2.517  -1.031   1.159  0.00  0.00    +0.000 NA
ENDROOT
BRANCH   3  10
ATOM     10  C   UNL     1       1.048   0.104  -0.380  0.00  0.00    +0.000 A 
ATOM     11  C   UNL     1       1.796   0.350  -1.492  0.00  0.00    +0.000 A 
ATOM     12  C   UNL     1       3.096   0.815  -1.413  0.00  0.00    +0.000 A 
ATOM     13  C   UNL     1       3.696   1.050  -0.189  0.00  0.00    +0.000 A 
ATOM     14  O   UNL     1       5.000   1.517  -0.093  0.00  0.00    +0.000 OA
ATOM     15  C   UNL     1       2.926   0.797   0.931  0.00  0.00    +0.000 A 
ATOM     16  C   UNL     1       1.635   0.336   0.856  0.00  0.00    +0.000 A 
ATOM     17  O   UNL     1       0.850   0.077   1.969  0.00  0.00    +0.000 OA
ENDBRANCH   3  10
BRANCH   1  19
ATOM     18  C   UNL     1      -2.563   3.236   1.074  0.00  0.00    +0.000 C 
ATOM     19  S   UNL     1      -3.211   1.643   1.603  0.00  0.00    +0.000 S 
ENDBRANCH   1  19
TORSDOF 2
