REMARK  Name = 
REMARK  6 active torsions:
REMARK  status: ('A' for Active; 'I' for Inactive)
REMARK    1  A    between atoms: C_2  and  C_3
REMARK    2  A    between atoms: C_6  and  N_7
REMARK    3  A    between atoms: C_8  and  C_10
REMARK    4  A    between atoms: C_10  and  N_11
REMARK    5  A    between atoms: N_14  and  C_15
REMARK    6  A    between atoms: C_17  and  C_18
REMARK                            x       y       z     vdW  Elec       q    Type
REMARK                         _______ _______ _______ _____ _____    ______ ____
ROOT
ATOM      1  N   UNL     1       0.263  -1.797   0.116  0.00  0.00    +0.000 NA
ATOM      2  C   UNL     1       0.165  -0.832   1.200  0.00  0.00    +0.000 C 
ATOM      3  C   UNL     1      -1.349  -0.766   1.490  0.00  0.00    +0.000 C 
ATOM      4  N   UNL     1      -1.964  -0.288   0.257  0.00  0.00    +0.000 N 
ATOM      5  C   UNL     1      -1.445  -0.514  -1.071  0.00  0.00    +0.000 C 
ATOM      6  C   UNL     1      -0.192  -1.325  -1.129  0.00  0.00    +0.000 C 
ENDROOT
BRANCH   4   7
ATOM      7  C   UNL     1      -3.149   0.465   0.396  0.00  0.00    +0.000 A 
ATOM      8  C   UNL     1      -4.395  -0.037   0.089  0.00  0.00    +0.000 A 
ATOM      9  C   UNL     1      -5.533   0.738   0.235  0.00  0.00    +0.000 A 
ATOM     10  N   UNL     1      -5.397   2.002   0.685  0.00  0.00    +0.000 NA
ATOM     11  C   UNL     1      -4.177   2.491   0.985  0.00  0.00    +0.000 A 
ATOM     12  N   UNL     1      -3.070   1.722   0.839  0.00  0.00    +0.000 NA
BRANCH   9  13
ATOM     13  C   UNL     1      -6.869   0.194  -0.062  0.00  0.00    +0.000 C 
ATOM     14  F   UNL     1      -7.827   0.745   0.795  0.00  0.00    +0.000 F 
ATOM     15  F   UNL     1      -7.274   0.483  -1.338  0.00  0.00    +0.000 F 
ATOM     16  F   UNL     1      -6.889  -1.190   0.169  0.00  0.00    +0.000 F 
ENDBRANCH   9  13
ENDBRANCH   4   7
BRANCH   1  17
ATOM     17  C   UNL     1       1.371  -2.662   0.159  0.00  0.00    +0.000 C 
BRANCH  17  19
ATOM     18  N   UNL     1       2.865  -0.724  -0.321  0.00  0.00    +0.000 NA
ATOM     19  C   UNL     1       2.690  -2.099  -0.057  0.00  0.00    +0.000 C 
ATOM     20  O   UNL     1       3.748  -2.814  -0.019  0.00  0.00    +0.000 OA
BRANCH  18  24
ATOM     21  C   UNL     1       6.611   0.959  -0.872  0.00  0.00    +0.000 A 
ATOM     22  C   UNL     1       6.492  -0.366  -0.545  0.00  0.00    +0.000 A 
ATOM     23  C   UNL     1       5.233  -0.934  -0.369  0.00  0.00    +0.000 A 
ATOM     24  C   UNL     1       4.139  -0.134  -0.530  0.00  0.00    +0.000 A 
ATOM     25  C   UNL     1       4.211   1.187  -0.858  0.00  0.00    +0.000 A 
ATOM     26  C   UNL     1       5.492   1.722  -1.026  0.00  0.00    +0.000 A 
BRANCH  21  28
ATOM     27  C   UNL     1       8.325   2.160   0.312  0.00  0.00    +0.000 C 
ATOM     28  C   UNL     1       7.925   1.613  -1.056  0.00  0.00    +0.000 C 
ENDBRANCH  21  28
ENDBRANCH  18  24
ENDBRANCH  17  19
ENDBRANCH   1  17
TORSDOF 6
