REMARK  Name = 
REMARK  2 active torsions:
REMARK  status: ('A' for Active; 'I' for Inactive)
REMARK    1  A    between atoms: C_8  and  C_9
REMARK    2  A    between atoms: C_17  and  C_18
REMARK                            x       y       z     vdW  Elec       q    Type
REMARK                         _______ _______ _______ _____ _____    ______ ____
ROOT
ATOM      1  C   UNL     1      -3.546   1.515   2.508  0.00  0.00    +0.000 C 
ATOM      2  C   UNL     1      -2.602   0.839   1.546  0.00  0.00    +0.000 A 
ATOM      3  C   UNL     1      -2.743  -0.491   1.225  0.00  0.00    +0.000 A 
ATOM      4  C   UNL     1      -1.871  -1.090   0.344  0.00  0.00    +0.000 A 
ATOM      5  C   UNL     1      -0.881  -0.362  -0.200  0.00  0.00    +0.000 A 
ATOM      6  C   UNL     1      -0.744   0.920   0.110  0.00  0.00    +0.000 A 
ATOM      7  C   UNL     1      -1.571   1.564   0.969  0.00  0.00    +0.000 A 
ATOM      8  C   UNL     1       0.468   1.779  -0.536  0.00  0.00    +0.000 C 
ATOM      9  C   UNL     1       1.594   0.674  -0.147  0.00  0.00    +0.000 A 
ATOM     10  C   UNL     1       2.682   1.181   0.520  0.00  0.00    +0.000 A 
ATOM     11  C   UNL     1       3.643   0.246   0.868  0.00  0.00    +0.000 A 
ATOM     12  C   UNL     1       3.517  -1.091   0.567  0.00  0.00    +0.000 A 
ATOM     13  C   UNL     1       2.388  -1.502  -0.106  0.00  0.00    +0.000 A 
ATOM     14  C   UNL     1       1.451  -0.589  -0.445  0.00  0.00    +0.000 A 
ATOM     15  C   UNL     1       0.146  -1.011  -1.247  0.00  0.00    +0.000 C 
ENDROOT
BRANCH   8  16
ATOM     16  C   UNL     1       0.260   1.212  -2.085  0.00  0.00    +0.000 C 
ATOM     17  O   UNL     1      -1.049   1.635  -2.322  0.00  0.00    +0.000 OA
ENDBRANCH   8  16
BRANCH  15  18
ATOM     18  C   UNL     1       0.097  -2.568  -0.699  0.00  0.00    +0.000 C 
ATOM     19  O   UNL     1      -1.239  -2.862  -0.870  0.00  0.00    +0.000 OA
ENDBRANCH  15  18
TORSDOF 2
