REMARK  Name = 
REMARK  5 active torsions:
REMARK  status: ('A' for Active; 'I' for Inactive)
REMARK    1  A    between atoms: C_2  and  O_3
REMARK    2  A    between atoms: O_3  and  C_4
REMARK    3  A    between atoms: C_4  and  C_6
REMARK    4  A    between atoms: C_8  and  C_9
REMARK    5  A    between atoms: C_12  and  O_13
REMARK                            x       y       z     vdW  Elec       q    Type
REMARK                         _______ _______ _______ _____ _____    ______ ____
ROOT
ATOM      1  C   UNL     1      -2.029  -0.000   0.069  0.00  0.00    +0.000 A 
ATOM      2  C   UNL     1      -0.729   0.262  -0.165  0.00  0.00    +0.000 A 
ATOM      3  C   UNL     1       0.206  -0.565   0.363  0.00  0.00    +0.000 A 
ATOM      4  S   UNL     1      -0.758  -1.720   1.196  0.00  0.00    +0.000 S 
ATOM      5  C   UNL     1      -2.300  -1.104   0.837  0.00  0.00    +0.000 A 
ATOM      6  N   UNL     1      -3.613  -1.571   1.212  0.00  0.00    +0.000 NA
ENDROOT
BRANCH   3   7
ATOM      7  C   UNL     1       1.667  -0.498   0.256  0.00  0.00    +0.000 A 
ATOM      8  C   UNL     1       2.297   0.481  -0.441  0.00  0.00    +0.000 A 
ATOM      9  C   UNL     1       3.702   0.523  -0.529  0.00  0.00    +0.000 A 
ATOM     10  C   UNL     1       4.441  -0.451   0.108  0.00  0.00    +0.000 A 
ATOM     11  C   UNL     1       3.806  -1.452   0.822  0.00  0.00    +0.000 A 
ATOM     12  C   UNL     1       2.404  -1.466   0.889  0.00  0.00    +0.000 A 
BRANCH  10  13
ATOM     13  O   UNL     1       5.836  -0.440   0.043  0.00  0.00    +0.000 OA
ATOM     14  C   UNL     1       6.480   0.584  -0.686  0.00  0.00    +0.000 C 
ENDBRANCH  10  13
ENDBRANCH   3   7
BRANCH   1  15
ATOM     15  C   UNL     1      -3.117   0.867  -0.481  0.00  0.00    +0.000 C 
ATOM     16  O   UNL     1      -2.869   1.876  -1.183  0.00  0.00    +0.000 OA
BRANCH  15  17
ATOM     17  O   UNL     1      -4.441   0.579  -0.228  0.00  0.00    +0.000 OA
BRANCH  17  19
ATOM     18  C   UNL     1      -5.463   2.767  -0.194  0.00  0.00    +0.000 C 
ATOM     19  C   UNL     1      -5.521   1.327  -0.696  0.00  0.00    +0.000 C 
ENDBRANCH  17  19
ENDBRANCH  15  17
ENDBRANCH   1  15
TORSDOF 5
