REMARK  Name = 
REMARK  4 active torsions:
REMARK  status: ('A' for Active; 'I' for Inactive)
REMARK    1  A    between atoms: N_2  and  C_4
REMARK    2  A    between atoms: C_7  and  C_8
REMARK    3  A    between atoms: C_8  and  N_9
REMARK    4  A    between atoms: C_15  and  C_16
REMARK                            x       y       z     vdW  Elec       q    Type
REMARK                         _______ _______ _______ _____ _____    ______ ____
ROOT
ATOM      1  N   UNL     1      -1.127  -0.108  -0.273  0.00  0.00    +0.000 N 
ATOM      2  C   UNL     1      -1.087  -0.145   1.100  0.00  0.00    +0.000 C 
ATOM      3  C   UNL     1      -1.949  -1.067   1.842  0.00  0.00    +0.000 C 
ATOM      4  C   UNL     1      -2.593  -2.064   0.973  0.00  0.00    +0.000 C 
ATOM      5  C   UNL     1      -2.674  -1.860  -0.443  0.00  0.00    +0.000 C 
ATOM      6  C   UNL     1      -2.568  -0.283  -0.837  0.00  0.00    +0.000 C 
ATOM      7  C   UNL     1      -3.402   0.291   0.535  0.00  0.00    +0.000 C 
ATOM      8  C   UNL     1      -2.591   1.677   0.678  0.00  0.00    +0.000 C 
ATOM      9  C   UNL     1      -2.013   2.068  -0.616  0.00  0.00    +0.000 C 
ATOM     10  C   UNL     1      -0.775   1.200  -0.838  0.00  0.00    +0.000 C 
ENDROOT
BRANCH   7  11
ATOM     11  C   UNL     1      -4.594   0.958  -0.363  0.00  0.00    +0.000 C 
ATOM     12  O   UNL     1      -5.466   1.531   0.572  0.00  0.00    +0.000 OA
ENDBRANCH   7  11
BRANCH   1  13
ATOM     13  C   UNL     1      -0.331  -1.143  -0.947  0.00  0.00    +0.000 C 
BRANCH  13  17
ATOM     14  C   UNL     1       3.783  -0.023  -0.507  0.00  0.00    +0.000 A 
ATOM     15  C   UNL     1       3.143  -0.831   0.423  0.00  0.00    +0.000 A 
ATOM     16  C   UNL     1       1.820  -1.205   0.303  0.00  0.00    +0.000 A 
ATOM     17  C   UNL     1       1.079  -0.775  -0.771  0.00  0.00    +0.000 A 
ATOM     18  C   UNL     1       1.690   0.026  -1.706  0.00  0.00    +0.000 A 
ATOM     19  C   UNL     1       3.014   0.394  -1.576  0.00  0.00    +0.000 A 
BRANCH  14  21
ATOM     20  O   UNL     1       5.644   1.075  -1.240  0.00  0.00    +0.000 OA
ATOM     21  N   UNL     1       5.133   0.356  -0.380  0.00  0.00    +0.000 N 
ATOM     22  O   UNL     1       5.864  -0.071   0.683  0.00  0.00    +0.000 OA
ENDBRANCH  14  21
ENDBRANCH  13  17
ENDBRANCH   1  13
TORSDOF 4
