REMARK  Name = 
REMARK  2 active torsions:
REMARK  status: ('A' for Active; 'I' for Inactive)
REMARK    1  A    between atoms: C_4  and  N_5
REMARK    2  A    between atoms: C_6  and  C_8
REMARK                            x       y       z     vdW  Elec       q    Type
REMARK                         _______ _______ _______ _____ _____    ______ ____
ROOT
ATOM      1  N   UNL     1       0.115   0.726  -0.740  0.00  0.00    +0.000 NA
ATOM      2  C   UNL     1       0.879  -0.375  -0.425  0.00  0.00    +0.000 C 
ATOM      3  O   UNL     1       0.280  -1.463  -0.277  0.00  0.00    +0.000 OA
ENDROOT
BRANCH   1   7
ATOM      4  C   UNL     1      -3.811   2.962   0.810  0.00  0.00    +0.000 C 
ATOM      5  C   UNL     1      -3.292   1.953  -0.409  0.00  0.00    +0.000 C 
ATOM      6  C   UNL     1      -1.795   1.798   0.246  0.00  0.00    +0.000 C 
ATOM      7  C   UNL     1      -1.440   0.634  -0.911  0.00  0.00    +0.000 C 
ATOM      8  C   UNL     1      -1.653  -0.557   0.200  0.00  0.00    +0.000 C 
ATOM      9  C   UNL     1      -3.119  -0.501   0.417  0.00  0.00    +0.000 C 
ATOM     10  C   UNL     1      -3.360  -1.130   1.809  0.00  0.00    +0.000 C 
ATOM     11  C   UNL     1      -3.680  -1.585  -0.536  0.00  0.00    +0.000 C 
ATOM     12  C   UNL     1      -3.916   0.634   0.322  0.00  0.00    +0.000 C 
ENDBRANCH   1   7
BRANCH   2  13
ATOM     13  C   UNL     1       2.317  -0.226  -0.281  0.00  0.00    +0.000 A 
ATOM     14  C   UNL     1       2.933   0.987  -0.460  0.00  0.00    +0.000 A 
ATOM     15  C   UNL     1       4.321   1.117  -0.320  0.00  0.00    +0.000 A 
ATOM     16  C   UNL     1       5.104   0.037  -0.000  0.00  0.00    +0.000 A 
ATOM     17  C   UNL     1       4.509  -1.185   0.183  0.00  0.00    +0.000 A 
ATOM     18  C   UNL     1       3.134  -1.278   0.036  0.00  0.00    +0.000 A 
ATOM     19  N   UNL     1       2.472  -2.546   0.221  0.00  0.00    +0.000 NA
ENDBRANCH   2  13
TORSDOF 2
