REMARK  Name = 
REMARK  4 active torsions:
REMARK  status: ('A' for Active; 'I' for Inactive)
REMARK    1  A    between atoms: C_2  and  C_4
REMARK    2  A    between atoms: C_7  and  C_8
REMARK    3  A    between atoms: C_8  and  S_9
REMARK    4  A    between atoms: S_9  and  C_10
REMARK                            x       y       z     vdW  Elec       q    Type
REMARK                         _______ _______ _______ _____ _____    ______ ____
ROOT
ATOM      1  C   UNL     1       2.561   0.812  -0.312  0.00  0.00    +0.000 A 
ATOM      2  C   UNL     1       2.687  -0.460  -0.829  0.00  0.00    +0.000 A 
ATOM      3  C   UNL     1       1.866  -1.500  -0.477  0.00  0.00    +0.000 A 
ATOM      4  C   UNL     1       0.859  -1.237   0.451  0.00  0.00    +0.000 A 
ATOM      5  C   UNL     1       0.695   0.019   0.994  0.00  0.00    +0.000 A 
ATOM      6  C   UNL     1       1.552   1.036   0.605  0.00  0.00    +0.000 A 
ENDROOT
BRANCH   1   8
ATOM      7  C   UNL     1       4.635   1.951   0.258  0.00  0.00    +0.000 C 
ATOM      8  C   UNL     1       3.471   1.932  -0.712  0.00  0.00    +0.000 C 
ATOM      9  C   UNL     1       3.909   1.817  -2.149  0.00  0.00    +0.000 C 
ENDBRANCH   1   8
BRANCH   4  10
ATOM     10  C   UNL     1      -0.078  -2.297   0.897  0.00  0.00    +0.000 C 
BRANCH  10  11
ATOM     11  S   UNL     1      -1.556  -2.438  -0.102  0.00  0.00    +0.000 S 
BRANCH  11  12
ATOM     12  C   UNL     1      -2.528  -0.942   0.109  0.00  0.00    +0.000 A 
ATOM     13  N   UNL     1      -3.469  -0.682   1.011  0.00  0.00    +0.000 NA
ATOM     14  N   UNL     1      -4.058   0.431   1.009  0.00  0.00    +0.000 NA
ATOM     15  C   UNL     1      -3.743   1.353   0.105  0.00  0.00    +0.000 A 
ATOM     16  N   UNL     1      -4.278   2.669  -0.082  0.00  0.00    +0.000 NA
ATOM     17  S   UNL     1      -2.525   0.536  -0.777  0.00  0.00    +0.000 S 
ENDBRANCH  11  12
ENDBRANCH  10  11
ENDBRANCH   4  10
TORSDOF 4
