REMARK  Name = 
REMARK  2 active torsions:
REMARK  status: ('A' for Active; 'I' for Inactive)
REMARK    1  A    between atoms: C_11  and  C_12
REMARK    2  A    between atoms: N_14  and  C_15
REMARK                            x       y       z     vdW  Elec       q    Type
REMARK                         _______ _______ _______ _____ _____    ______ ____
ROOT
ATOM      1  C   UNL     1       0.173  -2.506   1.630  0.00  0.00    +0.000 C 
ATOM      2  C   UNL     1      -0.824  -1.527   1.098  0.00  0.00    +0.000 A 
ATOM      3  O   UNL     1      -2.061  -1.343   1.401  0.00  0.00    +0.000 OA
ATOM      4  C   UNL     1      -2.608  -0.356   0.686  0.00  0.00    +0.000 A 
ATOM      5  C   UNL     1      -3.883   0.200   0.652  0.00  0.00    +0.000 A 
ATOM      6  C   UNL     1      -4.068   1.238  -0.245  0.00  0.00    +0.000 A 
ATOM      7  C   UNL     1      -3.065   1.711  -1.066  0.00  0.00    +0.000 A 
ATOM      8  O   UNL     1      -3.410   2.769  -1.921  0.00  0.00    +0.000 OA
ATOM      9  C   UNL     1      -1.821   1.156  -1.023  0.00  0.00    +0.000 A 
ATOM     10  C   UNL     1      -1.609   0.119  -0.140  0.00  0.00    +0.000 A 
ATOM     11  C   UNL     1      -0.474  -0.603   0.098  0.00  0.00    +0.000 A 
ENDROOT
BRANCH  11  12
ATOM     12  C   UNL     1       0.860  -0.454  -0.495  0.00  0.00    +0.000 C 
ATOM     13  O   UNL     1       1.049   0.152  -1.565  0.00  0.00    +0.000 OA
ATOM     14  N   UNL     1       2.015  -1.024   0.171  0.00  0.00    +0.000 NA
BRANCH  14  15
ATOM     15  C   UNL     1       3.329  -0.880  -0.416  0.00  0.00    +0.000 C 
ATOM     16  C   UNL     1       3.465   0.537  -0.957  0.00  0.00    +0.000 C 
ATOM     17  C   UNL     1       4.059   1.371   0.179  0.00  0.00    +0.000 C 
ATOM     18  C   UNL     1       4.468   0.411   1.248  0.00  0.00    +0.000 C 
ATOM     19  C   UNL     1       4.404  -0.971   0.664  0.00  0.00    +0.000 C 
ENDBRANCH  14  15
ENDBRANCH  11  12
TORSDOF 2
