REMARK  Name = 
REMARK  2 active torsions:
REMARK  status: ('A' for Active; 'I' for Inactive)
REMARK    1  A    between atoms: O_2  and  C_3
REMARK    2  A    between atoms: C_9  and  C_10
REMARK                            x       y       z     vdW  Elec       q    Type
REMARK                         _______ _______ _______ _____ _____    ______ ____
ROOT
ATOM      1  C   UNL     1       4.062   0.157  -1.189  0.00  0.00    +0.000 A 
ATOM      2  C   UNL     1       3.661   1.348  -0.620  0.00  0.00    +0.000 A 
ATOM      3  C   UNL     1       2.378   1.539  -0.156  0.00  0.00    +0.000 A 
ATOM      4  C   UNL     1       1.444   0.542  -0.245  0.00  0.00    +0.000 A 
ATOM      5  C   UNL     1       0.156   0.768   0.232  0.00  0.00    +0.000 A 
ATOM      6  O   UNL     1      -0.178   1.876   0.749  0.00  0.00    +0.000 OA
ATOM      7  C   UNL     1      -0.744  -0.262   0.120  0.00  0.00    +0.000 A 
ATOM      8  C   UNL     1      -0.286  -1.438  -0.459  0.00  0.00    +0.000 A 
ATOM      9  C   UNL     1      -1.244  -2.565  -0.589  0.00  0.00    +0.000 C 
ATOM     10  O   UNL     1       0.926  -1.599  -0.889  0.00  0.00    +0.000 OA
ATOM     11  C   UNL     1       1.829  -0.655  -0.811  0.00  0.00    +0.000 A 
ATOM     12  C   UNL     1       3.119  -0.833  -1.272  0.00  0.00    +0.000 A 
ENDROOT
BRANCH   7  13
ATOM     13  C   UNL     1      -2.134  -0.117   0.572  0.00  0.00    +0.000 A 
ATOM     14  C   UNL     1      -3.199  -0.039  -0.295  0.00  0.00    +0.000 A 
ATOM     15  C   UNL     1      -4.480   0.102   0.178  0.00  0.00    +0.000 A 
ATOM     16  C   UNL     1      -4.769   0.170   1.540  0.00  0.00    +0.000 A 
ATOM     17  N   UNL     1      -6.119   0.326   2.009  0.00  0.00    +0.000 NA
ATOM     18  C   UNL     1      -3.700   0.092   2.409  0.00  0.00    +0.000 A 
ATOM     19  C   UNL     1      -2.412  -0.047   1.942  0.00  0.00    +0.000 A 
ENDBRANCH   7  13
BRANCH   1  21
ATOM     20  C   UNL     1       6.313   1.012  -1.558  0.00  0.00    +0.000 C 
ATOM     21  O   UNL     1       5.376  -0.048  -1.668  0.00  0.00    +0.000 OA
ENDBRANCH   1  21
TORSDOF 2
