REMARK  Name = 
REMARK  2 active torsions:
REMARK  status: ('A' for Active; 'I' for Inactive)
REMARK    1  A    between atoms: C_2  and  N_3
REMARK    2  A    between atoms: C_6  and  C_7
REMARK                            x       y       z     vdW  Elec       q    Type
REMARK                         _______ _______ _______ _____ _____    ______ ____
ROOT
ATOM      1  C   UNL     1      -0.481  -1.071   0.390  0.00  0.00    +0.000 A 
ATOM      2  C   UNL     1      -1.157  -2.220   0.717  0.00  0.00    +0.000 A 
ATOM      3  N   UNL     1      -2.453  -2.092   0.389  0.00  0.00    +0.000 NA
ATOM      4  C   UNL     1      -2.662  -0.879  -0.152  0.00  0.00    +0.000 A 
ATOM      5  C   UNL     1      -3.819  -0.266  -0.649  0.00  0.00    +0.000 A 
ATOM      6  C   UNL     1      -3.749   1.011  -1.157  0.00  0.00    +0.000 A 
ATOM      7  C   UNL     1      -4.976   1.697  -1.698  0.00  0.00    +0.000 C 
ATOM      8  C   UNL     1      -2.525   1.646  -1.156  0.00  0.00    +0.000 A 
ATOM      9  C   UNL     1      -1.387   1.042  -0.667  0.00  0.00    +0.000 A 
ATOM     10  C   UNL     1      -1.440  -0.243  -0.153  0.00  0.00    +0.000 A 
ENDROOT
BRANCH   1  14
ATOM     11  N   UNL     1       3.587   1.717   0.113  0.00  0.00    +0.000 NA
ATOM     12  C   UNL     1       2.795   0.544   0.425  0.00  0.00    +0.000 A 
ATOM     13  N   UNL     1       1.502   0.353   0.228  0.00  0.00    +0.000 NA
ATOM     14  C   UNL     1       0.964  -0.774   0.575  0.00  0.00    +0.000 A 
ATOM     15  C   UNL     1       1.789  -1.718   1.137  0.00  0.00    +0.000 A 
ATOM     16  S   UNL     1       3.298  -0.922   1.132  0.00  0.00    +0.000 S 
BRANCH  11  18
ATOM     17  C   UNL     1       5.694   0.521  -0.296  0.00  0.00    +0.000 C 
ATOM     18  C   UNL     1       5.018   1.653   0.443  0.00  0.00    +0.000 C 
ENDBRANCH  11  18
ENDBRANCH   1  14
TORSDOF 2
