REMARK  Name = 
REMARK  3 active torsions:
REMARK  status: ('A' for Active; 'I' for Inactive)
REMARK    1  A    between atoms: C_9  and  O_10
REMARK    2  A    between atoms: O_10  and  C_11
REMARK    3  A    between atoms: C_11  and  C_13
REMARK                            x       y       z     vdW  Elec       q    Type
REMARK                         _______ _______ _______ _____ _____    ______ ____
ROOT
ATOM      1  C   UNL     1      -1.381  -0.392  -1.010  0.00  0.00    +0.000 C 
ATOM      2  C   UNL     1      -2.417  -0.467   0.012  0.00  0.00    +0.000 C 
ATOM      3  C   UNL     1      -3.818  -0.701  -0.676  0.00  0.00    +0.000 C 
ATOM      4  C   UNL     1      -2.750   1.004   0.618  0.00  0.00    +0.000 C 
ATOM      5  C   UNL     1      -4.056   0.453   1.442  0.00  0.00    +0.000 C 
ATOM      6  C   UNL     1      -3.595  -0.883   1.957  0.00  0.00    +0.000 C 
ATOM      7  C   UNL     1      -2.374  -1.271   1.175  0.00  0.00    +0.000 C 
ATOM      8  C   UNL     1      -2.097  -2.693   1.056  0.00  0.00    +0.000 C 
ATOM      9  C   UNL     1      -1.136  -0.514   1.834  0.00  0.00    +0.000 C 
ATOM     10  C   UNL     1      -1.768   0.956   1.894  0.00  0.00    +0.000 C 
ENDROOT
BRANCH   9  11
ATOM     11  O   UNL     1      -0.216  -0.424   0.659  0.00  0.00    +0.000 OA
BRANCH  11  12
ATOM     12  C   UNL     1       0.992   0.163   0.773  0.00  0.00    +0.000 C 
ATOM     13  O   UNL     1       1.202   0.598   1.961  0.00  0.00    +0.000 OA
BRANCH  12  14
ATOM     14  C   UNL     1       2.018   0.341  -0.248  0.00  0.00    +0.000 A 
ATOM     15  C   UNL     1       3.198   0.982   0.072  0.00  0.00    +0.000 A 
ATOM     16  C   UNL     1       4.215   1.183  -0.843  0.00  0.00    +0.000 A 
ATOM     17  C   UNL     1       4.081   0.741  -2.138  0.00  0.00    +0.000 A 
ATOM     18  O   UNL     1       5.065   0.911  -3.109  0.00  0.00    +0.000 OA
ATOM     19  C   UNL     1       2.916   0.098  -2.488  0.00  0.00    +0.000 A 
ATOM     20  C   UNL     1       1.922  -0.085  -1.549  0.00  0.00    +0.000 A 
ENDBRANCH  12  14
ENDBRANCH  11  12
ENDBRANCH   9  11
TORSDOF 3
