REMARK  Name = 
REMARK  4 active torsions:
REMARK  status: ('A' for Active; 'I' for Inactive)
REMARK    1  A    between atoms: C_2  and  C_3
REMARK    2  A    between atoms: C_3  and  N_4
REMARK    3  A    between atoms: C_7  and  C_8
REMARK    4  A    between atoms: C_8  and  C_9
REMARK                            x       y       z     vdW  Elec       q    Type
REMARK                         _______ _______ _______ _____ _____    ______ ____
ROOT
ATOM      1  N   UNL     1       2.818   0.270   0.046  0.00  0.00    +0.000 N 
ATOM      2  C   UNL     1       2.253  -0.962  -0.298  0.00  0.00    +0.000 C 
ATOM      3  O   UNL     1       2.614  -2.113  -0.217  0.00  0.00    +0.000 OA
ATOM      4  C   UNL     1       0.838  -0.533  -0.909  0.00  0.00    +0.000 C 
ATOM      5  N   UNL     1       0.552   0.564   0.199  0.00  0.00    +0.000 NA
ATOM      6  C   UNL     1       1.786   1.206   0.349  0.00  0.00    +0.000 C 
ATOM      7  S   UNL     1       1.978   2.782   0.804  0.00  0.00    +0.000 S 
ENDROOT
BRANCH   1   8
ATOM      8  C   UNL     1       4.239   0.539   0.087  0.00  0.00    +0.000 C 
BRANCH   8  10
ATOM      9  C   UNL     1       5.350   2.245  -1.248  0.00  0.00    +0.000 C 
ATOM     10  C   UNL     1       4.768   1.028  -1.210  0.00  0.00    +0.000 C 
ENDBRANCH   8  10
ENDBRANCH   1   8
BRANCH   4  11
ATOM     11  C   UNL     1      -0.018  -1.693  -0.036  0.00  0.00    +0.000 C 
BRANCH  11  12
ATOM     12  C   UNL     1      -1.425  -1.486  -0.454  0.00  0.00    +0.000 A 
ATOM     13  C   UNL     1      -2.134  -2.283  -1.325  0.00  0.00    +0.000 A 
ATOM     14  N   UNL     1      -3.372  -1.808  -1.476  0.00  0.00    +0.000 NA
ATOM     15  C   UNL     1      -3.508  -0.703  -0.721  0.00  0.00    +0.000 A 
ATOM     16  C   UNL     1      -4.567   0.161  -0.514  0.00  0.00    +0.000 A 
ATOM     17  C   UNL     1      -4.443   1.253   0.338  0.00  0.00    +0.000 A 
ATOM     18  C   UNL     1      -3.231   1.443   0.967  0.00  0.00    +0.000 A 
ATOM     19  C   UNL     1      -2.196   0.583   0.753  0.00  0.00    +0.000 A 
ATOM     20  C   UNL     1      -2.303  -0.492  -0.079  0.00  0.00    +0.000 A 
ENDBRANCH  11  12
ENDBRANCH   4  11
TORSDOF 4
