REMARK  Name = 
REMARK  2 active torsions:
REMARK  status: ('A' for Active; 'I' for Inactive)
REMARK    1  A    between atoms: C_2  and  C_15
REMARK    2  A    between atoms: N_3  and  N_4
REMARK                            x       y       z     vdW  Elec       q    Type
REMARK                         _______ _______ _______ _____ _____    ______ ____
ROOT
ATOM      1  N   UNL     1      -0.941   1.230  -1.076  0.00  0.00    +0.000 NA
ATOM      2  C   UNL     1      -1.839   0.745  -0.328  0.00  0.00    +0.000 C 
ATOM      3  C   UNL     1      -1.590   0.012   0.920  0.00  0.00    +0.000 C 
ATOM      4  C   UNL     1      -2.187  -1.387   0.742  0.00  0.00    +0.000 C 
ATOM      5  C   UNL     1      -3.647  -1.211   0.398  0.00  0.00    +0.000 C 
ATOM      6  C   UNL     1      -4.406  -0.516   1.510  0.00  0.00    +0.000 C 
ATOM      7  C   UNL     1      -3.767   0.869   1.658  0.00  0.00    +0.000 C 
ATOM      8  C   UNL     1      -2.333   0.699   2.050  0.00  0.00    +0.000 C 
ATOM      9  C   UNL     1      -3.948   1.660   0.398  0.00  0.00    +0.000 C 
ATOM     10  C   UNL     1      -3.272   0.928  -0.740  0.00  0.00    +0.000 C 
ATOM     11  C   UNL     1      -3.835  -0.476  -0.913  0.00  0.00    +0.000 C 
ENDROOT
BRANCH   1  14
ATOM     12  O   UNL     1       0.494  -1.190  -1.092  0.00  0.00    +0.000 OA
ATOM     13  C   UNL     1       1.098  -0.138  -0.775  0.00  0.00    +0.000 C 
ATOM     14  N   UNL     1       0.411   1.098  -0.755  0.00  0.00    +0.000 NA
BRANCH  13  15
ATOM     15  C   UNL     1       2.510  -0.229  -0.432  0.00  0.00    +0.000 A 
ATOM     16  C   UNL     1       3.166  -1.438  -0.455  0.00  0.00    +0.000 A 
ATOM     17  C   UNL     1       4.500  -1.519  -0.130  0.00  0.00    +0.000 A 
ATOM     18  C   UNL     1       5.215  -0.386   0.228  0.00  0.00    +0.000 A 
ATOM     19  O   UNL     1       6.558  -0.463   0.556  0.00  0.00    +0.000 OA
ATOM     20  C   UNL     1       4.570   0.807   0.252  0.00  0.00    +0.000 A 
ATOM     21  C   UNL     1       3.240   0.904  -0.070  0.00  0.00    +0.000 A 
ENDBRANCH  13  15
ENDBRANCH   1  14
TORSDOF 2
