REMARK  Name = 
REMARK  3 active torsions:
REMARK  status: ('A' for Active; 'I' for Inactive)
REMARK    1  A    between atoms: C_6  and  N_7
REMARK    2  A    between atoms: N_10  and  C_11
REMARK    3  A    between atoms: C_11  and  C_12
REMARK                            x       y       z     vdW  Elec       q    Type
REMARK                         _______ _______ _______ _____ _____    ______ ____
ROOT
ATOM      1  N   UNL     1       1.058   0.007   0.546  0.00  0.00    +0.000 N 
ATOM      2  C   UNL     1       0.461   0.827   1.596  0.00  0.00    +0.000 C 
ATOM      3  C   UNL     1      -0.766  -0.003   1.933  0.00  0.00    +0.000 C 
ATOM      4  N   UNL     1      -1.181  -0.510   0.651  0.00  0.00    +0.000 N 
ATOM      5  C   UNL     1      -0.034  -0.513  -0.220  0.00  0.00    +0.000 C 
ATOM      6  O   UNL     1       0.001  -0.890  -1.405  0.00  0.00    +0.000 OA
ENDROOT
BRANCH   1  12
ATOM      7  C   UNL     1       5.650   1.535  -0.672  0.00  0.00    +0.000 C 
ATOM      8  C   UNL     1       4.685   0.483  -0.268  0.00  0.00    +0.000 A 
ATOM      9  C   UNL     1       5.147  -0.813  -0.106  0.00  0.00    +0.000 A 
ATOM     10  C   UNL     1       4.289  -1.829   0.269  0.00  0.00    +0.000 A 
ATOM     11  C   UNL     1       2.966  -1.526   0.476  0.00  0.00    +0.000 A 
ATOM     12  C   UNL     1       2.438  -0.237   0.328  0.00  0.00    +0.000 A 
ATOM     13  C   UNL     1       3.350   0.733  -0.048  0.00  0.00    +0.000 A 
ENDBRANCH   1  12
BRANCH   4  14
ATOM     14  C   UNL     1      -2.519  -0.947   0.288  0.00  0.00    +0.000 C 
BRANCH  14  15
ATOM     15  C   UNL     1      -3.340   0.138  -0.244  0.00  0.00    +0.000 A 
ATOM     16  N   UNL     1      -3.001   1.412  -0.391  0.00  0.00    +0.000 NA
ATOM     17  C   UNL     1      -4.036   2.106  -0.903  0.00  0.00    +0.000 A 
ATOM     18  N   UNL     1      -5.045   1.227  -1.076  0.00  0.00    +0.000 NA
ATOM     19  C   UNL     1      -4.653   0.018  -0.685  0.00  0.00    +0.000 A 
ATOM     20  C   UNL     1      -5.471  -1.219  -0.720  0.00  0.00    +0.000 C 
ENDBRANCH  14  15
ENDBRANCH   4  14
TORSDOF 3
