REMARK  Name = 
REMARK  3 active torsions:
REMARK  status: ('A' for Active; 'I' for Inactive)
REMARK    1  A    between atoms: C_2  and  C_4
REMARK    2  A    between atoms: C_9  and  N_10
REMARK    3  A    between atoms: C_11  and  C_13
REMARK                            x       y       z     vdW  Elec       q    Type
REMARK                         _______ _______ _______ _____ _____    ______ ____
ROOT
ATOM      1  N   UNL     1      -0.951  -0.194   0.165  0.00  0.00    +0.000 NA
ATOM      2  C   UNL     1       0.021   0.330  -0.722  0.00  0.00    +0.000 C 
ATOM      3  O   UNL     1      -0.272   1.351  -1.381  0.00  0.00    +0.000 OA
ENDROOT
BRANCH   2   4
ATOM      4  C   UNL     1       1.302  -0.298  -0.856  0.00  0.00    +0.000 C 
ATOM      5  C   UNL     1       2.263   0.311  -1.806  0.00  0.00    +0.000 C 
ATOM      6  C   UNL     1       3.167  -0.826  -2.305  0.00  0.00    +0.000 C 
ATOM      7  C   UNL     1       3.862  -1.395  -1.102  0.00  0.00    +0.000 C 
ATOM      8  C   UNL     1       4.795  -0.355  -0.493  0.00  0.00    +0.000 C 
ATOM      9  C   UNL     1       3.928   0.799  -0.032  0.00  0.00    +0.000 C 
ATOM     10  C   UNL     1       3.139   1.380  -1.203  0.00  0.00    +0.000 C 
ATOM     11  C   UNL     1       2.901   0.340   0.974  0.00  0.00    +0.000 C 
ATOM     12  C   UNL     1       1.981  -0.731   0.393  0.00  0.00    +0.000 C 
ATOM     13  C   UNL     1       2.932  -1.864  -0.028  0.00  0.00    +0.000 C 
ENDBRANCH   2   4
BRANCH   1  19
ATOM     14  C   UNL     1      -3.152  -0.081   1.153  0.00  0.00    +0.000 A 
ATOM     15  C   UNL     1      -4.397   0.471   1.329  0.00  0.00    +0.000 A 
ATOM     16  C   UNL     1      -4.729   1.593   0.611  0.00  0.00    +0.000 A 
ATOM     17  C   UNL     1      -3.830   2.141  -0.260  0.00  0.00    +0.000 A 
ATOM     18  C   UNL     1      -2.567   1.564  -0.424  0.00  0.00    +0.000 A 
ATOM     19  C   UNL     1      -2.217   0.439   0.287  0.00  0.00    +0.000 A 
BRANCH  14  21
ATOM     20  N   UNL     1      -3.707  -1.875   2.833  0.00  0.00    +0.000 NA
ATOM     21  C   UNL     1      -2.798  -1.273   1.916  0.00  0.00    +0.000 C 
ATOM     22  O   UNL     1      -1.673  -1.827   1.800  0.00  0.00    +0.000 OA
ENDBRANCH  14  21
ENDBRANCH   1  19
TORSDOF 3
