REMARK  Name = 
REMARK  2 active torsions:
REMARK  status: ('A' for Active; 'I' for Inactive)
REMARK    1  A    between atoms: C_2  and  C_3
REMARK    2  A    between atoms: N_11  and  C_12
REMARK                            x       y       z     vdW  Elec       q    Type
REMARK                         _______ _______ _______ _____ _____    ______ ____
ROOT
ATOM      1  C   UNL     1      -2.342   0.897  -0.039  0.00  0.00    +0.000 A 
ATOM      2  C   UNL     1      -3.459   0.188  -0.497  0.00  0.00    +0.000 A 
ATOM      3 CL   UNL     1      -5.016   0.940  -0.410  0.00  0.00    +0.000 Cl
ATOM      4  N   UNL     1      -3.239  -1.048  -0.981  0.00  0.00    +0.000 NA
ATOM      5  C   UNL     1      -2.016  -1.614  -1.039  0.00  0.00    +0.000 A 
ATOM      6  N   UNL     1      -1.870  -2.936  -1.572  0.00  0.00    +0.000 NA
ATOM      7  N   UNL     1      -0.965  -0.919  -0.596  0.00  0.00    +0.000 NA
ATOM      8  C   UNL     1      -1.093   0.330  -0.094  0.00  0.00    +0.000 A 
ATOM      9  N   UNL     1       0.016   1.047   0.363  0.00  0.00    +0.000 NA
ENDROOT
BRANCH   9  10
ATOM     10  C   UNL     1       1.366   0.613   0.380  0.00  0.00    +0.000 A 
ATOM     11  C   UNL     1       2.340   1.442   0.896  0.00  0.00    +0.000 A 
ATOM     12  C   UNL     1       3.672   1.082   0.936  0.00  0.00    +0.000 A 
ATOM     13  C   UNL     1       4.090  -0.139   0.455  0.00  0.00    +0.000 A 
ATOM     14  C   UNL     1       5.517  -0.571   0.476  0.00  0.00    +0.000 C 
ATOM     15  C   UNL     1       3.103  -0.953  -0.056  0.00  0.00    +0.000 A 
ATOM     16  C   UNL     1       3.551  -2.278  -0.581  0.00  0.00    +0.000 C 
ATOM     17  C   UNL     1       1.778  -0.603  -0.099  0.00  0.00    +0.000 A 
ENDBRANCH   9  10
BRANCH   1  19
ATOM     18  C   UNL     1      -2.995   2.252   1.936  0.00  0.00    +0.000 C 
ATOM     19  C   UNL     1      -2.440   2.270   0.521  0.00  0.00    +0.000 C 
ENDBRANCH   1  19
TORSDOF 2
