REMARK  Name = 
REMARK  3 active torsions:
REMARK  status: ('A' for Active; 'I' for Inactive)
REMARK    1  A    between atoms: C_5  and  C_6
REMARK    2  A    between atoms: N_8  and  C_9
REMARK    3  A    between atoms: C_11  and  N_12
REMARK                            x       y       z     vdW  Elec       q    Type
REMARK                         _______ _______ _______ _____ _____    ______ ____
ROOT
ATOM      1  C   UNL     1       0.745   0.387  -0.074  0.00  0.00    +0.000 C 
ATOM      2  O   UNL     1       0.016   1.039  -0.897  0.00  0.00    +0.000 OA
ATOM      3  N   UNL     1       0.080  -0.527   0.760  0.00  0.00    +0.000 NA
ENDROOT
BRANCH   1   8
ATOM      4  C   UNL     1       6.500   1.124   0.154  0.00  0.00    +0.000 C 
ATOM      5  C   UNL     1       5.029   0.953   0.084  0.00  0.00    +0.000 A 
ATOM      6  C   UNL     1       4.186   1.299   1.115  0.00  0.00    +0.000 A 
ATOM      7  C   UNL     1       2.833   1.146   1.091  0.00  0.00    +0.000 A 
ATOM      8  C   UNL     1       2.189   0.607  -0.028  0.00  0.00    +0.000 A 
ATOM      9  C   UNL     1       3.015   0.253  -1.077  0.00  0.00    +0.000 A 
ATOM     10  C   UNL     1       2.334  -0.319  -2.290  0.00  0.00    +0.000 C 
ATOM     11  C   UNL     1       4.389   0.412  -1.044  0.00  0.00    +0.000 A 
ENDBRANCH   1   8
BRANCH   3  12
ATOM     12  C   UNL     1      -1.330  -0.762   0.740  0.00  0.00    +0.000 A 
ATOM     13  C   UNL     1      -2.158  -0.095  -0.144  0.00  0.00    +0.000 A 
ATOM     14  C   UNL     1      -3.523  -0.278  -0.227  0.00  0.00    +0.000 A 
ATOM     15  C   UNL     1      -4.110  -1.191   0.631  0.00  0.00    +0.000 A 
ATOM     16  C   UNL     1      -3.315  -1.874   1.528  0.00  0.00    +0.000 A 
ATOM     17  C   UNL     1      -1.936  -1.667   1.587  0.00  0.00    +0.000 A 
ATOM     18  F   UNL     1      -1.167  -2.348   2.473  0.00  0.00    +0.000 F 
BRANCH  14  19
ATOM     19  N   UNL     1      -4.348   0.395  -1.157  0.00  0.00    +0.000 N 
ATOM     20  O   UNL     1      -5.547   0.098  -1.210  0.00  0.00    +0.000 OA
ATOM     21  O   UNL     1      -3.882   1.347  -2.016  0.00  0.00    +0.000 OA
ENDBRANCH  14  19
ENDBRANCH   3  12
TORSDOF 3
