REMARK  Name = 
REMARK  3 active torsions:
REMARK  status: ('A' for Active; 'I' for Inactive)
REMARK    1  A    between atoms: C_4  and  N_5
REMARK    2  A    between atoms: N_5  and  N_6
REMARK    3  A    between atoms: C_7  and  C_9
REMARK                            x       y       z     vdW  Elec       q    Type
REMARK                         _______ _______ _______ _____ _____    ______ ____
ROOT
ATOM      1  N   UNL     1      -0.077   0.330  -1.165  0.00  0.00    +0.000 NA
ATOM      2  C   UNL     1       0.689  -0.663  -0.540  0.00  0.00    +0.000 C 
ATOM      3  O   UNL     1       0.123  -1.768  -0.343  0.00  0.00    +0.000 OA
ENDROOT
BRANCH   2   4
ATOM      4  C   UNL     1       2.082  -0.449  -0.129  0.00  0.00    +0.000 A 
ATOM      5  C   UNL     1       2.706   0.761  -0.343  0.00  0.00    +0.000 A 
ATOM      6  C   UNL     1       3.984   0.989   0.023  0.00  0.00    +0.000 A 
ATOM      7 CL   UNL     1       4.672   2.568  -0.302  0.00  0.00    +0.000 Cl
ATOM      8  C   UNL     1       4.691  -0.021   0.633  0.00  0.00    +0.000 A 
ATOM      9  C   UNL     1       4.077  -1.222   0.848  0.00  0.00    +0.000 A 
ATOM     10  C   UNL     1       2.786  -1.448   0.476  0.00  0.00    +0.000 A 
ATOM     11  O   UNL     1       2.189  -2.677   0.707  0.00  0.00    +0.000 OA
ENDBRANCH   2   4
BRANCH   1  12
ATOM     12  N   UNL     1      -1.369   0.245  -1.587  0.00  0.00    +0.000 NA
BRANCH  12  16
ATOM     13  C   UNL     1      -4.750  -1.522   0.518  0.00  0.00    +0.000 C 
ATOM     14  C   UNL     1      -4.916  -0.119  -0.321  0.00  0.00    +0.000 C 
ATOM     15  C   UNL     1      -3.496  -0.228  -1.005  0.00  0.00    +0.000 C 
ATOM     16  C   UNL     1      -2.533   0.564  -0.866  0.00  0.00    +0.000 C 
ATOM     17  C   UNL     1      -2.493   1.769  -0.044  0.00  0.00    +0.000 C 
ATOM     18  C   UNL     1      -3.923   2.091   0.337  0.00  0.00    +0.000 C 
ATOM     19  C   UNL     1      -4.444   0.800   0.931  0.00  0.00    +0.000 C 
ENDBRANCH  12  16
ENDBRANCH   1  12
TORSDOF 3
