REMARK  Name = 
REMARK  4 active torsions:
REMARK  status: ('A' for Active; 'I' for Inactive)
REMARK    1  A    between atoms: C_5  and  C_6
REMARK    2  A    between atoms: C_6  and  C_7
REMARK    3  A    between atoms: N_9  and  C_10
REMARK    4  A    between atoms: C_14  and  N_15
REMARK                            x       y       z     vdW  Elec       q    Type
REMARK                         _______ _______ _______ _____ _____    ______ ____
ROOT
ATOM      1  C   UNL     1       0.740   0.095   0.670  0.00  0.00    +0.000 C 
ATOM      2  O   UNL     1       1.047  -0.184  -0.535  0.00  0.00    +0.000 OA
ATOM      3  N   UNL     1      -0.625   0.245   0.990  0.00  0.00    +0.000 NA
ENDROOT
BRANCH   3   4
ATOM      4  C   UNL     1      -1.620   0.084  -0.026  0.00  0.00    +0.000 A 
ATOM      5  C   UNL     1      -1.249  -0.216  -1.315  0.00  0.00    +0.000 A 
ATOM      6  C   UNL     1      -2.272  -0.353  -2.228  0.00  0.00    +0.000 A 
ATOM      7  C   UNL     1      -3.594  -0.210  -1.923  0.00  0.00    +0.000 A 
ATOM      8  C   UNL     1      -3.971   0.093  -0.619  0.00  0.00    +0.000 A 
ATOM      9  C   UNL     1      -2.944   0.234   0.313  0.00  0.00    +0.000 A 
ATOM     10  C   UNL     1      -3.353   0.561   1.714  0.00  0.00    +0.000 C 
BRANCH   8  11
ATOM     11  N   UNL     1      -5.329   0.251  -0.254  0.00  0.00    +0.000 N 
ATOM     12  O   UNL     1      -5.627   1.037   0.643  0.00  0.00    +0.000 OA
ATOM     13  O   UNL     1      -6.285  -0.464  -0.896  0.00  0.00    +0.000 OA
ENDBRANCH   8  11
ENDBRANCH   3   4
BRANCH   1  14
ATOM     14  C   UNL     1       1.834   0.245   1.666  0.00  0.00    +0.000 C 
BRANCH  14  19
ATOM     15  C   UNL     1       6.961  -0.676  -0.807  0.00  0.00    +0.000 C 
ATOM     16  C   UNL     1       5.630  -0.430  -0.167  0.00  0.00    +0.000 A 
ATOM     17  C   UNL     1       4.904  -1.456   0.399  0.00  0.00    +0.000 A 
ATOM     18  C   UNL     1       3.660  -1.248   1.001  0.00  0.00    +0.000 A 
ATOM     19  C   UNL     1       3.154   0.028   1.026  0.00  0.00    +0.000 A 
ATOM     20  C   UNL     1       3.850   1.075   0.472  0.00  0.00    +0.000 A 
ATOM     21  C   UNL     1       5.089   0.835  -0.122  0.00  0.00    +0.000 A 
ENDBRANCH  14  19
ENDBRANCH   1  14
TORSDOF 4
