REMARK  Name = 
REMARK  3 active torsions:
REMARK  status: ('A' for Active; 'I' for Inactive)
REMARK    1  A    between atoms: C_4  and  N_5
REMARK    2  A    between atoms: N_5  and  N_6
REMARK    3  A    between atoms: C_7  and  C_9
REMARK                            x       y       z     vdW  Elec       q    Type
REMARK                         _______ _______ _______ _____ _____    ______ ____
ROOT
ATOM      1  N   UNL     1      -0.576   1.740  -0.589  0.00  0.00    +0.000 NA
ENDROOT
BRANCH   1   5
ATOM      2  C   UNL     1      -3.553  -2.054  -1.330  0.00  0.00    +0.000 C 
ATOM      3  C   UNL     1      -3.228  -0.474  -1.599  0.00  0.00    +0.000 C 
ATOM      4  C   UNL     1      -1.868  -0.489  -0.710  0.00  0.00    +0.000 C 
ATOM      5  C   UNL     1      -1.650   0.900  -0.246  0.00  0.00    +0.000 C 
ATOM      6  C   UNL     1      -2.591   1.344   0.567  0.00  0.00    +0.000 C 
ATOM      7  C   UNL     1      -3.653   0.292   0.805  0.00  0.00    +0.000 C 
ATOM      8  C   UNL     1      -4.666   0.743   1.769  0.00  0.00    +0.000 C 
ATOM      9  C   UNL     1      -2.987  -0.997   1.282  0.00  0.00    +0.000 C 
ATOM     10  C   UNL     1      -4.275   0.048  -0.491  0.00  0.00    +0.000 C 
ENDBRANCH   1   5
BRANCH   1  11
ATOM     11  N   UNL     1       0.762   1.298  -0.539  0.00  0.00    +0.000 NA
ATOM     12  C   UNL     1       1.214   0.287   0.313  0.00  0.00    +0.000 C 
ATOM     13  O   UNL     1       0.365  -0.250   1.073  0.00  0.00    +0.000 OA
BRANCH  12  14
ATOM     14  C   UNL     1       2.598  -0.170   0.365  0.00  0.00    +0.000 A 
ATOM     15  C   UNL     1       2.970  -1.170   1.252  0.00  0.00    +0.000 A 
ATOM     16  C   UNL     1       4.269  -1.615   1.320  0.00  0.00    +0.000 A 
ATOM     17  C   UNL     1       5.217  -1.069   0.507  0.00  0.00    +0.000 A 
ATOM     18  C   UNL     1       4.890  -0.059  -0.402  0.00  0.00    +0.000 A 
ATOM     19  C   UNL     1       3.569   0.352  -0.431  0.00  0.00    +0.000 A 
ATOM     20  F   UNL     1       3.192   1.343  -1.306  0.00  0.00    +0.000 F 
ENDBRANCH  12  14
ENDBRANCH   1  11
TORSDOF 3
