REMARK  Name = 
REMARK  4 active torsions:
REMARK  status: ('A' for Active; 'I' for Inactive)
REMARK    1  A    between atoms: O_2  and  C_3
REMARK    2  A    between atoms: C_3  and  C_5
REMARK    3  A    between atoms: C_11  and  C_12
REMARK    4  A    between atoms: C_15  and  O_16
REMARK                            x       y       z     vdW  Elec       q    Type
REMARK                         _______ _______ _______ _____ _____    ______ ____
ROOT
ATOM      1  C   UNL     1      -1.818  -0.390   0.121  0.00  0.00    +0.000 A 
ATOM      2  C   UNL     1      -2.970  -1.111   0.274  0.00  0.00    +0.000 A 
ATOM      3  N   UNL     1      -4.335  -0.610   0.203  0.00  0.00    +0.000 NA
ATOM      4  S   UNL     1      -2.424  -2.694   0.558  0.00  0.00    +0.000 S 
ATOM      5  C   UNL     1      -0.751  -2.416   0.479  0.00  0.00    +0.000 A 
ATOM      6  C   UNL     1       0.391  -3.396   0.641  0.00  0.00    +0.000 C 
ATOM      7  C   UNL     1      -0.648  -1.071   0.228  0.00  0.00    +0.000 A 
ENDROOT
BRANCH   7   8
ATOM      8  C   UNL     1       0.699  -0.438   0.081  0.00  0.00    +0.000 A 
ATOM      9  C   UNL     1       1.462  -0.582  -1.037  0.00  0.00    +0.000 A 
ATOM     10  C   UNL     1       2.707   0.039  -1.126  0.00  0.00    +0.000 A 
ATOM     11  C   UNL     1       3.213   0.817  -0.096  0.00  0.00    +0.000 A 
ATOM     12  C   UNL     1       2.438   0.952   1.027  0.00  0.00    +0.000 A 
ATOM     13  C   UNL     1       1.210   0.342   1.120  0.00  0.00    +0.000 A 
BRANCH  11  14
ATOM     14  O   UNL     1       4.447   1.442  -0.162  0.00  0.00    +0.000 OA
ATOM     15  C   UNL     1       5.298   1.358  -1.259  0.00  0.00    +0.000 C 
ENDBRANCH  11  14
ENDBRANCH   7   8
BRANCH   1  16
ATOM     16  C   UNL     1      -1.878   1.090  -0.130  0.00  0.00    +0.000 C 
ATOM     17  O   UNL     1      -0.838   1.767  -0.278  0.00  0.00    +0.000 OA
BRANCH  16  19
ATOM     18  C   UNL     1      -3.122   3.155  -0.440  0.00  0.00    +0.000 C 
ATOM     19  O   UNL     1      -3.081   1.747  -0.203  0.00  0.00    +0.000 OA
ENDBRANCH  16  19
ENDBRANCH   1  16
TORSDOF 4
