REMARK  Name = 
REMARK  5 active torsions:
REMARK  status: ('A' for Active; 'I' for Inactive)
REMARK    1  A    between atoms: N_6  and  C_7
REMARK    2  A    between atoms: C_7  and  N_9
REMARK    3  A    between atoms: N_9  and  C_10
REMARK    4  A    between atoms: C_10  and  C_11
REMARK    5  A    between atoms: C_11  and  C_12
REMARK                            x       y       z     vdW  Elec       q    Type
REMARK                         _______ _______ _______ _____ _____    ______ ____
ROOT
ATOM      1  C   UNL     1       0.650   0.669  -1.202  0.00  0.00    +0.000 C 
ATOM      2  S   UNL     1       0.566   2.136  -1.994  0.00  0.00    +0.000 S 
ENDROOT
BRANCH   1   8
ATOM      3  O   UNL     1       4.705   2.054   0.240  0.00  0.00    +0.000 OA
ATOM      4  C   UNL     1       3.848   0.977  -0.495  0.00  0.00    +0.000 C 
ATOM      5  C   UNL     1       4.107  -0.132   0.738  0.00  0.00    +0.000 C 
ATOM      6  C   UNL     1       3.116  -1.217   0.482  0.00  0.00    +0.000 C 
ATOM      7  C   UNL     1       1.687  -0.753   0.516  0.00  0.00    +0.000 C 
ATOM      8  N   UNL     1       1.572   0.478  -0.171  0.00  0.00    +0.000 N 
ATOM      9  C   UNL     1       2.441   1.561   0.219  0.00  0.00    +0.000 C 
ENDBRANCH   1   8
BRANCH   1  10
ATOM     10  N   UNL     1      -0.228  -0.342  -1.606  0.00  0.00    +0.000 NA
BRANCH  10  11
ATOM     11  C   UNL     1      -0.299  -1.626  -1.013  0.00  0.00    +0.000 C 
BRANCH  11  12
ATOM     12  C   UNL     1      -0.935  -1.466   0.377  0.00  0.00    +0.000 C 
BRANCH  12  13
ATOM     13  C   UNL     1      -2.291  -0.889   0.226  0.00  0.00    +0.000 A 
ATOM     14  C   UNL     1      -3.349  -1.757   0.101  0.00  0.00    +0.000 A 
ATOM     15  C   UNL     1      -4.608  -1.243  -0.039  0.00  0.00    +0.000 A 
ATOM     16  C   UNL     1      -4.790   0.115  -0.053  0.00  0.00    +0.000 A 
ATOM     17  C   UNL     1      -3.727   0.971   0.073  0.00  0.00    +0.000 A 
ATOM     18  C   UNL     1      -2.463   0.465   0.214  0.00  0.00    +0.000 A 
ENDBRANCH  12  13
ENDBRANCH  11  12
ENDBRANCH  10  11
ENDBRANCH   1  10
TORSDOF 5
