REMARK  Name = 
REMARK  3 active torsions:
REMARK  status: ('A' for Active; 'I' for Inactive)
REMARK    1  A    between atoms: C_5  and  C_6
REMARK    2  A    between atoms: C_6  and  C_7
REMARK    3  A    between atoms: C_6  and  C_13
REMARK                            x       y       z     vdW  Elec       q    Type
REMARK                         _______ _______ _______ _____ _____    ______ ____
ROOT
ATOM      1  C   UNL     1      -0.713  -0.162   0.348  0.00  0.00    +0.000 C 
ENDROOT
BRANCH   1   2
ATOM      2  C   UNL     1       0.707   0.070   0.130  0.00  0.00    +0.000 A 
ATOM      3  C   UNL     1       1.598  -0.055   1.181  0.00  0.00    +0.000 A 
ATOM      4  C   UNL     1       2.954   0.163   0.983  0.00  0.00    +0.000 A 
ATOM      5  C   UNL     1       3.408   0.506  -0.270  0.00  0.00    +0.000 A 
ATOM      6  C   UNL     1       2.492   0.627  -1.322  0.00  0.00    +0.000 A 
ATOM      7  C   UNL     1       1.145   0.412  -1.132  0.00  0.00    +0.000 A 
ATOM      8  N   UNL     1       0.203   0.534  -2.199  0.00  0.00    +0.000 NA
ATOM      9  O   UNL     1       4.788   0.666  -0.198  0.00  0.00    +0.000 OA
ATOM     10  C   UNL     1       5.256   0.104   1.036  0.00  0.00    +0.000 C 
ATOM     11  O   UNL     1       4.070   0.119   1.805  0.00  0.00    +0.000 OA
ENDBRANCH   1   2
BRANCH   1  16
ATOM     12  C   UNL     1      -3.185  -4.419  -0.093  0.00  0.00    +0.000 C 
ATOM     13  C   UNL     1      -2.314  -3.255  -0.440  0.00  0.00    +0.000 A 
ATOM     14  C   UNL     1      -1.709  -3.094  -1.650  0.00  0.00    +0.000 A 
ATOM     15  C   UNL     1      -1.006  -1.909  -1.563  0.00  0.00    +0.000 A 
ATOM     16  C   UNL     1      -1.213  -1.397  -0.300  0.00  0.00    +0.000 A 
ATOM     17  O   UNL     1      -2.005  -2.247   0.325  0.00  0.00    +0.000 OA
ENDBRANCH   1  16
BRANCH   1  18
ATOM     18  C   UNL     1      -1.592   0.999   0.147  0.00  0.00    +0.000 A 
ATOM     19  C   UNL     1      -2.625   1.306   1.026  0.00  0.00    +0.000 A 
ATOM     20  C   UNL     1      -3.261   2.448   0.562  0.00  0.00    +0.000 A 
ATOM     21  C   UNL     1      -2.562   2.772  -0.593  0.00  0.00    +0.000 A 
ATOM     22  C   UNL     1      -2.829   3.916  -1.489  0.00  0.00    +0.000 C 
ATOM     23  O   UNL     1      -1.607   1.897  -0.782  0.00  0.00    +0.000 OA
ENDBRANCH   1  18
TORSDOF 3
