REMARK  Name = 
REMARK  5 active torsions:
REMARK  status: ('A' for Active; 'I' for Inactive)
REMARK    1  A    between atoms: C_2  and  O_3
REMARK    2  A    between atoms: O_3  and  C_4
REMARK    3  A    between atoms: C_4  and  C_6
REMARK    4  A    between atoms: C_13  and  C_14
REMARK    5  A    between atoms: C_17  and  O_18
REMARK                            x       y       z     vdW  Elec       q    Type
REMARK                         _______ _______ _______ _____ _____    ______ ____
ROOT
ATOM      1  C   UNL     1      -1.545  -0.373  -0.205  0.00  0.00    +0.000 C 
ATOM      2  C   UNL     1      -1.852  -1.369   0.518  0.00  0.00    +0.000 C 
ATOM      3  C   UNL     1      -2.549  -1.033   1.834  0.00  0.00    +0.000 C 
ATOM      4  N   UNL     1      -1.603  -2.709   0.168  0.00  0.00    +0.000 NA
ATOM      5  C   UNL     1      -0.966  -2.902  -1.089  0.00  0.00    +0.000 C 
ATOM      6  O   UNL     1      -0.685  -4.078  -1.517  0.00  0.00    +0.000 OA
ATOM      7  N   UNL     1      -0.630  -1.846  -1.884  0.00  0.00    +0.000 NA
ATOM      8  C   UNL     1      -0.811  -0.377  -1.598  0.00  0.00    +0.000 C 
ENDROOT
BRANCH   8   9
ATOM      9  C   UNL     1       0.649  -0.019  -1.180  0.00  0.00    +0.000 A 
ATOM     10  C   UNL     1       0.849   0.756  -0.085  0.00  0.00    +0.000 A 
ATOM     11  C   UNL     1       2.165   1.093   0.312  0.00  0.00    +0.000 A 
ATOM     12  C   UNL     1       3.222   0.622  -0.426  0.00  0.00    +0.000 A 
ATOM     13  C   UNL     1       3.022  -0.154  -1.522  0.00  0.00    +0.000 A 
ATOM     14  C   UNL     1       1.705  -0.475  -1.897  0.00  0.00    +0.000 A 
BRANCH  12  15
ATOM     15  O   UNL     1       4.541   0.930  -0.069  0.00  0.00    +0.000 OA
ATOM     16  C   UNL     1       4.851   1.727   1.049  0.00  0.00    +0.000 C 
ENDBRANCH  12  15
ENDBRANCH   8   9
BRANCH   1  17
ATOM     17  C   UNL     1      -1.875   1.028   0.256  0.00  0.00    +0.000 C 
ATOM     18  O   UNL     1      -1.578   2.004  -0.450  0.00  0.00    +0.000 OA
BRANCH  17  19
ATOM     19  O   UNL     1      -2.503   1.232   1.454  0.00  0.00    +0.000 OA
BRANCH  19  21
ATOM     20  C   UNL     1      -1.585   3.394   2.045  0.00  0.00    +0.000 C 
ATOM     21  C   UNL     1      -2.821   2.548   1.903  0.00  0.00    +0.000 C 
ENDBRANCH  19  21
ENDBRANCH  17  19
ENDBRANCH   1  17
TORSDOF 5
