REMARK  Name = 
REMARK  2 active torsions:
REMARK  status: ('A' for Active; 'I' for Inactive)
REMARK    1  A    between atoms: C_2  and  C_3
REMARK    2  A    between atoms: C_2  and  C_12
REMARK                            x       y       z     vdW  Elec       q    Type
REMARK                         _______ _______ _______ _____ _____    ______ ____
ROOT
ATOM      1  C   UNL     1      -0.677  -1.994  -1.649  0.00  0.00    +0.000 C 
ATOM      2  C   UNL     1      -0.330  -1.193  -0.140  0.00  0.00    +0.000 C 
ENDROOT
BRANCH   2   3
ATOM      3  C   UNL     1      -1.301  -0.005  -0.559  0.00  0.00    +0.000 A 
ATOM      4  C   UNL     1      -1.116   0.987  -1.433  0.00  0.00    +0.000 A 
ATOM      5  N   UNL     1      -2.195   1.782  -1.371  0.00  0.00    +0.000 NA
ATOM      6  C   UNL     1      -3.106   1.299  -0.437  0.00  0.00    +0.000 A 
ATOM      7  C   UNL     1      -4.379   1.705  -0.075  0.00  0.00    +0.000 A 
ATOM      8  C   UNL     1      -5.141   0.964   0.863  0.00  0.00    +0.000 A 
ATOM      9  C   UNL     1      -4.564  -0.182   1.399  0.00  0.00    +0.000 A 
ATOM     10  C   UNL     1      -3.270  -0.559   0.997  0.00  0.00    +0.000 A 
ATOM     11  C   UNL     1      -2.510   0.150   0.077  0.00  0.00    +0.000 A 
ENDBRANCH   2   3
BRANCH   2  12
ATOM     12  C   UNL     1       1.014  -0.568  -0.890  0.00  0.00    +0.000 C 
ATOM     13  S   UNL     1       1.767   0.453   0.511  0.00  0.00    +0.000 S 
ATOM     14  C   UNL     1       3.459  -0.022   0.029  0.00  0.00    +0.000 C 
ATOM     15  N   UNL     1       4.627   0.702   0.243  0.00  0.00    +0.000 N 
ATOM     16  C   UNL     1       4.933   1.963  -0.421  0.00  0.00    +0.000 C 
ATOM     17  C   UNL     1       5.616   0.173   1.186  0.00  0.00    +0.000 C 
ATOM     18  N   UNL     1       3.346  -1.142  -0.554  0.00  0.00    +0.000 NA
ATOM     19  C   UNL     1       2.067  -1.675  -0.685  0.00  0.00    +0.000 C 
ATOM     20  O   UNL     1       1.760  -2.839  -0.655  0.00  0.00    +0.000 OA
ENDBRANCH   2  12
TORSDOF 2
