REMARK  Name = 
REMARK  5 active torsions:
REMARK  status: ('A' for Active; 'I' for Inactive)
REMARK    1  A    between atoms: C_2  and  C_3
REMARK    2  A    between atoms: C_3  and  C_4
REMARK    3  A    between atoms: C_4  and  N_5
REMARK    4  A    between atoms: N_5  and  C_6
REMARK    5  A    between atoms: C_6  and  N_8
REMARK                            x       y       z     vdW  Elec       q    Type
REMARK                         _______ _______ _______ _____ _____    ______ ____
ROOT
ATOM      1  N   UNL     1       0.883  -0.126   1.639  0.00  0.00    +0.000 NA
ATOM      2  C   UNL     1      -0.510   0.041   1.289  0.00  0.00    +0.000 A 
ATOM      3  N   UNL     1      -1.107  -0.175   0.138  0.00  0.00    +0.000 NA
ATOM      4  C   UNL     1      -2.401   0.036   0.014  0.00  0.00    +0.000 A 
ATOM      5  C   UNL     1      -3.161  -0.147  -1.161  0.00  0.00    +0.000 A 
ATOM      6  C   UNL     1      -4.485   0.111  -1.163  0.00  0.00    +0.000 A 
ATOM      7  C   UNL     1      -5.194   0.565  -0.052  0.00  0.00    +0.000 A 
ATOM      8  C   UNL     1      -4.441   0.741   1.092  0.00  0.00    +0.000 A 
ATOM      9  C   UNL     1      -3.063   0.480   1.124  0.00  0.00    +0.000 A 
ATOM     10  S   UNL     1      -1.807   0.570   2.274  0.00  0.00    +0.000 S 
ENDROOT
BRANCH   1  11
ATOM     11  C   UNL     1       1.794  -0.614   0.644  0.00  0.00    +0.000 C 
ATOM     12  S   UNL     1       1.210  -0.963  -0.846  0.00  0.00    +0.000 S 
BRANCH  11  13
ATOM     13  N   UNL     1       3.165  -0.800   0.922  0.00  0.00    +0.000 NA
BRANCH  13  14
ATOM     14  C   UNL     1       4.044  -1.289  -0.112  0.00  0.00    +0.000 C 
BRANCH  14  15
ATOM     15  C   UNL     1       4.186  -0.205  -1.188  0.00  0.00    +0.000 C 
BRANCH  15  17
ATOM     16  C   UNL     1       6.121   0.745   0.078  0.00  0.00    +0.000 C 
ATOM     17  C   UNL     1       4.766   1.031  -0.533  0.00  0.00    +0.000 C 
ENDBRANCH  15  17
ENDBRANCH  14  15
ENDBRANCH  13  14
ENDBRANCH  11  13
ENDBRANCH   1  11
TORSDOF 5
