REMARK  Name = 
REMARK  2 active torsions:
REMARK  status: ('A' for Active; 'I' for Inactive)
REMARK    1  A    between atoms: C_7  and  C_8
REMARK    2  A    between atoms: N_10  and  C_11
REMARK                            x       y       z     vdW  Elec       q    Type
REMARK                         _______ _______ _______ _____ _____    ______ ____
ROOT
ATOM      1  C   UNL     1       5.943   0.614  -0.354  0.00  0.00    +0.000 C 
ATOM      2  C   UNL     1       4.442   0.606   0.319  0.00  0.00    +0.000 C 
ATOM      3  C   UNL     1       3.701   1.014  -1.091  0.00  0.00    +0.000 C 
ATOM      4  C   UNL     1       2.311   0.535  -0.917  0.00  0.00    +0.000 C 
ATOM      5  O   UNL     1       1.426   0.918  -1.695  0.00  0.00    +0.000 OA
ATOM      6  C   UNL     1       1.929  -0.390   0.160  0.00  0.00    +0.000 A 
ATOM      7  C   UNL     1       0.781  -0.662   0.846  0.00  0.00    +0.000 A 
ATOM      8  C   UNL     1       1.111  -1.659   1.761  0.00  0.00    +0.000 A 
ATOM      9  N   UNL     1       2.420  -1.991   1.645  0.00  0.00    +0.000 NA
ATOM     10  C   UNL     1       2.910  -1.216   0.668  0.00  0.00    +0.000 A 
ATOM     11  C   UNL     1       4.254  -1.032   0.021  0.00  0.00    +0.000 C 
ENDROOT
BRANCH   7  12
ATOM     12  C   UNL     1      -0.510  -0.041   0.635  0.00  0.00    +0.000 C 
ATOM     13  O   UNL     1      -0.651   1.207   0.908  0.00  0.00    +0.000 OA
ATOM     14  N   UNL     1      -1.668  -0.701   0.149  0.00  0.00    +0.000 NA
BRANCH  14  15
ATOM     15  C   UNL     1      -2.901   0.042  -0.002  0.00  0.00    +0.000 A 
ATOM     16  C   UNL     1      -2.918   1.405   0.293  0.00  0.00    +0.000 A 
ATOM     17  C   UNL     1      -4.069   2.136   0.172  0.00  0.00    +0.000 A 
ATOM     18  C   UNL     1      -5.251   1.512  -0.255  0.00  0.00    +0.000 A 
ATOM     19  C   UNL     1      -5.218   0.160  -0.547  0.00  0.00    +0.000 A 
ATOM     20  C   UNL     1      -4.057  -0.563  -0.420  0.00  0.00    +0.000 A 
ATOM     21  F   UNL     1      -3.983  -1.894  -0.706  0.00  0.00    +0.000 F 
ENDBRANCH  14  15
ENDBRANCH   7  12
TORSDOF 2
