REMARK  Name = 
REMARK  2 active torsions:
REMARK  status: ('A' for Active; 'I' for Inactive)
REMARK    1  A    between atoms: C_2  and  C_16
REMARK    2  A    between atoms: N_3  and  N_4
REMARK                            x       y       z     vdW  Elec       q    Type
REMARK                         _______ _______ _______ _____ _____    ______ ____
ROOT
ATOM      1  N   UNL     1       0.200   0.653   0.839  0.00  0.00    +0.000 NA
ATOM      2  C   UNL     1       1.341   0.264   0.500  0.00  0.00    +0.000 C 
ATOM      3  C   UNL     1       1.319  -1.039  -0.320  0.00  0.00    +0.000 C 
ATOM      4  C   UNL     1       2.045  -0.406  -1.663  0.00  0.00    +0.000 C 
ATOM      5  C   UNL     1       3.131   0.442  -1.349  0.00  0.00    +0.000 C 
ATOM      6  C   UNL     1       3.049   1.569  -0.499  0.00  0.00    +0.000 C 
ATOM      7  C   UNL     1       2.457   1.197   0.996  0.00  0.00    +0.000 C 
ATOM      8  C   UNL     1       3.607   0.089   1.363  0.00  0.00    +0.000 C 
ATOM      9  C   UNL     1       3.780  -0.896   0.366  0.00  0.00    +0.000 C 
ATOM     10 CL   UNL     1       5.143  -1.935   0.944  0.00  0.00    +0.000 Cl
ATOM     11  C   UNL     1       4.350  -0.396  -0.978  0.00  0.00    +0.000 C 
ATOM     12  C   UNL     1       2.663  -1.761   0.273  0.00  0.00    +0.000 C 
ENDROOT
BRANCH   1  15
ATOM     13  O   UNL     1      -1.981   2.208   0.323  0.00  0.00    +0.000 OA
ATOM     14  C   UNL     1      -2.122   0.960   0.322  0.00  0.00    +0.000 C 
ATOM     15  N   UNL     1      -1.019   0.090   0.585  0.00  0.00    +0.000 NA
BRANCH  14  16
ATOM     16  C   UNL     1      -3.448   0.375   0.044  0.00  0.00    +0.000 A 
ATOM     17  C   UNL     1      -4.509   1.194  -0.209  0.00  0.00    +0.000 A 
ATOM     18  C   UNL     1      -5.732   0.647  -0.464  0.00  0.00    +0.000 A 
ATOM     19  C   UNL     1      -5.850  -0.731  -0.457  0.00  0.00    +0.000 A 
ATOM     20  N   UNL     1      -4.803  -1.534  -0.208  0.00  0.00    +0.000 NA
ATOM     21  C   UNL     1      -3.620  -0.990   0.039  0.00  0.00    +0.000 A 
ENDBRANCH  14  16
ENDBRANCH   1  15
TORSDOF 2
