REMARK  Name = 
REMARK  3 active torsions:
REMARK  status: ('A' for Active; 'I' for Inactive)
REMARK    1  A    between atoms: N_4  and  C_5
REMARK    2  A    between atoms: C_5  and  C_6
REMARK    3  A    between atoms: C_6  and  C_7
REMARK                            x       y       z     vdW  Elec       q    Type
REMARK                         _______ _______ _______ _____ _____    ______ ____
ROOT
ATOM      1  C   UNL     1      -0.210   1.303  -1.239  0.00  0.00    +0.000 C 
ATOM      2  C   UNL     1      -0.558   0.445  -0.067  0.00  0.00    +0.000 C 
ATOM      3  O   UNL     1      -0.231   0.981   1.149  0.00  0.00    +0.000 OA
ATOM      4  N   UNL     1      -0.027  -0.931  -0.175  0.00  0.00    +0.000 N 
ATOM      5  C   UNL     1      -0.791  -1.444  -1.304  0.00  0.00    +0.000 C 
ATOM      6  O   UNL     1      -0.348  -2.361  -2.035  0.00  0.00    +0.000 OA
ATOM      7  O   UNL     1      -1.988  -0.740  -1.350  0.00  0.00    +0.000 OA
ATOM      8  C   UNL     1      -2.056   0.061  -0.159  0.00  0.00    +0.000 C 
ATOM      9  C   UNL     1      -2.366  -0.772   1.034  0.00  0.00    +0.000 C 
ATOM     10  C   UNL     1      -3.812  -1.171   1.103  0.00  0.00    +0.000 C 
ATOM     11  C   UNL     1      -4.649  -0.432   0.073  0.00  0.00    +0.000 C 
ATOM     12  C   UNL     1      -4.318   1.044   0.101  0.00  0.00    +0.000 C 
ATOM     13  C   UNL     1      -2.901   1.277  -0.328  0.00  0.00    +0.000 C 
ENDROOT
BRANCH   4  14
ATOM     14  C   UNL     1       0.906  -1.615   0.610  0.00  0.00    +0.000 C 
BRANCH  14  15
ATOM     15  C   UNL     1       2.285  -1.605   0.152  0.00  0.00    +0.000 C 
BRANCH  15  16
ATOM     16  C   UNL     1       2.912  -0.284   0.047  0.00  0.00    +0.000 A 
ATOM     17  C   UNL     1       2.949   0.416  -1.136  0.00  0.00    +0.000 A 
ATOM     18  C   UNL     1       3.504   1.641  -1.331  0.00  0.00    +0.000 A 
ATOM     19  C   UNL     1       4.096   2.245  -0.215  0.00  0.00    +0.000 A 
ATOM     20  C   UNL     1       4.091   1.592   0.998  0.00  0.00    +0.000 A 
ATOM     21  C   UNL     1       3.511   0.350   1.134  0.00  0.00    +0.000 A 
ENDBRANCH  15  16
ENDBRANCH  14  15
ENDBRANCH   4  14
TORSDOF 3
