REMARK  Name = 
REMARK  3 active torsions:
REMARK  status: ('A' for Active; 'I' for Inactive)
REMARK    1  A    between atoms: C_2  and  C_3
REMARK    2  A    between atoms: C_3  and  C_4
REMARK    3  A    between atoms: C_14  and  N_15
REMARK                            x       y       z     vdW  Elec       q    Type
REMARK                         _______ _______ _______ _____ _____    ______ ____
ROOT
ATOM      1  C   UNL     1       1.658  -0.288  -0.786  0.00  0.00    +0.000 C 
ATOM      2  C   UNL     1       0.985  -1.317   0.031  0.00  0.00    +0.000 C 
ATOM      3  C   UNL     1      -0.402  -0.860   0.200  0.00  0.00    +0.000 A 
ATOM      4  C   UNL     1      -1.510  -1.504   0.824  0.00  0.00    +0.000 A 
ATOM      5  C   UNL     1      -2.727  -0.874   0.881  0.00  0.00    +0.000 A 
ATOM      6 CL   UNL     1      -4.150  -1.581   1.633  0.00  0.00    +0.000 Cl
ATOM      7  C   UNL     1      -2.909   0.390   0.342  0.00  0.00    +0.000 A 
ATOM      8  C   UNL     1      -1.830   1.027  -0.272  0.00  0.00    +0.000 A 
ATOM      9  C   UNL     1      -0.577   0.375  -0.331  0.00  0.00    +0.000 A 
ATOM     10  C   UNL     1       0.673   0.860  -0.962  0.00  0.00    +0.000 C 
ENDROOT
BRANCH   1  11
ATOM     11  C   UNL     1       2.939   0.213  -0.203  0.00  0.00    +0.000 A 
ATOM     12  C   UNL     1       3.137   1.430   0.424  0.00  0.00    +0.000 A 
ATOM     13  N   UNL     1       4.440   1.515   0.774  0.00  0.00    +0.000 NA
ATOM     14  C   UNL     1       5.057   0.379   0.379  0.00  0.00    +0.000 A 
ATOM     15  N   UNL     1       4.110  -0.399  -0.213  0.00  0.00    +0.000 NA
ENDBRANCH   1  11
BRANCH   7  16
ATOM     16  N   UNL     1      -4.165   1.014   0.429  0.00  0.00    +0.000 N 
ATOM     17  O   UNL     1      -4.218   2.255   0.460  0.00  0.00    +0.000 OA
ATOM     18  O   UNL     1      -5.312   0.301   0.483  0.00  0.00    +0.000 OA
ENDBRANCH   7  16
BRANCH   1  20
ATOM     19  C   UNL     1       2.888  -2.040  -1.917  0.00  0.00    +0.000 C 
ATOM     20  C   UNL     1       1.913  -0.895  -2.178  0.00  0.00    +0.000 C 
ENDBRANCH   1  20
TORSDOF 3
