REMARK  Name = 
REMARK  2 active torsions:
REMARK  status: ('A' for Active; 'I' for Inactive)
REMARK    1  A    between atoms: C_2  and  C_3
REMARK    2  A    between atoms: C_3  and  C_5
REMARK                            x       y       z     vdW  Elec       q    Type
REMARK                         _______ _______ _______ _____ _____    ______ ____
ROOT
ATOM      1  C   UNL     1       1.456   0.578  -0.266  0.00  0.00    +0.000 A 
ATOM      2  C   UNL     1       2.694   0.515   0.276  0.00  0.00    +0.000 A 
ATOM      3  C   UNL     1       3.019  -0.393   1.300  0.00  0.00    +0.000 A 
ATOM      4  N   UNL     1       4.325  -0.448   1.861  0.00  0.00    +0.000 NA
ATOM      5  N   UNL     1       2.078  -1.225   1.756  0.00  0.00    +0.000 NA
ATOM      6  C   UNL     1       0.848  -1.157   1.211  0.00  0.00    +0.000 A 
ATOM      7  N   UNL     1      -0.288  -1.863   1.460  0.00  0.00    +0.000 NA
ATOM      8  C   UNL     1      -1.267  -1.427   0.645  0.00  0.00    +0.000 A 
ATOM      9  C   UNL     1      -2.591  -1.741   0.430  0.00  0.00    +0.000 A 
ATOM     10  C   UNL     1      -3.367  -1.098  -0.514  0.00  0.00    +0.000 A 
ATOM     11  C   UNL     1      -4.792  -1.425  -0.756  0.00  0.00    +0.000 C 
ATOM     12  C   UNL     1      -2.812  -0.097  -1.283  0.00  0.00    +0.000 A 
ATOM     13  C   UNL     1      -3.559   0.651  -2.320  0.00  0.00    +0.000 C 
ATOM     14  C   UNL     1      -1.488   0.198  -1.050  0.00  0.00    +0.000 A 
ATOM     15  C   UNL     1      -0.726  -0.436  -0.120  0.00  0.00    +0.000 A 
ATOM     16  N   UNL     1       0.554  -0.262   0.212  0.00  0.00    +0.000 N 
ENDROOT
BRANCH   1  17
ATOM     17  C   UNL     1       1.146   1.567  -1.375  0.00  0.00    +0.000 C 
ATOM     18  C   UNL     1       0.028   2.588  -0.755  0.00  0.00    +0.000 C 
BRANCH  17  20
ATOM     19  C   UNL     1       2.385   2.864   0.394  0.00  0.00    +0.000 C 
ATOM     20  C   UNL     1       2.357   2.608  -1.107  0.00  0.00    +0.000 C 
ENDBRANCH  17  20
ENDBRANCH   1  17
TORSDOF 2
