REMARK  Name = 
REMARK  4 active torsions:
REMARK  status: ('A' for Active; 'I' for Inactive)
REMARK    1  A    between atoms: C_2  and  C_3
REMARK    2  A    between atoms: C_3  and  N_4
REMARK    3  A    between atoms: C_7  and  C_8
REMARK    4  A    between atoms: C_8  and  O_10
REMARK                            x       y       z     vdW  Elec       q    Type
REMARK                         _______ _______ _______ _____ _____    ______ ____
ROOT
ATOM      1  N   UNL     1      -1.496   0.727   0.805  0.00  0.00    +0.000 N 
ATOM      2  C   UNL     1      -1.973  -0.524   0.638  0.00  0.00    +0.000 A 
ATOM      3  N   UNL     1      -3.288  -0.976   0.929  0.00  0.00    +0.000 NA
ATOM      4  C   UNL     1      -0.986  -1.341   0.131  0.00  0.00    +0.000 A 
ATOM      5  C   UNL     1       0.140  -0.556  -0.018  0.00  0.00    +0.000 A 
ATOM      6  N   UNL     1       1.388  -0.798  -0.462  0.00  0.00    +0.000 NA
ATOM      7  C   UNL     1       2.330   0.178  -0.507  0.00  0.00    +0.000 A 
ATOM      8  C   UNL     1       3.615  -0.065  -0.962  0.00  0.00    +0.000 A 
ATOM      9  C   UNL     1       4.554   0.960  -0.994  0.00  0.00    +0.000 A 
ATOM     10  C   UNL     1       4.225   2.233  -0.575  0.00  0.00    +0.000 A 
ATOM     11  C   UNL     1       2.935   2.439  -0.128  0.00  0.00    +0.000 A 
ATOM     12  C   UNL     1       1.984   1.439  -0.086  0.00  0.00    +0.000 A 
ATOM     13  N   UNL     1       0.720   1.683   0.363  0.00  0.00    +0.000 NA
ATOM     14  C   UNL     1      -0.211   0.708   0.405  0.00  0.00    +0.000 A 
ENDROOT
BRANCH   4  15
ATOM     15  C   UNL     1      -1.073  -2.758  -0.197  0.00  0.00    +0.000 C 
ATOM     16  O   UNL     1      -0.095  -3.394  -0.656  0.00  0.00    +0.000 OA
BRANCH  15  17
ATOM     17  O   UNL     1      -2.275  -3.397   0.013  0.00  0.00    +0.000 OA
ATOM     18  C   UNL     1      -2.501  -4.766  -0.260  0.00  0.00    +0.000 C 
ENDBRANCH  15  17
ENDBRANCH   4  15
BRANCH   1  19
ATOM     19  C   UNL     1      -2.289   1.826   1.323  0.00  0.00    +0.000 C 
BRANCH  19  21
ATOM     20  C   UNL     1      -2.731   3.836   0.019  0.00  0.00    +0.000 C 
ATOM     21  C   UNL     1      -2.974   2.547   0.219  0.00  0.00    +0.000 C 
ENDBRANCH  19  21
ENDBRANCH   1  19
TORSDOF 4
