REMARK  Name = 
REMARK  3 active torsions:
REMARK  status: ('A' for Active; 'I' for Inactive)
REMARK    1  A    between atoms: C_4  and  N_5
REMARK    2  A    between atoms: C_6  and  C_8
REMARK    3  A    between atoms: C_11  and  N_12
REMARK                            x       y       z     vdW  Elec       q    Type
REMARK                         _______ _______ _______ _____ _____    ______ ____
ROOT
ATOM      1  N   UNL     1       1.116  -0.223   0.596  0.00  0.00    +0.000 NA
ATOM      2  C   UNL     1       0.021   0.649   0.713  0.00  0.00    +0.000 C 
ATOM      3  O   UNL     1       0.240   1.786   1.205  0.00  0.00    +0.000 OA
ENDROOT
BRANCH   1   7
ATOM      4  C   UNL     1       1.944   1.203  -1.248  0.00  0.00    +0.000 C 
ATOM      5  C   UNL     1       2.991   0.999  -0.294  0.00  0.00    +0.000 C 
ATOM      6  C   UNL     1       3.797   2.216   0.110  0.00  0.00    +0.000 C 
ATOM      7  C   UNL     1       2.462   0.419   1.125  0.00  0.00    +0.000 C 
ATOM      8  C   UNL     1       3.329  -0.970   1.143  0.00  0.00    +0.000 C 
ATOM      9  C   UNL     1       3.190  -1.393   2.560  0.00  0.00    +0.000 C 
ATOM     10  C   UNL     1       2.840  -1.941   0.215  0.00  0.00    +0.000 C 
ATOM     11  C   UNL     1       2.960  -1.284  -1.036  0.00  0.00    +0.000 C 
ATOM     12  C   UNL     1       4.059  -0.083  -0.839  0.00  0.00    +0.000 C 
ATOM     13  C   UNL     1       4.590  -0.545   0.652  0.00  0.00    +0.000 C 
ENDBRANCH   1   7
BRANCH   2  14
ATOM     14  C   UNL     1      -1.344   0.330   0.308  0.00  0.00    +0.000 A 
ATOM     15  C   UNL     1      -1.718  -0.882  -0.221  0.00  0.00    +0.000 A 
ATOM     16  C   UNL     1      -3.039  -1.124  -0.589  0.00  0.00    +0.000 A 
ATOM     17  C   UNL     1      -4.012  -0.178  -0.444  0.00  0.00    +0.000 A 
ATOM     18  C   UNL     1      -3.650   1.042   0.085  0.00  0.00    +0.000 A 
ATOM     19  C   UNL     1      -2.336   1.275   0.448  0.00  0.00    +0.000 A 
BRANCH  17  20
ATOM     20  N   UNL     1      -5.365  -0.401  -0.812  0.00  0.00    +0.000 N 
ATOM     21  O   UNL     1      -5.770  -1.475  -1.295  0.00  0.00    +0.000 OA
ATOM     22  O   UNL     1      -6.306   0.580  -0.648  0.00  0.00    +0.000 OA
ENDBRANCH  17  20
ENDBRANCH   2  14
TORSDOF 3
