REMARK  Name = 
REMARK  3 active torsions:
REMARK  status: ('A' for Active; 'I' for Inactive)
REMARK    1  A    between atoms: O_2  and  C_3
REMARK    2  A    between atoms: C_6  and  N_7
REMARK    3  A    between atoms: C_8  and  C_10
REMARK                            x       y       z     vdW  Elec       q    Type
REMARK                         _______ _______ _______ _____ _____    ______ ____
ROOT
ATOM      1  N   UNL     1       0.306  -0.306  -0.045  0.00  0.00    +0.000 NA
ATOM      2  C   UNL     1      -0.195   0.874   0.557  0.00  0.00    +0.000 C 
ATOM      3  O   UNL     1       0.644   1.769   0.816  0.00  0.00    +0.000 OA
ENDROOT
BRANCH   2   4
ATOM      4  C   UNL     1      -1.649   1.046   0.869  0.00  0.00    +0.000 A 
ATOM      5  C   UNL     1      -2.107   2.196   1.450  0.00  0.00    +0.000 A 
ATOM      6  N   UNL     1      -1.323   3.356   1.835  0.00  0.00    +0.000 NA
ATOM      7  S   UNL     1      -3.781   1.925   1.603  0.00  0.00    +0.000 S 
ATOM      8  C   UNL     1      -3.867   0.368   0.930  0.00  0.00    +0.000 A 
ATOM      9  C   UNL     1      -2.576   0.087   0.597  0.00  0.00    +0.000 A 
ATOM     10  C   UNL     1      -2.418  -1.296  -0.039  0.00  0.00    +0.000 C 
ATOM     11  C   UNL     1      -3.373  -1.283  -1.224  0.00  0.00    +0.000 C 
ATOM     12  C   UNL     1      -4.802  -1.108  -0.800  0.00  0.00    +0.000 C 
ATOM     13  C   UNL     1      -4.927  -0.672   0.643  0.00  0.00    +0.000 C 
ENDBRANCH   2   4
BRANCH   1  17
ATOM     14  C   UNL     1       4.357  -0.980  -1.000  0.00  0.00    +0.000 A 
ATOM     15  C   UNL     1       3.988   0.222  -0.410  0.00  0.00    +0.000 A 
ATOM     16  C   UNL     1       2.654   0.485  -0.077  0.00  0.00    +0.000 A 
ATOM     17  C   UNL     1       1.688  -0.458  -0.336  0.00  0.00    +0.000 A 
ATOM     18  C   UNL     1       2.082  -1.641  -0.922  0.00  0.00    +0.000 A 
ATOM     19  C   UNL     1       3.393  -1.908  -1.252  0.00  0.00    +0.000 A 
BRANCH  14  21
ATOM     20  C   UNL     1       6.197  -2.330  -1.894  0.00  0.00    +0.000 C 
ATOM     21  O   UNL     1       5.712  -1.162  -1.300  0.00  0.00    +0.000 OA
ENDBRANCH  14  21
ENDBRANCH   1  17
TORSDOF 3
