REMARK  Name = 
REMARK  3 active torsions:
REMARK  status: ('A' for Active; 'I' for Inactive)
REMARK    1  A    between atoms: C_2  and  C_3
REMARK    2  A    between atoms: C_6  and  C_7
REMARK    3  A    between atoms: N_11  and  C_12
REMARK                            x       y       z     vdW  Elec       q    Type
REMARK                         _______ _______ _______ _____ _____    ______ ____
ROOT
ATOM      1  C   UNL     1       0.012  -0.501  -0.082  0.00  0.00    +0.000 C 
ATOM      2  C   UNL     1      -0.397  -1.462  -0.879  0.00  0.00    +0.000 C 
ATOM      3  S   UNL     1      -2.148  -1.782  -0.961  0.00  0.00    +0.000 S 
ATOM      4  C   UNL     1      -2.920  -0.623   0.144  0.00  0.00    +0.000 C 
ATOM      5  N   UNL     1      -4.315  -0.668   0.264  0.00  0.00    +0.000 NA
ATOM      6  N   UNL     1      -2.197   0.206   0.791  0.00  0.00    +0.000 NA
ATOM      7  N   UNL     1      -0.824   0.297   0.714  0.00  0.00    +0.000 NA
ENDROOT
BRANCH   1  11
ATOM      8  C   UNL     1       4.217   0.186   0.044  0.00  0.00    +0.000 A 
ATOM      9  C   UNL     1       3.358   0.942   0.806  0.00  0.00    +0.000 A 
ATOM     10  C   UNL     1       2.000   0.714   0.760  0.00  0.00    +0.000 A 
ATOM     11  C   UNL     1       1.472  -0.275  -0.049  0.00  0.00    +0.000 A 
ATOM     12  C   UNL     1       2.351  -1.017  -0.801  0.00  0.00    +0.000 A 
ATOM     13  C   UNL     1       3.712  -0.804  -0.768  0.00  0.00    +0.000 A 
BRANCH   8  15
ATOM     14  C   UNL     1       6.104   1.422  -0.990  0.00  0.00    +0.000 C 
ATOM     15  C   UNL     1       5.696   0.405   0.069  0.00  0.00    +0.000 C 
ENDBRANCH   8  15
ENDBRANCH   1  11
BRANCH   5  16
ATOM     16  C   UNL     1      -5.045   0.247   1.153  0.00  0.00    +0.000 C 
ATOM     17  C   UNL     1      -4.913   1.724   0.894  0.00  0.00    +0.000 C 
ATOM     18  C   UNL     1      -6.164   0.988   0.356  0.00  0.00    +0.000 C 
ENDBRANCH   5  16
TORSDOF 3
