REMARK  Name = 
REMARK  2 active torsions:
REMARK  status: ('A' for Active; 'I' for Inactive)
REMARK    1  A    between atoms: C_4  and  C_5
REMARK    2  A    between atoms: C_5  and  C_6
REMARK                            x       y       z     vdW  Elec       q    Type
REMARK                         _______ _______ _______ _____ _____    ______ ____
ROOT
ATOM      1  N   UNL     1      -0.821   2.665   0.300  0.00  0.00    +0.000 NA
ATOM      2  C   UNL     1      -0.365   1.321   0.339  0.00  0.00    +0.000 A 
ATOM      3  N   UNL     1       0.877   1.109   0.735  0.00  0.00    +0.000 NA
ATOM      4  C   UNL     1       1.446  -0.081   0.824  0.00  0.00    +0.000 A 
ATOM      5  N   UNL     1       0.669  -1.141   0.476  0.00  0.00    +0.000 NA
ATOM      6  C   UNL     1      -0.622  -0.978   0.060  0.00  0.00    +0.000 A 
ATOM      7  S   UNL     1      -1.863  -2.036  -0.442  0.00  0.00    +0.000 S 
ATOM      8  C   UNL     1      -3.089  -0.891  -0.753  0.00  0.00    +0.000 A 
ATOM      9  C   UNL     1      -2.484   0.299  -0.452  0.00  0.00    +0.000 A 
ATOM     10  C   UNL     1      -1.206   0.253  -0.031  0.00  0.00    +0.000 A 
ATOM     11  C   UNL     1      -3.422   1.474  -0.665  0.00  0.00    +0.000 C 
ATOM     12  C   UNL     1      -4.659   1.183   0.122  0.00  0.00    +0.000 C 
ATOM     13  C   UNL     1      -5.317  -0.121  -0.244  0.00  0.00    +0.000 C 
ATOM     14  C   UNL     1      -4.523  -0.926  -1.233  0.00  0.00    +0.000 C 
ENDROOT
BRANCH   4  15
ATOM     15  C   UNL     1       2.838  -0.334   1.265  0.00  0.00    +0.000 C 
BRANCH  15  16
ATOM     16  C   UNL     1       3.787  -0.313   0.090  0.00  0.00    +0.000 A 
ATOM     17  C   UNL     1       4.080  -1.412  -0.609  0.00  0.00    +0.000 A 
ATOM     18  C   UNL     1       4.948  -1.290  -1.651  0.00  0.00    +0.000 A 
ATOM     19  S   UNL     1       5.338   0.367  -1.631  0.00  0.00    +0.000 S 
ATOM     20  C   UNL     1       4.388   0.852  -0.303  0.00  0.00    +0.000 A 
ENDBRANCH  15  16
ENDBRANCH   4  15
TORSDOF 2
