REMARK  Name = 
REMARK  3 active torsions:
REMARK  status: ('A' for Active; 'I' for Inactive)
REMARK    1  A    between atoms: C_7  and  C_8
REMARK    2  A    between atoms: C_8  and  C_10
REMARK    3  A    between atoms: C_10  and  C_11
REMARK                            x       y       z     vdW  Elec       q    Type
REMARK                         _______ _______ _______ _____ _____    ______ ____
ROOT
ATOM      1  C   UNL     1      -0.926  -1.136   0.132  0.00  0.00    +0.000 C 
ATOM      2  O   UNL     1      -0.749  -1.245   1.367  0.00  0.00    +0.000 OA
ENDROOT
BRANCH   1   9
ATOM      3  C   UNL     1      -5.478   0.770   0.970  0.00  0.00    +0.000 C 
ATOM      4  C   UNL     1      -4.404   0.344   0.035  0.00  0.00    +0.000 A 
ATOM      5  C   UNL     1      -4.622   0.486  -1.323  0.00  0.00    +0.000 A 
ATOM      6  O   UNL     1      -5.816   1.017  -1.803  0.00  0.00    +0.000 OA
ATOM      7  C   UNL     1      -3.603   0.080  -2.174  0.00  0.00    +0.000 A 
ATOM      8  C   UNL     1      -2.424  -0.444  -1.702  0.00  0.00    +0.000 A 
ATOM      9  C   UNL     1      -2.192  -0.592  -0.328  0.00  0.00    +0.000 A 
ATOM     10  C   UNL     1      -3.208  -0.186   0.506  0.00  0.00    +0.000 A 
ATOM     11  O   UNL     1      -2.992  -0.328   1.881  0.00  0.00    +0.000 OA
ENDBRANCH   1   9
BRANCH   1  12
ATOM     12  C   UNL     1       0.154  -1.563  -0.777  0.00  0.00    +0.000 C 
BRANCH  12  13
ATOM     13  C   UNL     1       1.399  -0.788  -0.567  0.00  0.00    +0.000 A 
ATOM     14  C   UNL     1       1.508   0.407  -1.295  0.00  0.00    +0.000 A 
ATOM     15  C   UNL     1       2.620   1.216  -1.180  0.00  0.00    +0.000 A 
ATOM     16  C   UNL     1       3.664   0.879  -0.345  0.00  0.00    +0.000 A 
ATOM     17  C   UNL     1       3.556  -0.294   0.370  0.00  0.00    +0.000 A 
ATOM     18  C   UNL     1       2.430  -1.110   0.252  0.00  0.00    +0.000 A 
ATOM     19  O   UNL     1       4.615  -0.625   1.212  0.00  0.00    +0.000 OA
ATOM     20  C   UNL     1       5.903  -0.054   0.975  0.00  0.00    +0.000 C 
ATOM     21  C   UNL     1       5.773   1.456   0.783  0.00  0.00    +0.000 C 
ATOM     22  O   UNL     1       4.792   1.710  -0.234  0.00  0.00    +0.000 OA
ENDBRANCH  12  13
ENDBRANCH   1  12
TORSDOF 3
