REMARK  Name = 
REMARK  4 active torsions:
REMARK  status: ('A' for Active; 'I' for Inactive)
REMARK    1  A    between atoms: C_2  and  C_12
REMARK    2  A    between atoms: N_3  and  C_4
REMARK    3  A    between atoms: C_4  and  C_5
REMARK    4  A    between atoms: C_17  and  N_18
REMARK                            x       y       z     vdW  Elec       q    Type
REMARK                         _______ _______ _______ _____ _____    ______ ____
ROOT
ATOM      1  O   UNL     1      -0.014   0.150  -1.504  0.00  0.00    +0.000 OA
ATOM      2  C   UNL     1      -0.591  -0.512  -0.618  0.00  0.00    +0.000 C 
ATOM      3  N   UNL     1       0.337  -1.012   0.303  0.00  0.00    +0.000 NA
ENDROOT
BRANCH   2   4
ATOM      4  C   UNL     1      -2.035  -0.714  -0.585  0.00  0.00    +0.000 A 
ATOM      5  C   UNL     1      -2.751  -1.466  -1.488  0.00  0.00    +0.000 A 
ATOM      6  C   UNL     1      -4.138  -1.642  -1.332  0.00  0.00    +0.000 A 
ATOM      7  C   UNL     1      -4.829  -1.078  -0.285  0.00  0.00    +0.000 A 
ATOM      8  C   UNL     1      -4.111  -0.312   0.638  0.00  0.00    +0.000 A 
ATOM      9  C   UNL     1      -2.739  -0.150   0.466  0.00  0.00    +0.000 A 
BRANCH   9  10
ATOM     10  N   UNL     1      -1.994   0.655   1.378  0.00  0.00    +0.000 N 
ATOM     11  O   UNL     1      -2.376   0.819   2.543  0.00  0.00    +0.000 OA
ATOM     12  O   UNL     1      -0.828   1.294   1.038  0.00  0.00    +0.000 OA
ENDBRANCH   9  10
ENDBRANCH   2   4
BRANCH   3  13
ATOM     13  C   UNL     1       1.664  -0.983   0.549  0.00  0.00    +0.000 C 
BRANCH  13  14
ATOM     14  C   UNL     1       2.356   0.399   0.886  0.00  0.00    +0.000 C 
ATOM     15  C   UNL     1       2.106   1.258  -0.365  0.00  0.00    +0.000 C 
ATOM     16  C   UNL     1       3.620   1.825  -0.759  0.00  0.00    +0.000 C 
ATOM     17  C   UNL     1       3.991   0.524  -1.543  0.00  0.00    +0.000 C 
ATOM     18  C   UNL     1       4.111  -0.423  -0.773  0.00  0.00    +0.000 C 
ATOM     19  C   UNL     1       3.886  -0.102   0.739  0.00  0.00    +0.000 C 
ATOM     20  C   UNL     1       4.336   1.469   0.612  0.00  0.00    +0.000 C 
ENDBRANCH  13  14
ENDBRANCH   3  13
TORSDOF 4
