REMARK  Name = 
REMARK  4 active torsions:
REMARK  status: ('A' for Active; 'I' for Inactive)
REMARK    1  A    between atoms: C_2  and  C_4
REMARK    2  A    between atoms: C_4  and  C_5
REMARK    3  A    between atoms: C_5  and  O_6
REMARK    4  A    between atoms: O_6  and  C_7
REMARK                            x       y       z     vdW  Elec       q    Type
REMARK                         _______ _______ _______ _____ _____    ______ ____
ROOT
ATOM      1  C   UNL     1       1.693  -0.417  -1.049  0.00  0.00    +0.000 A 
ATOM      2  C   UNL     1       1.619   0.796  -0.417  0.00  0.00    +0.000 A 
ATOM      3  C   UNL     1       0.444   1.228   0.122  0.00  0.00    +0.000 A 
ATOM      4  C   UNL     1      -0.698   0.436   0.034  0.00  0.00    +0.000 A 
ATOM      5  C   UNL     1      -0.650  -0.781  -0.593  0.00  0.00    +0.000 A 
ATOM      6  C   UNL     1       0.531  -1.202  -1.127  0.00  0.00    +0.000 A 
ATOM      7  C   UNL     1      -1.988  -1.393  -0.536  0.00  0.00    +0.000 C 
ATOM      8  O   UNL     1      -2.326  -2.518  -1.011  0.00  0.00    +0.000 OA
ATOM      9  C   UNL     1      -2.841  -0.449   0.173  0.00  0.00    +0.000 A 
ATOM     10  C   UNL     1      -4.175  -0.481   0.521  0.00  0.00    +0.000 A 
ATOM     11  C   UNL     1      -4.787   0.548   1.207  0.00  0.00    +0.000 A 
ATOM     12  O   UNL     1      -6.142   0.494   1.550  0.00  0.00    +0.000 OA
ATOM     13  C   UNL     1      -3.995   1.628   1.535  0.00  0.00    +0.000 A 
ATOM     14  C   UNL     1      -2.659   1.683   1.198  0.00  0.00    +0.000 A 
ATOM     15  C   UNL     1      -2.051   0.632   0.502  0.00  0.00    +0.000 A 
ENDROOT
BRANCH   1  16
ATOM     16  O   UNL     1       2.791  -0.953  -1.619  0.00  0.00    +0.000 OA
BRANCH  16  17
ATOM     17  C   UNL     1       4.042  -0.625  -1.778  0.00  0.00    +0.000 C 
BRANCH  17  18
ATOM     18  C   UNL     1       5.082  -0.423  -0.871  0.00  0.00    +0.000 C 
BRANCH  18  20
ATOM     19  C   UNL     1       4.294   0.449   1.378  0.00  0.00    +0.000 C 
ATOM     20  C   UNL     1       5.216   0.487   0.223  0.00  0.00    +0.000 C 
ATOM     21  C   UNL     1       6.598   0.964   0.558  0.00  0.00    +0.000 C 
ENDBRANCH  18  20
ENDBRANCH  17  18
ENDBRANCH  16  17
ENDBRANCH   1  16
TORSDOF 4
