REMARK  Name = 
REMARK  3 active torsions:
REMARK  status: ('A' for Active; 'I' for Inactive)
REMARK    1  A    between atoms: C_4  and  N_5
REMARK    2  A    between atoms: N_5  and  N_6
REMARK    3  A    between atoms: C_7  and  C_9
REMARK                            x       y       z     vdW  Elec       q    Type
REMARK                         _______ _______ _______ _____ _____    ______ ____
ROOT
ATOM      1  N   UNL     1      -0.049   0.409   0.708  0.00  0.00    +0.000 NA
ATOM      2  C   UNL     1      -1.180  -0.429   0.573  0.00  0.00    +0.000 C 
ATOM      3  O   UNL     1      -1.052  -1.654   0.840  0.00  0.00    +0.000 OA
ENDROOT
BRANCH   2   4
ATOM      4  C   UNL     1      -2.466   0.095   0.137  0.00  0.00    +0.000 A 
ATOM      5  C   UNL     1      -2.920   1.324   0.507  0.00  0.00    +0.000 A 
ATOM      6  C   UNL     1      -4.142   1.790   0.076  0.00  0.00    +0.000 A 
ATOM      7  C   UNL     1      -4.935   1.019  -0.742  0.00  0.00    +0.000 A 
ATOM      8  C   UNL     1      -4.462  -0.222  -1.107  0.00  0.00    +0.000 A 
ATOM      9  C   UNL     1      -3.255  -0.680  -0.681  0.00  0.00    +0.000 A 
ATOM     10 BR   UNL     1      -2.653  -2.407  -1.220  0.00  0.00    +0.000 Br
ENDBRANCH   2   4
BRANCH   1  11
ATOM     11  N   UNL     1       1.155  -0.121   1.123  0.00  0.00    +0.000 NA
BRANCH  11  15
ATOM     12  C   UNL     1       5.022  -1.739  -0.482  0.00  0.00    +0.000 C 
ATOM     13  C   UNL     1       4.158  -0.630  -1.301  0.00  0.00    +0.000 C 
ATOM     14  C   UNL     1       2.891  -0.739  -0.418  0.00  0.00    +0.000 C 
ATOM     15  C   UNL     1       2.365   0.120   0.339  0.00  0.00    +0.000 C 
ATOM     16  C   UNL     1       2.894   1.484   0.545  0.00  0.00    +0.000 C 
ATOM     17  C   UNL     1       3.794   1.752  -0.634  0.00  0.00    +0.000 C 
ATOM     18  C   UNL     1       4.835   0.627  -0.547  0.00  0.00    +0.000 C 
ENDBRANCH  11  15
ENDBRANCH   1  11
TORSDOF 3
