REMARK  Name = 
REMARK  4 active torsions:
REMARK  status: ('A' for Active; 'I' for Inactive)
REMARK    1  A    between atoms: N_7  and  C_8
REMARK    2  A    between atoms: C_8  and  O_9
REMARK    3  A    between atoms: O_9  and  C_10
REMARK    4  A    between atoms: C_13  and  C_14
REMARK                            x       y       z     vdW  Elec       q    Type
REMARK                         _______ _______ _______ _____ _____    ______ ____
ROOT
ATOM      1  C   UNL     1       0.522  -0.508   0.583  0.00  0.00    +0.000 A 
ATOM      2  C   UNL     1       0.906   0.336  -0.435  0.00  0.00    +0.000 A 
ATOM      3  C   UNL     1       2.216   0.583  -0.715  0.00  0.00    +0.000 A 
ATOM      4  C   UNL     1       3.196  -0.019   0.027  0.00  0.00    +0.000 A 
ATOM      5  C   UNL     1       2.843  -0.858   1.037  0.00  0.00    +0.000 A 
ATOM      6  C   UNL     1       1.537  -1.123   1.339  0.00  0.00    +0.000 A 
ENDROOT
BRANCH   4   7
ATOM      7  C   UNL     1       4.592   0.314  -0.292  0.00  0.00    +0.000 C 
ATOM      8  C   UNL     1       5.533  -0.214   0.788  0.00  0.00    +0.000 C 
ATOM      9  C   UNL     1       4.936  -0.264  -1.639  0.00  0.00    +0.000 C 
ATOM     10  C   UNL     1       4.679   1.824  -0.391  0.00  0.00    +0.000 C 
ENDBRANCH   4   7
BRANCH   1  11
ATOM     11  O   UNL     1      -0.722  -0.719   0.844  0.00  0.00    +0.000 OA
BRANCH  11  12
ATOM     12  C   UNL     1      -1.921  -1.016   1.207  0.00  0.00    +0.000 C 
BRANCH  12  19
ATOM     13  C   UNL     1      -3.545  -1.999  -1.335  0.00  0.00    +0.000 C 
ATOM     14  C   UNL     1      -3.709  -0.728  -0.546  0.00  0.00    +0.000 A 
ATOM     15  C   UNL     1      -4.674   0.251  -0.842  0.00  0.00    +0.000 A 
ATOM     16  C   UNL     1      -4.527   1.228   0.117  0.00  0.00    +0.000 A 
ATOM     17  N   UNL     1      -5.298   2.433   0.217  0.00  0.00    +0.000 NA
ATOM     18  N   UNL     1      -3.540   0.829   0.910  0.00  0.00    +0.000 NA
ATOM     19  N   UNL     1      -3.023  -0.349   0.538  0.00  0.00    +0.000 N 
ENDBRANCH  12  19
ENDBRANCH  11  12
ENDBRANCH   1  11
TORSDOF 4
