REMARK  Name = 
REMARK  3 active torsions:
REMARK  status: ('A' for Active; 'I' for Inactive)
REMARK    1  A    between atoms: N_4  and  C_5
REMARK    2  A    between atoms: C_8  and  C_9
REMARK    3  A    between atoms: C_17  and  C_18
REMARK                            x       y       z     vdW  Elec       q    Type
REMARK                         _______ _______ _______ _____ _____    ______ ____
ROOT
ATOM      1  C   UNL     1       2.236   0.178  -0.407  0.00  0.00    +0.000 A 
ATOM      2  S   UNL     1       2.028  -0.902  -1.703  0.00  0.00    +0.000 S 
ATOM      3  C   UNL     1       0.385  -1.258  -1.492  0.00  0.00    +0.000 A 
ATOM      4  C   UNL     1       0.028  -0.510  -0.395  0.00  0.00    +0.000 A 
ATOM      5  C   UNL     1       0.994   0.240   0.174  0.00  0.00    +0.000 A 
ENDROOT
BRANCH   4   6
ATOM      6  C   UNL     1      -1.402  -0.577   0.024  0.00  0.00    +0.000 A 
ATOM      7  C   UNL     1      -1.886  -1.837   0.286  0.00  0.00    +0.000 A 
ATOM      8  C   UNL     1      -3.192  -2.074   0.654  0.00  0.00    +0.000 A 
ATOM      9  C   UNL     1      -4.027  -0.993   0.757  0.00  0.00    +0.000 A 
ATOM     10  C   UNL     1      -5.454  -1.146   1.148  0.00  0.00    +0.000 C 
ATOM     11  C   UNL     1      -3.547   0.278   0.494  0.00  0.00    +0.000 A 
ATOM     12  C   UNL     1      -4.471   1.429   0.613  0.00  0.00    +0.000 C 
ATOM     13  C   UNL     1      -2.221   0.495   0.123  0.00  0.00    +0.000 A 
ENDBRANCH   4   6
BRANCH   1  17
ATOM     14  C   UNL     1       5.912   1.298  -0.465  0.00  0.00    +0.000 C 
ATOM     15  C   UNL     1       4.616   0.642  -0.778  0.00  0.00    +0.000 C 
ATOM     16  O   UNL     1       4.565  -0.133  -1.748  0.00  0.00    +0.000 OA
ATOM     17  N   UNL     1       3.442   0.872  -0.010  0.00  0.00    +0.000 NA
ENDBRANCH   1  17
BRANCH   5  18
ATOM     18  C   UNL     1       0.760   1.076   1.367  0.00  0.00    +0.000 C 
ATOM     19  N   UNL     1      -0.476   1.181   2.038  0.00  0.00    +0.000 NA
ATOM     20  O   UNL     1       1.710   1.742   1.831  0.00  0.00    +0.000 OA
ENDBRANCH   5  18
TORSDOF 3
