REMARK  Name = 
REMARK  0 active torsions:
REMARK  status: ('A' for Active; 'I' for Inactive)
REMARK                            x       y       z     vdW  Elec       q    Type
REMARK                         _______ _______ _______ _____ _____    ______ ____
ROOT
ATOM      1  N   UNL     1      -5.000  -1.524   1.044  0.00  0.00    +0.000 NA
ATOM      2  C   UNL     1      -4.210  -0.440   0.641  0.00  0.00    +0.000 A 
ATOM      3  N   UNL     1      -4.776   0.736   0.258  0.00  0.00    +0.000 NA
ATOM      4  C   UNL     1      -3.909   1.689  -0.103  0.00  0.00    +0.000 A 
ATOM      5  N   UNL     1      -2.604   1.546  -0.105  0.00  0.00    +0.000 NA
ATOM      6  C   UNL     1      -1.966   0.389   0.269  0.00  0.00    +0.000 A 
ATOM      7  C   UNL     1      -2.822  -0.605   0.644  0.00  0.00    +0.000 A 
ATOM      8  S   UNL     1      -1.775  -1.892   1.046  0.00  0.00    +0.000 S 
ATOM      9  C   UNL     1      -0.278  -1.140   0.730  0.00  0.00    +0.000 A 
ATOM     10  N   UNL     1       1.003  -1.571   0.829  0.00  0.00    +0.000 NA
ATOM     11  C   UNL     1       2.056  -0.766   0.511  0.00  0.00    +0.000 A 
ATOM     12  C   UNL     1       1.723   0.486   0.093  0.00  0.00    +0.000 A 
ATOM     13  C   UNL     1       0.440   0.947  -0.016  0.00  0.00    +0.000 A 
ATOM     14  C   UNL     1      -0.643   0.105   0.316  0.00  0.00    +0.000 A 
ATOM     15  C   UNL     1       2.611   1.628  -0.334  0.00  0.00    +0.000 C 
ATOM     16  C   UNL     1       3.413   2.069   0.893  0.00  0.00    +0.000 C 
ATOM     17  C   UNL     1       4.199   0.861   1.370  0.00  0.00    +0.000 C 
ATOM     18  C   UNL     1       4.901   0.221   0.208  0.00  0.00    +0.000 C 
ATOM     19  C   UNL     1       4.378  -1.136  -0.145  0.00  0.00    +0.000 C 
ATOM     20  C   UNL     1       3.259  -1.602   0.752  0.00  0.00    +0.000 C 
ENDROOT
TORSDOF 0
