REMARK  Name = 
REMARK  3 active torsions:
REMARK  status: ('A' for Active; 'I' for Inactive)
REMARK    1  A    between atoms: C_2  and  N_5
REMARK    2  A    between atoms: C_7  and  C_8
REMARK    3  A    between atoms: C_15  and  C_16
REMARK                            x       y       z     vdW  Elec       q    Type
REMARK                         _______ _______ _______ _____ _____    ______ ____
ROOT
ATOM      1  N   UNL     1      -2.129   0.080   0.262  0.00  0.00    +0.000 N 
ATOM      2  N   UNL     1      -0.977  -0.313   0.804  0.00  0.00    +0.000 NA
ATOM      3  C   UNL     1       0.051  -0.002   0.008  0.00  0.00    +0.000 A 
ATOM      4  C   UNL     1      -0.505   0.620  -1.091  0.00  0.00    +0.000 A 
ATOM      5  C   UNL     1      -1.866   0.665  -0.921  0.00  0.00    +0.000 A 
ATOM      6  N   UNL     1      -2.841   1.227  -1.824  0.00  0.00    +0.000 NA
ENDROOT
BRANCH   3   7
ATOM      7  C   UNL     1       1.464  -0.279   0.276  0.00  0.00    +0.000 A 
ATOM      8  C   UNL     1       2.271  -0.798  -0.715  0.00  0.00    +0.000 A 
ATOM      9  C   UNL     1       3.604  -1.064  -0.476  0.00  0.00    +0.000 A 
ATOM     10  C   UNL     1       4.191  -0.827   0.750  0.00  0.00    +0.000 A 
ATOM     11  F   UNL     1       5.500  -1.082   1.004  0.00  0.00    +0.000 F 
ATOM     12  C   UNL     1       3.382  -0.308   1.739  0.00  0.00    +0.000 A 
ATOM     13  C   UNL     1       2.049  -0.042   1.502  0.00  0.00    +0.000 A 
ENDBRANCH   3   7
BRANCH   1  15
ATOM     14  C   UNL     1      -4.271  -1.103   0.072  0.00  0.00    +0.000 C 
ATOM     15  C   UNL     1      -3.455  -0.082   0.826  0.00  0.00    +0.000 C 
ATOM     16  C   UNL     1      -4.239   1.222   0.807  0.00  0.00    +0.000 C 
ATOM     17  C   UNL     1      -3.343  -0.560   2.270  0.00  0.00    +0.000 C 
ENDBRANCH   1  15
BRANCH   4  18
ATOM     18  C   UNL     1       0.254   1.115  -2.194  0.00  0.00    +0.000 C 
ATOM     19  N   UNL     1       0.862   1.531  -3.100  0.00  0.00    +0.000 NA
ENDBRANCH   4  18
TORSDOF 3
