REMARK  Name = 
REMARK  4 active torsions:
REMARK  status: ('A' for Active; 'I' for Inactive)
REMARK    1  A    between atoms: C_2  and  C_4
REMARK    2  A    between atoms: C_6  and  N_7
REMARK    3  A    between atoms: N_7  and  C_8
REMARK    4  A    between atoms: C_15  and  C_16
REMARK                            x       y       z     vdW  Elec       q    Type
REMARK                         _______ _______ _______ _____ _____    ______ ____
ROOT
ATOM      1  C   UNL     1      -1.626   1.779  -0.017  0.00  0.00    +0.000 A 
ATOM      2  C   UNL     1      -0.273   1.965  -0.200  0.00  0.00    +0.000 A 
ATOM      3  C   UNL     1       0.608   0.886  -0.142  0.00  0.00    +0.000 A 
ATOM      4  C   UNL     1       0.109  -0.370   0.102  0.00  0.00    +0.000 A 
ATOM      5  C   UNL     1      -1.241  -0.525   0.281  0.00  0.00    +0.000 A 
ATOM      6  C   UNL     1      -2.134   0.521   0.228  0.00  0.00    +0.000 A 
ATOM      7  O   UNL     1      -3.513   0.313   0.418  0.00  0.00    +0.000 OA
ENDROOT
BRANCH   5   8
ATOM      8  C   UNL     1      -1.846  -1.882   0.552  0.00  0.00    +0.000 C 
ATOM      9  C   UNL     1      -2.538  -1.801   1.890  0.00  0.00    +0.000 C 
ATOM     10  C   UNL     1      -2.866  -2.116  -0.529  0.00  0.00    +0.000 C 
ATOM     11  C   UNL     1      -0.798  -2.963   0.520  0.00  0.00    +0.000 C 
ENDBRANCH   5   8
BRANCH   1  13
ATOM     12  C   UNL     1      -1.833   4.199  -0.352  0.00  0.00    +0.000 C 
ATOM     13  C   UNL     1      -2.584   2.906  -0.074  0.00  0.00    +0.000 C 
ATOM     14  C   UNL     1      -3.635   2.670  -1.142  0.00  0.00    +0.000 C 
ENDBRANCH   1  13
BRANCH   3  15
ATOM     15  N   UNL     1       2.020   1.107  -0.337  0.00  0.00    +0.000 NA
BRANCH  15  16
ATOM     16  C   UNL     1       2.861  -0.050  -0.262  0.00  0.00    +0.000 A 
ATOM     17  C   UNL     1       4.213   0.126  -0.444  0.00  0.00    +0.000 A 
ATOM     18  C   UNL     1       5.031  -0.976  -0.375  0.00  0.00    +0.000 A 
ATOM     19  C   UNL     1       4.505  -2.224  -0.129  0.00  0.00    +0.000 A 
ATOM     20  N   UNL     1       3.175  -2.300   0.036  0.00  0.00    +0.000 NA
ATOM     21  N   UNL     1       2.365  -1.264  -0.025  0.00  0.00    +0.000 NA
ENDBRANCH  15  16
ENDBRANCH   3  15
TORSDOF 4
