REMARK  Name = 
REMARK  4 active torsions:
REMARK  status: ('A' for Active; 'I' for Inactive)
REMARK    1  A    between atoms: C_2  and  O_3
REMARK    2  A    between atoms: O_3  and  C_4
REMARK    3  A    between atoms: C_4  and  C_6
REMARK    4  A    between atoms: C_13  and  C_14
REMARK                            x       y       z     vdW  Elec       q    Type
REMARK                         _______ _______ _______ _____ _____    ______ ____
ROOT
ATOM      1  C   UNL     1      -1.526  -0.251   0.419  0.00  0.00    +0.000 C 
ATOM      2  C   UNL     1      -2.433  -1.126   0.634  0.00  0.00    +0.000 C 
ATOM      3  C   UNL     1      -3.684  -1.030  -0.168  0.00  0.00    +0.000 C 
ATOM      4  N   UNL     1      -2.298  -2.239   1.505  0.00  0.00    +0.000 NA
ATOM      5  C   UNL     1      -1.054  -2.370   2.157  0.00  0.00    +0.000 C 
ATOM      6  O   UNL     1      -0.948  -3.388   2.959  0.00  0.00    +0.000 OA
ATOM      7  N   UNL     1      -0.060  -1.473   1.933  0.00  0.00    +0.000 NA
ATOM      8  C   UNL     1      -0.226  -0.159   1.279  0.00  0.00    +0.000 C 
ENDROOT
BRANCH   8   9
ATOM      9  C   UNL     1       0.863  -0.293   0.100  0.00  0.00    +0.000 A 
ATOM     10  C   UNL     1       0.725  -1.205  -0.853  0.00  0.00    +0.000 A 
ATOM     11  O   UNL     1      -0.342  -2.074  -0.888  0.00  0.00    +0.000 OA
ATOM     12  C   UNL     1       1.732  -1.240  -1.833  0.00  0.00    +0.000 A 
ATOM     13  C   UNL     1       2.802  -0.371  -1.802  0.00  0.00    +0.000 A 
ATOM     14  C   UNL     1       2.884   0.553  -0.781  0.00  0.00    +0.000 A 
ATOM     15  C   UNL     1       3.963   1.400  -0.784  0.00  0.00    +0.000 A 
ATOM     16  C   UNL     1       4.070   2.330   0.219  0.00  0.00    +0.000 A 
ATOM     17  C   UNL     1       3.092   2.378   1.189  0.00  0.00    +0.000 A 
ATOM     18  C   UNL     1       2.005   1.527   1.193  0.00  0.00    +0.000 A 
ATOM     19  C   UNL     1       1.909   0.603   0.187  0.00  0.00    +0.000 A 
ENDBRANCH   8   9
BRANCH   1  20
ATOM     20  C   UNL     1      -1.684   0.789  -0.562  0.00  0.00    +0.000 C 
ATOM     21  O   UNL     1      -0.811   1.675  -0.805  0.00  0.00    +0.000 OA
BRANCH  20  22
ATOM     22  O   UNL     1      -2.849   0.863  -1.311  0.00  0.00    +0.000 OA
BRANCH  22  24
ATOM     23  C   UNL     1      -3.046   3.254  -1.694  0.00  0.00    +0.000 C 
ATOM     24  C   UNL     1      -3.087   1.849  -2.293  0.00  0.00    +0.000 C 
ENDBRANCH  22  24
ENDBRANCH  20  22
ENDBRANCH   1  20
TORSDOF 4
