REMARK  Name = 
REMARK  4 active torsions:
REMARK  status: ('A' for Active; 'I' for Inactive)
REMARK    1  A    between atoms: O_2  and  C_3
REMARK    2  A    between atoms: C_9  and  N_10
REMARK    3  A    between atoms: C_11  and  C_13
REMARK    4  A    between atoms: C_17  and  N_18
REMARK                            x       y       z     vdW  Elec       q    Type
REMARK                         _______ _______ _______ _____ _____    ______ ____
ROOT
ATOM      1  N   UNL     1       0.726  -0.508   0.020  0.00  0.00    +0.000 NA
ATOM      2  C   UNL     1      -0.025  -0.029   1.098  0.00  0.00    +0.000 C 
ATOM      3  O   UNL     1       0.533   0.552   2.080  0.00  0.00    +0.000 OA
ENDROOT
BRANCH   1  10
ATOM      4  C   UNL     1       2.776  -1.055  -1.025  0.00  0.00    +0.000 A 
ATOM      5  C   UNL     1       4.164  -0.932  -1.215  0.00  0.00    +0.000 A 
ATOM      6  C   UNL     1       4.837  -0.072  -0.367  0.00  0.00    +0.000 A 
ATOM      7  C   UNL     1       4.232   0.635   0.614  0.00  0.00    +0.000 A 
ATOM      8  C   UNL     1       4.952   1.579   1.523  0.00  0.00    +0.000 C 
ATOM      9  C   UNL     1       2.849   0.504   0.798  0.00  0.00    +0.000 A 
ATOM     10  C   UNL     1       2.130  -0.356  -0.042  0.00  0.00    +0.000 A 
BRANCH   4  12
ATOM     11  C   UNL     1       2.691  -2.620  -2.841  0.00  0.00    +0.000 C 
ATOM     12  O   UNL     1       2.037  -1.897  -1.839  0.00  0.00    +0.000 OA
ENDBRANCH   4  12
ENDBRANCH   1  10
BRANCH   2  13
ATOM     13  C   UNL     1      -1.482  -0.188   1.125  0.00  0.00    +0.000 A 
ATOM     14  C   UNL     1      -2.049  -0.896   2.158  0.00  0.00    +0.000 A 
ATOM     15  C   UNL     1      -3.420  -1.080   2.075  0.00  0.00    +0.000 A 
ATOM     16  C   UNL     1      -4.133  -0.574   1.022  0.00  0.00    +0.000 A 
ATOM     17  C   UNL     1      -3.538   0.151  -0.026  0.00  0.00    +0.000 A 
ATOM     18  C   UNL     1      -2.180   0.329   0.060  0.00  0.00    +0.000 A 
ATOM     19  C   UNL     1      -1.481   1.117  -1.022  0.00  0.00    +0.000 C 
BRANCH  17  20
ATOM     20  N   UNL     1      -4.336   0.673  -1.066  0.00  0.00    +0.000 N 
ATOM     21  O   UNL     1      -5.517   0.935  -0.828  0.00  0.00    +0.000 OA
ATOM     22  O   UNL     1      -3.767   0.871  -2.302  0.00  0.00    +0.000 OA
ENDBRANCH  17  20
ENDBRANCH   2  13
TORSDOF 4
