REMARK  Name = 
REMARK  3 active torsions:
REMARK  status: ('A' for Active; 'I' for Inactive)
REMARK    1  A    between atoms: C_7  and  C_8
REMARK    2  A    between atoms: C_8  and  N_9
REMARK    3  A    between atoms: C_10  and  C_11
REMARK                            x       y       z     vdW  Elec       q    Type
REMARK                         _______ _______ _______ _____ _____    ______ ____
ROOT
ATOM      1  N   UNL     1      -0.746  -0.671  -0.389  0.00  0.00    +0.000 N 
ATOM      2  C   UNL     1      -1.354  -1.365   0.525  0.00  0.00    +0.000 A 
ATOM      3  N   UNL     1      -2.456  -0.807   0.997  0.00  0.00    +0.000 NA
ATOM      4  C   UNL     1      -2.595   0.358   0.339  0.00  0.00    +0.000 A 
ATOM      5  C   UNL     1      -3.520   1.390   0.365  0.00  0.00    +0.000 A 
ATOM      6  C   UNL     1      -3.416   2.514  -0.451  0.00  0.00    +0.000 A 
ATOM      7  C   UNL     1      -2.351   2.593  -1.311  0.00  0.00    +0.000 A 
ATOM      8  C   UNL     1      -1.437   1.580  -1.339  0.00  0.00    +0.000 A 
ATOM      9  C   UNL     1      -1.537   0.458  -0.529  0.00  0.00    +0.000 A 
ENDROOT
BRANCH   2  10
ATOM     10  C   UNL     1      -0.822  -2.818   1.026  0.00  0.00    +0.000 C 
ATOM     11  C   UNL     1      -0.834  -2.437   2.647  0.00  0.00    +0.000 C 
ATOM     12  O   UNL     1      -2.209  -3.465   1.055  0.00  0.00    +0.000 OA
ENDBRANCH   2  10
BRANCH   1  13
ATOM     13  C   UNL     1       0.437  -0.836  -1.144  0.00  0.00    +0.000 C 
BRANCH  13  20
ATOM     14  C   UNL     1       3.464   3.114  -1.123  0.00  0.00    +0.000 C 
ATOM     15  C   UNL     1       3.146   1.716  -0.651  0.00  0.00    +0.000 A 
ATOM     16  C   UNL     1       3.991   1.079   0.231  0.00  0.00    +0.000 A 
ATOM     17  C   UNL     1       3.700  -0.195   0.663  0.00  0.00    +0.000 A 
ATOM     18  C   UNL     1       2.529  -0.826   0.187  0.00  0.00    +0.000 A 
ATOM     19  C   UNL     1       2.309  -2.217   0.662  0.00  0.00    +0.000 C 
ATOM     20  C   UNL     1       1.669  -0.236  -0.680  0.00  0.00    +0.000 A 
ATOM     21  C   UNL     1       2.032   1.070  -1.080  0.00  0.00    +0.000 A 
ENDBRANCH  13  20
ENDBRANCH   1  13
TORSDOF 3
