REMARK  Name = 
REMARK  1 active torsions:
REMARK  status: ('A' for Active; 'I' for Inactive)
REMARK    1  A    between atoms: C_19  and  C_21
REMARK                            x       y       z     vdW  Elec       q    Type
REMARK                         _______ _______ _______ _____ _____    ______ ____
ROOT
ATOM      1  C   UNL     1       0.979  -2.386   0.080  0.00  0.00    +0.000 C 
ATOM      2  C   UNL     1       0.827  -0.784   0.235  0.00  0.00    +0.000 C 
ATOM      3  C   UNL     1       1.358  -0.518   1.499  0.00  0.00    +0.000 C 
ATOM      4  C   UNL     1       2.530  -0.078   1.741  0.00  0.00    +0.000 C 
ATOM      5  C   UNL     1       3.372   0.188   0.586  0.00  0.00    +0.000 A 
ATOM      6  O   UNL     1       4.639   0.592   0.533  0.00  0.00    +0.000 OA
ATOM      7  C   UNL     1       5.028   0.679  -0.706  0.00  0.00    +0.000 A 
ATOM      8  C   UNL     1       3.964   0.316  -1.512  0.00  0.00    +0.000 A 
ATOM      9  C   UNL     1       2.919   0.013  -0.629  0.00  0.00    +0.000 A 
ATOM     10  C   UNL     1       1.432  -0.266  -1.074  0.00  0.00    +0.000 C 
ATOM     11  C   UNL     1       0.991   1.283  -1.077  0.00  0.00    +0.000 C 
ATOM     12  C   UNL     1       0.151   1.623   0.094  0.00  0.00    +0.000 C 
ATOM     13  C   UNL     1      -1.062   0.819  -0.008  0.00  0.00    +0.000 C 
ATOM     14  C   UNL     1      -1.707   1.103  -1.278  0.00  0.00    +0.000 C 
ATOM     15  C   UNL     1      -3.120   0.320  -1.218  0.00  0.00    +0.000 C 
ATOM     16  C   UNL     1      -2.537  -1.178  -1.210  0.00  0.00    +0.000 C 
ATOM     17  C   UNL     1      -1.045  -1.215  -1.266  0.00  0.00    +0.000 C 
ATOM     18  C   UNL     1      -0.772  -0.723   0.249  0.00  0.00    +0.000 C 
ATOM     19  C   UNL     1      -3.373   0.444   0.370  0.00  0.00    +0.000 C 
ATOM     20  O   UNL     1      -4.460   1.340   0.502  0.00  0.00    +0.000 OA
ATOM     21  C   UNL     1      -2.181   1.085   0.930  0.00  0.00    +0.000 C 
ENDROOT
BRANCH  19  22
ATOM     22  C   UNL     1      -3.799  -0.857   0.920  0.00  0.00    +0.000 C 
ATOM     23  O   UNL     1      -4.135  -0.691   2.239  0.00  0.00    +0.000 OA
ENDBRANCH  19  22
TORSDOF 1
