REMARK  Name = 
REMARK  4 active torsions:
REMARK  status: ('A' for Active; 'I' for Inactive)
REMARK    1  A    between atoms: O_2  and  C_3
REMARK    2  A    between atoms: C_3  and  C_5
REMARK    3  A    between atoms: C_5  and  C_14
REMARK    4  A    between atoms: C_6  and  C_7
REMARK                            x       y       z     vdW  Elec       q    Type
REMARK                         _______ _______ _______ _____ _____    ______ ____
ROOT
ATOM      1  C   UNL     1      -0.512   1.191  -0.334  0.00  0.00    +0.000 C 
ATOM      2  C   UNL     1       0.747   1.165  -0.608  0.00  0.00    +0.000 C 
ENDROOT
BRANCH   2   3
ATOM      3  C   UNL     1       1.689   0.087  -0.601  0.00  0.00    +0.000 A 
ATOM      4  C   UNL     1       1.586  -1.134  -1.206  0.00  0.00    +0.000 A 
ATOM      5  C   UNL     1       2.585  -2.060  -1.085  0.00  0.00    +0.000 A 
ATOM      6  C   UNL     1       3.735  -1.830  -0.362  0.00  0.00    +0.000 A 
ATOM      7  C   UNL     1       3.865  -0.606   0.258  0.00  0.00    +0.000 A 
ATOM      8  N   UNL     1       5.053  -0.365   1.004  0.00  0.00    +0.000 NA
ATOM      9  C   UNL     1       2.864   0.324   0.138  0.00  0.00    +0.000 A 
ENDBRANCH   2   3
BRANCH   1  10
ATOM     10  C   UNL     1      -1.184  -0.011   0.116  0.00  0.00    +0.000 A 
ATOM     11  C   UNL     1      -2.562   0.096   0.349  0.00  0.00    +0.000 A 
ATOM     12  C   UNL     1      -3.324  -0.960   0.792  0.00  0.00    +0.000 A 
ATOM     13  C   UNL     1      -2.718  -2.174   1.018  0.00  0.00    +0.000 A 
ATOM     14 CL   UNL     1      -3.651  -3.568   1.587  0.00  0.00    +0.000 Cl
ATOM     15  C   UNL     1      -1.359  -2.285   0.789  0.00  0.00    +0.000 A 
ATOM     16  C   UNL     1      -0.610  -1.224   0.348  0.00  0.00    +0.000 A 
ENDBRANCH   1  10
BRANCH   1  17
ATOM     17  C   UNL     1      -1.302   2.442  -0.417  0.00  0.00    +0.000 C 
ATOM     18  O   UNL     1      -2.546   2.420  -0.131  0.00  0.00    +0.000 OA
BRANCH  17  20
ATOM     19  C   UNL     1      -1.568   4.841  -0.865  0.00  0.00    +0.000 C 
ATOM     20  O   UNL     1      -0.785   3.653  -0.791  0.00  0.00    +0.000 OA
ENDBRANCH  17  20
ENDBRANCH   1  17
TORSDOF 4
