REMARK  Name = 
REMARK  4 active torsions:
REMARK  status: ('A' for Active; 'I' for Inactive)
REMARK    1  A    between atoms: C_5  and  C_6
REMARK    2  A    between atoms: C_9  and  O_10
REMARK    3  A    between atoms: O_10  and  C_11
REMARK    4  A    between atoms: C_16  and  N_17
REMARK                            x       y       z     vdW  Elec       q    Type
REMARK                         _______ _______ _______ _____ _____    ______ ____
ROOT
ATOM      1  C   UNL     1      -1.834   3.471   0.599  0.00  0.00    +0.000 C 
ATOM      2  C   UNL     1      -1.920   2.034   0.233  0.00  0.00    +0.000 A 
ATOM      3  C   UNL     1      -3.226   1.545  -0.044  0.00  0.00    +0.000 A 
ATOM      4  C   UNL     1      -3.298   0.204  -0.365  0.00  0.00    +0.000 A 
ATOM      5  C   UNL     1      -2.260  -0.636  -0.429  0.00  0.00    +0.000 A 
ATOM      6  C   UNL     1      -0.961  -0.136  -0.151  0.00  0.00    +0.000 A 
ATOM      7  C   UNL     1      -0.861   1.173   0.163  0.00  0.00    +0.000 A 
ENDROOT
BRANCH   5   8
ATOM      8  C   UNL     1      -2.424  -2.016  -0.961  0.00  0.00    +0.000 C 
ATOM      9  C   UNL     1      -3.236  -2.896   0.084  0.00  0.00    +0.000 C 
ATOM     10  C   UNL     1      -3.605  -1.835  -2.068  0.00  0.00    +0.000 C 
ENDBRANCH   5   8
BRANCH   6  11
ATOM     11  O   UNL     1       0.034  -1.071  -0.216  0.00  0.00    +0.000 OA
BRANCH  11  12
ATOM     12  C   UNL     1       1.313  -0.887   0.335  0.00  0.00    +0.000 A 
ATOM     13  C   UNL     1       1.687  -1.867   1.301  0.00  0.00    +0.000 A 
ATOM     14  C   UNL     1       2.882  -1.812   1.929  0.00  0.00    +0.000 A 
ATOM     15  C   UNL     1       3.756  -0.785   1.621  0.00  0.00    +0.000 A 
ATOM     16  C   UNL     1       3.418   0.190   0.674  0.00  0.00    +0.000 A 
ATOM     17  C   UNL     1       2.167   0.089   0.051  0.00  0.00    +0.000 A 
BRANCH  17  18
ATOM     18  N   UNL     1       1.775   1.073  -0.911  0.00  0.00    +0.000 NA
ATOM     19  C   UNL     1       2.751   2.096  -1.216  0.00  0.00    +0.000 C 
ATOM     20  O   UNL     1       3.841   2.066  -0.627  0.00  0.00    +0.000 OA
ENDBRANCH  17  18
ENDBRANCH  11  12
ENDBRANCH   6  11
TORSDOF 4
