REMARK  Name = 
REMARK  4 active torsions:
REMARK  status: ('A' for Active; 'I' for Inactive)
REMARK    1  A    between atoms: C_2  and  O_3
REMARK    2  A    between atoms: O_3  and  C_4
REMARK    3  A    between atoms: C_4  and  C_6
REMARK    4  A    between atoms: C_9  and  C_10
REMARK                            x       y       z     vdW  Elec       q    Type
REMARK                         _______ _______ _______ _____ _____    ______ ____
ROOT
ATOM      1  C   UNL     1      -1.231  -0.186  -0.120  0.00  0.00    +0.000 C 
ATOM      2  C   UNL     1      -0.326   0.583  -0.603  0.00  0.00    +0.000 C 
ATOM      3  C   UNL     1      -0.498   2.071  -0.390  0.00  0.00    +0.000 C 
ATOM      4  C   UNL     1       0.910   0.135  -1.374  0.00  0.00    +0.000 C 
ATOM      5  N   UNL     1       0.873  -1.327  -1.460  0.00  0.00    +0.000 NA
ATOM      6  C   UNL     1      -0.079  -2.134  -0.952  0.00  0.00    +0.000 C 
ATOM      7  O   UNL     1      -0.047  -3.405  -1.065  0.00  0.00    +0.000 OA
ATOM      8  N   UNL     1      -1.188  -1.601  -0.251  0.00  0.00    +0.000 N 
ATOM      9  C   UNL     1      -2.210  -2.455   0.296  0.00  0.00    +0.000 C 
ENDROOT
BRANCH   4  10
ATOM     10  C   UNL     1       2.015   0.420  -0.300  0.00  0.00    +0.000 A 
ATOM     11  C   UNL     1       1.937   1.617   0.347  0.00  0.00    +0.000 A 
ATOM     12  C   UNL     1       2.902   1.946   1.330  0.00  0.00    +0.000 A 
ATOM     13  C   UNL     1       3.888   1.038   1.596  0.00  0.00    +0.000 A 
ATOM     14  C   UNL     1       3.949  -0.152   0.940  0.00  0.00    +0.000 A 
ATOM     15  C   UNL     1       3.002  -0.441  -0.004  0.00  0.00    +0.000 A 
ATOM     16  F   UNL     1       2.992  -1.601  -0.701  0.00  0.00    +0.000 F 
ENDBRANCH   4  10
BRANCH   1  17
ATOM     17  C   UNL     1      -2.405   0.339   0.620  0.00  0.00    +0.000 C 
ATOM     18  O   UNL     1      -3.267  -0.438   1.077  0.00  0.00    +0.000 OA
BRANCH  17  19
ATOM     19  O   UNL     1      -2.572   1.697   0.821  0.00  0.00    +0.000 OA
BRANCH  19  21
ATOM     20  C   UNL     1      -4.947   1.719   0.758  0.00  0.00    +0.000 C 
ATOM     21  C   UNL     1      -3.700   2.174   1.529  0.00  0.00    +0.000 C 
ENDBRANCH  19  21
ENDBRANCH  17  19
ENDBRANCH   1  17
TORSDOF 4
