REMARK  Name = 
REMARK  3 active torsions:
REMARK  status: ('A' for Active; 'I' for Inactive)
REMARK    1  A    between atoms: N_10  and  C_11
REMARK    2  A    between atoms: C_11  and  N_13
REMARK    3  A    between atoms: N_13  and  C_14
REMARK                            x       y       z     vdW  Elec       q    Type
REMARK                         _______ _______ _______ _____ _____    ______ ____
ROOT
ATOM      1  O   UNL     1      -3.279  -2.739   0.000  0.00  0.00    +0.000 OA
ATOM      2  C   UNL     1      -2.942  -1.277   0.000  0.00  0.00    +0.000 C 
ATOM      3  C   UNL     1      -1.562  -0.691   0.000  0.00  0.00    +0.000 C 
ATOM      4  C   UNL     1      -3.023  -0.354   0.000  0.00  0.00    +0.000 C 
ATOM      5  C   UNL     1      -4.404  -0.940   0.000  0.00  0.00    +0.000 C 
ATOM      6  C   UNL     1      -5.388   0.192   0.000  0.00  0.00    +0.000 C 
ATOM      7  C   UNL     1      -4.616   1.478   0.000  0.00  0.00    +0.000 C 
ATOM      8  C   UNL     1      -3.154   1.141   0.000  0.00  0.00    +0.000 C 
ATOM      9  C   UNL     1      -1.774   1.727   0.000  0.00  0.00    +0.000 C 
ATOM     10  N   UNL     1      -0.789   0.595   0.000  0.00  0.00    +0.000 N 
ENDROOT
BRANCH  10  11
ATOM     11  C   UNL     1       0.705   0.726   0.000  0.00  0.00    +0.000 C 
ATOM     12  S   UNL     1       1.338   2.086   0.000  0.00  0.00    +0.000 S 
BRANCH  11  13
ATOM     13  N   UNL     1       1.565  -0.502   0.000  0.00  0.00    +0.000 NA
BRANCH  13  14
ATOM     14  C   UNL     1       3.060  -0.371   0.000  0.00  0.00    +0.000 A 
ATOM     15  C   UNL     1       3.920  -1.600   0.000  0.00  0.00    +0.000 A 
ATOM     16  C   UNL     1       5.415  -1.469   0.000  0.00  0.00    +0.000 A 
ATOM     17  C   UNL     1       6.048  -0.109   0.000  0.00  0.00    +0.000 A 
ATOM     18  C   UNL     1       5.188   1.119   0.000  0.00  0.00    +0.000 A 
ATOM     19  C   UNL     1       3.693   0.988   0.000  0.00  0.00    +0.000 A 
ENDBRANCH  13  14
ENDBRANCH  11  13
ENDBRANCH  10  11
TORSDOF 3
