REMARK  Name = 
REMARK  4 active torsions:
REMARK  status: ('A' for Active; 'I' for Inactive)
REMARK    1  A    between atoms: C_2  and  C_5
REMARK    2  A    between atoms: C_8  and  O_9
REMARK    3  A    between atoms: O_9  and  C_10
REMARK    4  A    between atoms: C_10  and  C_12
REMARK                            x       y       z     vdW  Elec       q    Type
REMARK                         _______ _______ _______ _____ _____    ______ ____
ROOT
ATOM      1  C   UNL     1       3.532   0.510   0.254  0.00  0.00    +0.000 A 
ATOM      2  C   UNL     1       2.857   0.125  -0.873  0.00  0.00    +0.000 A 
ATOM      3  C   UNL     1       1.460   0.104  -0.898  0.00  0.00    +0.000 A 
ATOM      4  C   UNL     1       0.713   0.471   0.218  0.00  0.00    +0.000 A 
ATOM      5  C   UNL     1       1.402   0.850   1.347  0.00  0.00    +0.000 A 
ATOM      6  C   UNL     1       2.793   0.869   1.370  0.00  0.00    +0.000 A 
ENDROOT
BRANCH   1   8
ATOM      7  C   UNL     1       5.563  -0.683   1.006  0.00  0.00    +0.000 C 
ATOM      8  C   UNL     1       5.035   0.566   0.271  0.00  0.00    +0.000 C 
ATOM      9  C   UNL     1       5.548   0.668  -1.117  0.00  0.00    +0.000 C 
ATOM     10  C   UNL     1       5.498   1.708   1.124  0.00  0.00    +0.000 C 
ENDBRANCH   1   8
BRANCH   4  11
ATOM     11  O   UNL     1      -0.678   0.466   0.190  0.00  0.00    +0.000 OA
BRANCH  11  12
ATOM     12  C   UNL     1      -1.414  -0.682  -0.031  0.00  0.00    +0.000 C 
ATOM     13  O   UNL     1      -0.796  -1.727  -0.244  0.00  0.00    +0.000 OA
BRANCH  12  14
ATOM     14  C   UNL     1      -2.874  -0.716  -0.034  0.00  0.00    +0.000 A 
ATOM     15  C   UNL     1      -3.550  -1.881  -0.324  0.00  0.00    +0.000 A 
ATOM     16  C   UNL     1      -4.942  -1.968  -0.303  0.00  0.00    +0.000 A 
ATOM     17  C   UNL     1      -5.671  -0.842   0.014  0.00  0.00    +0.000 A 
ATOM     18  C   UNL     1      -5.025   0.329   0.304  0.00  0.00    +0.000 A 
ATOM     19  N   UNL     1      -5.828   1.441   0.616  0.00  0.00    +0.000 NA
ATOM     20  C   UNL     1      -3.621   0.391   0.280  0.00  0.00    +0.000 A 
ENDBRANCH  12  14
ENDBRANCH  11  12
ENDBRANCH   4  11
TORSDOF 4
