REMARK  Name = 
REMARK  4 active torsions:
REMARK  status: ('A' for Active; 'I' for Inactive)
REMARK    1  A    between atoms: C_7  and  O_8
REMARK    2  A    between atoms: O_8  and  C_9
REMARK    3  A    between atoms: N_11  and  C_12
REMARK    4  A    between atoms: C_16  and  N_17
REMARK                            x       y       z     vdW  Elec       q    Type
REMARK                         _______ _______ _______ _____ _____    ______ ____
ROOT
ATOM      1  C   UNL     1       0.578  -0.601   0.615  0.00  0.00    +0.000 C 
ATOM      2  O   UNL     1       0.130   0.548   0.356  0.00  0.00    +0.000 OA
ATOM      3  N   UNL     1      -0.249  -1.746   0.498  0.00  0.00    +0.000 NA
ENDROOT
BRANCH   3   4
ATOM      4  C   UNL     1      -1.596  -1.557   0.080  0.00  0.00    +0.000 A 
ATOM      5  C   UNL     1      -2.460  -2.624  -0.057  0.00  0.00    +0.000 A 
ATOM      6  C   UNL     1      -3.780  -2.439  -0.466  0.00  0.00    +0.000 A 
ATOM      7  C   UNL     1      -4.248  -1.183  -0.744  0.00  0.00    +0.000 A 
ATOM      8  C   UNL     1      -3.414  -0.117  -0.616  0.00  0.00    +0.000 A 
ATOM      9  C   UNL     1      -2.105  -0.307  -0.208  0.00  0.00    +0.000 A 
BRANCH   8  10
ATOM     10  N   UNL     1      -3.870   1.191  -0.895  0.00  0.00    +0.000 N 
ATOM     11  O   UNL     1      -5.050   1.343  -1.260  0.00  0.00    +0.000 OA
ATOM     12  O   UNL     1      -3.046   2.279  -0.772  0.00  0.00    +0.000 OA
ENDBRANCH   8  10
ENDBRANCH   3   4
BRANCH   1  13
ATOM     13  O   UNL     1       1.888  -0.608   1.002  0.00  0.00    +0.000 OA
BRANCH  13  20
ATOM     14  C   UNL     1       4.232  -1.168   0.458  0.00  0.00    +0.000 C 
ATOM     15  C   UNL     1       4.093  -0.028   1.589  0.00  0.00    +0.000 C 
ATOM     16  C   UNL     1       5.112   0.992   0.883  0.00  0.00    +0.000 C 
ATOM     17  C   UNL     1       4.511   2.308   0.673  0.00  0.00    +0.000 C 
ATOM     18  C   UNL     1       3.617   2.213  -0.550  0.00  0.00    +0.000 C 
ATOM     19  C   UNL     1       3.012   0.810  -0.496  0.00  0.00    +0.000 C 
ATOM     20  C   UNL     1       2.645   0.694   1.081  0.00  0.00    +0.000 C 
ENDBRANCH  13  20
ENDBRANCH   1  13
TORSDOF 4
