REMARK  Name = 
REMARK  4 active torsions:
REMARK  status: ('A' for Active; 'I' for Inactive)
REMARK    1  A    between atoms: O_2  and  C_3
REMARK    2  A    between atoms: C_6  and  C_7
REMARK    3  A    between atoms: N_9  and  C_10
REMARK    4  A    between atoms: C_19  and  N_20
REMARK                            x       y       z     vdW  Elec       q    Type
REMARK                         _______ _______ _______ _____ _____    ______ ____
ROOT
ATOM      1  C   UNL     1       3.545   0.502  -0.149  0.00  0.00    +0.000 A 
ATOM      2  C   UNL     1       2.699   1.528   0.241  0.00  0.00    +0.000 A 
ATOM      3  C   UNL     1       1.314   1.336   0.242  0.00  0.00    +0.000 A 
ATOM      4  C   UNL     1       0.786   0.127  -0.144  0.00  0.00    +0.000 A 
ATOM      5  C   UNL     1       1.651  -0.870  -0.525  0.00  0.00    +0.000 A 
ATOM      6  C   UNL     1       3.022  -0.718  -0.539  0.00  0.00    +0.000 A 
ENDROOT
BRANCH   4   7
ATOM      7  C   UNL     1      -0.641  -0.136  -0.163  0.00  0.00    +0.000 C 
ATOM      8  O   UNL     1      -1.077  -1.251  -0.544  0.00  0.00    +0.000 OA
ATOM      9  N   UNL     1      -1.614   0.822   0.237  0.00  0.00    +0.000 NA
BRANCH   9  10
ATOM     10  C   UNL     1      -3.008   0.543   0.211  0.00  0.00    +0.000 A 
ATOM     11  C   UNL     1      -3.648  -0.004   1.310  0.00  0.00    +0.000 A 
ATOM     12  C   UNL     1      -2.841  -0.291   2.513  0.00  0.00    +0.000 C 
ATOM     13  C   UNL     1      -5.009  -0.280   1.297  0.00  0.00    +0.000 A 
ATOM     14  C   UNL     1      -5.756  -0.010   0.172  0.00  0.00    +0.000 A 
ATOM     15  C   UNL     1      -5.146   0.531  -0.927  0.00  0.00    +0.000 A 
ATOM     16  C   UNL     1      -3.784   0.801  -0.899  0.00  0.00    +0.000 A 
ATOM     17  C   UNL     1      -3.087   1.391  -2.080  0.00  0.00    +0.000 C 
ENDBRANCH   9  10
ENDBRANCH   4   7
BRANCH   6  18
ATOM     18  N   UNL     1       3.841  -1.799  -0.946  0.00  0.00    +0.000 N 
ATOM     19  O   UNL     1       4.930  -1.635  -1.523  0.00  0.00    +0.000 OA
ATOM     20  O   UNL     1       3.424  -3.087  -0.698  0.00  0.00    +0.000 OA
ENDBRANCH   6  18
BRANCH   1  22
ATOM     21  C   UNL     1       5.476   1.872   0.225  0.00  0.00    +0.000 C 
ATOM     22  O   UNL     1       4.924   0.629  -0.172  0.00  0.00    +0.000 OA
ENDBRANCH   1  22
TORSDOF 4
