REMARK  Name = 
REMARK  4 active torsions:
REMARK  status: ('A' for Active; 'I' for Inactive)
REMARK    1  A    between atoms: C_4  and  N_5
REMARK    2  A    between atoms: N_5  and  N_6
REMARK    3  A    between atoms: N_6  and  C_7
REMARK    4  A    between atoms: C_11  and  N_12
REMARK                            x       y       z     vdW  Elec       q    Type
REMARK                         _______ _______ _______ _____ _____    ______ ____
ROOT
ATOM      1  N   UNL     1       0.776  -1.373  -1.337  0.00  0.00    +0.000 NA
ENDROOT
BRANCH   1   5
ATOM      2  C   UNL     1       4.603   1.608  -1.024  0.00  0.00    +0.000 C 
ATOM      3  C   UNL     1       2.964   1.429  -1.041  0.00  0.00    +0.000 C 
ATOM      4  C   UNL     1       3.035  -0.214  -1.060  0.00  0.00    +0.000 C 
ATOM      5  C   UNL     1       1.730  -0.674  -0.553  0.00  0.00    +0.000 C 
ATOM      6  C   UNL     1       1.535  -0.366   0.720  0.00  0.00    +0.000 C 
ATOM      7  C   UNL     1       2.711   0.367   1.278  0.00  0.00    +0.000 C 
ATOM      8  C   UNL     1       3.940  -0.496   1.304  0.00  0.00    +0.000 C 
ATOM      9  C   UNL     1       2.377   0.699   2.712  0.00  0.00    +0.000 C 
ATOM     10  C   UNL     1       2.815   1.633   0.570  0.00  0.00    +0.000 C 
ENDBRANCH   1   5
BRANCH   1  11
ATOM     11  N   UNL     1      -0.214  -2.105  -0.730  0.00  0.00    +0.000 NA
BRANCH  11  12
ATOM     12  C   UNL     1      -1.449  -1.572  -0.270  0.00  0.00    +0.000 A 
ATOM     13  C   UNL     1      -2.346  -2.455   0.327  0.00  0.00    +0.000 A 
ATOM     14  C   UNL     1      -3.548  -1.960   0.779  0.00  0.00    +0.000 A 
ATOM     15  C   UNL     1      -3.893  -0.640   0.666  0.00  0.00    +0.000 A 
ATOM     16  C   UNL     1      -3.020   0.246   0.081  0.00  0.00    +0.000 A 
ATOM     17  C   UNL     1      -1.805  -0.254  -0.377  0.00  0.00    +0.000 A 
BRANCH  16  18
ATOM     18  N   UNL     1      -3.339   1.628  -0.057  0.00  0.00    +0.000 N 
ATOM     19  O   UNL     1      -4.436   2.023   0.367  0.00  0.00    +0.000 OA
ATOM     20  O   UNL     1      -2.436   2.478  -0.649  0.00  0.00    +0.000 OA
ENDBRANCH  16  18
ENDBRANCH  11  12
ENDBRANCH   1  11
TORSDOF 4
