REMARK  Name = 
REMARK  3 active torsions:
REMARK  status: ('A' for Active; 'I' for Inactive)
REMARK    1  A    between atoms: C_6  and  C_7
REMARK    2  A    between atoms: C_10  and  C_11
REMARK    3  A    between atoms: C_14  and  C_15
REMARK                            x       y       z     vdW  Elec       q    Type
REMARK                         _______ _______ _______ _____ _____    ______ ____
ROOT
ATOM      1  C   UNL     1      -0.967  -2.555  -2.078  0.00  0.00    +0.000 C 
ATOM      2  C   UNL     1      -1.776  -1.635  -1.189  0.00  0.00    +0.000 A 
ATOM      3  S   UNL     1      -3.459  -1.576  -0.966  0.00  0.00    +0.000 S 
ATOM      4  C   UNL     1      -3.535  -0.302   0.159  0.00  0.00    +0.000 A 
ATOM      5  N   UNL     1      -4.705   0.285   0.792  0.00  0.00    +0.000 NA
ATOM      6  C   UNL     1      -2.220   0.057   0.338  0.00  0.00    +0.000 A 
ATOM      7  C   UNL     1      -1.305  -0.647  -0.371  0.00  0.00    +0.000 A 
ENDROOT
BRANCH   7   8
ATOM      8  C   UNL     1       0.167  -0.379  -0.288  0.00  0.00    +0.000 A 
ATOM      9  C   UNL     1       0.777   0.392  -1.254  0.00  0.00    +0.000 A 
ATOM     10  C   UNL     1       2.140   0.627  -1.159  0.00  0.00    +0.000 A 
ATOM     11  C   UNL     1       2.908   0.119  -0.135  0.00  0.00    +0.000 A 
ATOM     12  C   UNL     1       2.291  -0.646   0.820  0.00  0.00    +0.000 A 
ATOM     13  C   UNL     1       0.915  -0.893   0.739  0.00  0.00    +0.000 A 
BRANCH  11  14
ATOM     14  C   UNL     1       4.366   0.412  -0.097  0.00  0.00    +0.000 C 
ATOM     15  C   UNL     1       4.769   0.969   1.254  0.00  0.00    +0.000 C 
ATOM     16  C   UNL     1       4.819   1.262  -1.231  0.00  0.00    +0.000 C 
ENDBRANCH  11  14
ENDBRANCH   7   8
BRANCH   6  17
ATOM     17  C   UNL     1      -1.886   1.170   1.280  0.00  0.00    +0.000 C 
ATOM     18  N   UNL     1      -0.537   1.548   1.472  0.00  0.00    +0.000 NA
ATOM     19  O   UNL     1      -2.762   1.792   1.914  0.00  0.00    +0.000 OA
ENDBRANCH   6  17
TORSDOF 3
