REMARK  Name = 
REMARK  3 active torsions:
REMARK  status: ('A' for Active; 'I' for Inactive)
REMARK    1  A    between atoms: O_2  and  C_3
REMARK    2  A    between atoms: C_6  and  C_7
REMARK    3  A    between atoms: C_19  and  O_20
REMARK                            x       y       z     vdW  Elec       q    Type
REMARK                         _______ _______ _______ _____ _____    ______ ____
ROOT
ATOM      1  C   UNL     1       0.539  -0.328  -0.703  0.00  0.00    +0.000 A 
ATOM      2  C   UNL     1       1.168  -0.670  -1.878  0.00  0.00    +0.000 A 
ATOM      3  N   UNL     1       2.503  -0.761  -2.004  0.00  0.00    +0.000 NA
ATOM      4  C   UNL     1       3.257  -0.496  -0.903  0.00  0.00    +0.000 A 
ATOM      5  C   UNL     1       4.604  -0.488  -0.663  0.00  0.00    +0.000 A 
ATOM      6  C   UNL     1       4.820  -0.143   0.653  0.00  0.00    +0.000 A 
ATOM      7  C   UNL     1       6.104  -0.001   1.382  0.00  0.00    +0.000 C 
ATOM      8  N   UNL     1       3.600   0.054   1.197  0.00  0.00    +0.000 NA
ATOM      9  N   UNL     1       2.670  -0.159   0.259  0.00  0.00    +0.000 N 
ATOM     10  C   UNL     1       1.333  -0.065   0.397  0.00  0.00    +0.000 A 
ATOM     11  N   UNL     1       0.713   0.295   1.637  0.00  0.00    +0.000 NA
ENDROOT
BRANCH   1  15
ATOM     12  C   UNL     1      -3.696  -0.107  -0.411  0.00  0.00    +0.000 A 
ATOM     13  C   UNL     1      -3.078  -1.164  -1.048  0.00  0.00    +0.000 A 
ATOM     14  C   UNL     1      -1.693  -1.222  -1.135  0.00  0.00    +0.000 A 
ATOM     15  C   UNL     1      -0.917  -0.237  -0.594  0.00  0.00    +0.000 A 
ATOM     16  C   UNL     1      -1.542   0.817   0.042  0.00  0.00    +0.000 A 
ATOM     17  C   UNL     1      -2.935   0.896   0.142  0.00  0.00    +0.000 A 
BRANCH  12  19
ATOM     18  C   UNL     1      -5.861  -1.096  -0.901  0.00  0.00    +0.000 C 
ATOM     19  O   UNL     1      -5.062  -0.077  -0.340  0.00  0.00    +0.000 OA
ENDBRANCH  12  19
BRANCH  17  20
ATOM     20  O   UNL     1      -3.582   1.932   0.768  0.00  0.00    +0.000 OA
ATOM     21  C   UNL     1      -2.946   3.021   1.376  0.00  0.00    +0.000 C 
ENDBRANCH  17  20
ENDBRANCH   1  15
TORSDOF 3
