REMARK  Name = 
REMARK  4 active torsions:
REMARK  status: ('A' for Active; 'I' for Inactive)
REMARK    1  A    between atoms: C_2  and  C_3
REMARK    2  A    between atoms: C_3  and  C_4
REMARK    3  A    between atoms: C_7  and  C_8
REMARK    4  A    between atoms: C_11  and  C_12
REMARK                            x       y       z     vdW  Elec       q    Type
REMARK                         _______ _______ _______ _____ _____    ______ ____
ROOT
ATOM      1  C   UNL     1       3.395  -0.716   0.009  0.00  0.00    +0.000 A 
ATOM      2  C   UNL     1       2.691  -0.863  -1.145  0.00  0.00    +0.000 A 
ATOM      3  C   UNL     1       1.311  -0.643  -1.165  0.00  0.00    +0.000 A 
ATOM      4  C   UNL     1       0.638  -0.273  -0.020  0.00  0.00    +0.000 A 
ATOM      5  C   UNL     1       1.402  -0.137   1.128  0.00  0.00    +0.000 A 
ATOM      6  C   UNL     1       2.759  -0.350   1.165  0.00  0.00    +0.000 A 
ENDROOT
BRANCH   4   7
ATOM      7  C   UNL     1      -0.810  -0.028   0.016  0.00  0.00    +0.000 A 
ATOM      8  C   UNL     1      -1.488   0.480  -1.072  0.00  0.00    +0.000 A 
ATOM      9  C   UNL     1      -2.858   0.713  -1.041  0.00  0.00    +0.000 A 
ATOM     10  C   UNL     1      -3.600   0.442   0.090  0.00  0.00    +0.000 A 
ATOM     11  C   UNL     1      -2.919  -0.065   1.171  0.00  0.00    +0.000 A 
ATOM     12  C   UNL     1      -1.559  -0.296   1.143  0.00  0.00    +0.000 A 
BRANCH  10  13
ATOM     13  C   UNL     1      -5.036   0.693   0.101  0.00  0.00    +0.000 C 
ATOM     14  N   UNL     1      -5.818   0.410   1.252  0.00  0.00    +0.000 NA
ATOM     15  O   UNL     1      -5.642   1.166  -0.893  0.00  0.00    +0.000 OA
ENDBRANCH  10  13
ENDBRANCH   4   7
BRANCH   1  16
ATOM     16  C   UNL     1       4.857  -0.945   0.055  0.00  0.00    +0.000 C 
BRANCH  16  18
ATOM     17  C   UNL     1       7.076   0.091  -0.195  0.00  0.00    +0.000 C 
ATOM     18  C   UNL     1       5.600   0.322  -0.240  0.00  0.00    +0.000 C 
ENDBRANCH  16  18
ENDBRANCH   1  16
TORSDOF 4
