REMARK  Name = 
REMARK  5 active torsions:
REMARK  status: ('A' for Active; 'I' for Inactive)
REMARK    1  A    between atoms: C_2  and  C_3
REMARK    2  A    between atoms: C_3  and  C_4
REMARK    3  A    between atoms: C_4  and  N_5
REMARK    4  A    between atoms: C_8  and  C_9
REMARK    5  A    between atoms: C_12  and  N_13
REMARK                            x       y       z     vdW  Elec       q    Type
REMARK                         _______ _______ _______ _____ _____    ______ ____
ROOT
ATOM      1  N   UNL     1       3.591   0.552   1.101  0.00  0.00    +0.000 NA
ATOM      2  C   UNL     1       2.492  -0.177   0.495  0.00  0.00    +0.000 A 
ATOM      3  N   UNL     1       1.208   0.093   0.556  0.00  0.00    +0.000 NA
ATOM      4  C   UNL     1       0.351  -0.675  -0.053  0.00  0.00    +0.000 A 
ATOM      5  C   UNL     1       0.870  -1.752  -0.739  0.00  0.00    +0.000 A 
ATOM      6  S   UNL     1       2.542  -1.586  -0.463  0.00  0.00    +0.000 S 
ENDROOT
BRANCH   4   7
ATOM      7  C   UNL     1      -1.113  -0.406  -0.010  0.00  0.00    +0.000 A 
ATOM      8  C   UNL     1      -1.648   0.665   0.671  0.00  0.00    +0.000 A 
ATOM      9  C   UNL     1      -3.013   0.898   0.698  0.00  0.00    +0.000 A 
ATOM     10  C   UNL     1      -3.896   0.067   0.043  0.00  0.00    +0.000 A 
ATOM     11  C   UNL     1      -3.364  -1.007  -0.640  0.00  0.00    +0.000 A 
ATOM     12  C   UNL     1      -2.000  -1.232  -0.661  0.00  0.00    +0.000 A 
BRANCH  10  13
ATOM     13  N   UNL     1      -5.308   0.306   0.070  0.00  0.00    +0.000 N 
ATOM     14  O   UNL     1      -6.138  -0.415  -0.504  0.00  0.00    +0.000 OA
ATOM     15  O   UNL     1      -5.765   1.389   0.767  0.00  0.00    +0.000 OA
ENDBRANCH  10  13
ENDBRANCH   4   7
BRANCH   1  16
ATOM     16  C   UNL     1       4.925   0.013   0.862  0.00  0.00    +0.000 C 
BRANCH  16  17
ATOM     17  C   UNL     1       5.142   0.021  -0.636  0.00  0.00    +0.000 C 
BRANCH  17  19
ATOM     18  C   UNL     1       6.093   2.263  -0.428  0.00  0.00    +0.000 C 
ATOM     19  C   UNL     1       5.031   1.454  -1.129  0.00  0.00    +0.000 C 
ENDBRANCH  17  19
ENDBRANCH  16  17
ENDBRANCH   1  16
TORSDOF 5
