REMARK  Name = 
REMARK  2 active torsions:
REMARK  status: ('A' for Active; 'I' for Inactive)
REMARK    1  A    between atoms: C_2  and  C_4
REMARK    2  A    between atoms: C_13  and  C_14
REMARK                            x       y       z     vdW  Elec       q    Type
REMARK                         _______ _______ _______ _____ _____    ______ ____
ROOT
ATOM      1  C   UNL     1      -3.748   0.324   0.114  0.00  0.00    +0.000 A 
ATOM      2  C   UNL     1      -3.666  -0.914   0.710  0.00  0.00    +0.000 A 
ATOM      3  C   UNL     1      -2.423  -1.533   0.846  0.00  0.00    +0.000 A 
ATOM      4  C   UNL     1      -1.273  -0.884   0.371  0.00  0.00    +0.000 A 
ATOM      5  C   UNL     1      -1.436   0.334  -0.204  0.00  0.00    +0.000 A 
ATOM      6  C   UNL     1      -2.671   0.911  -0.320  0.00  0.00    +0.000 A 
ATOM      7  S   UNL     1       0.004   1.188  -0.818  0.00  0.00    +0.000 S 
ATOM      8  C   UNL     1       1.361   0.095  -0.466  0.00  0.00    +0.000 A 
ATOM      9  C   UNL     1       2.611   0.494  -0.831  0.00  0.00    +0.000 A 
ATOM     10  C   UNL     1       3.696  -0.313  -0.582  0.00  0.00    +0.000 A 
ATOM     11  C   UNL     1       3.562  -1.483   0.011  0.00  0.00    +0.000 A 
ATOM     12  C   UNL     1       2.308  -1.906   0.388  0.00  0.00    +0.000 A 
ATOM     13  C   UNL     1       1.177  -1.114   0.153  0.00  0.00    +0.000 A 
ATOM     14  O   UNL     1      -0.061  -1.534   0.526  0.00  0.00    +0.000 OA
ENDROOT
BRANCH   1  16
ATOM     15  C   UNL     1      -5.138   1.304  -1.565  0.00  0.00    +0.000 C 
ATOM     16  C   UNL     1      -5.243   0.856   0.055  0.00  0.00    +0.000 C 
ATOM     17  O   UNL     1      -4.961   2.305   0.524  0.00  0.00    +0.000 OA
ENDBRANCH   1  16
BRANCH  10  18
ATOM     18  C   UNL     1       5.139   0.235  -1.053  0.00  0.00    +0.000 C 
ATOM     19  C   UNL     1       4.927   1.808  -0.535  0.00  0.00    +0.000 C 
ATOM     20  O   UNL     1       5.835  -0.173   0.260  0.00  0.00    +0.000 OA
ENDBRANCH  10  18
TORSDOF 2
