REMARK  Name = 
REMARK  4 active torsions:
REMARK  status: ('A' for Active; 'I' for Inactive)
REMARK    1  A    between atoms: C_2  and  N_3
REMARK    2  A    between atoms: C_2  and  C_16
REMARK    3  A    between atoms: N_5  and  C_6
REMARK    4  A    between atoms: N_8  and  C_9
REMARK                            x       y       z     vdW  Elec       q    Type
REMARK                         _______ _______ _______ _____ _____    ______ ____
ROOT
ATOM      1  N   UNL     1      -1.743  -0.312   0.781  0.00  0.00    +0.000 NA
ATOM      2  C   UNL     1      -0.367  -0.372   0.426  0.00  0.00    +0.000 C 
ATOM      3  N   UNL     1       0.032  -0.909  -0.673  0.00  0.00    +0.000 NA
ATOM      4  N   UNL     1       0.681   0.140   1.265  0.00  0.00    +0.000 NA
ENDROOT
BRANCH   4   5
ATOM      5  C   UNL     1       2.019   0.274   0.815  0.00  0.00    +0.000 A 
ATOM      6  C   UNL     1       2.468  -0.059  -0.442  0.00  0.00    +0.000 A 
ATOM      7  C   UNL     1       3.810   0.107  -0.801  0.00  0.00    +0.000 A 
ATOM      8  C   UNL     1       4.735   0.609   0.087  0.00  0.00    +0.000 A 
ATOM      9  F   UNL     1       6.044   0.767  -0.277  0.00  0.00    +0.000 F 
ATOM     10  C   UNL     1       4.286   0.943   1.345  0.00  0.00    +0.000 A 
ATOM     11  C   UNL     1       2.943   0.776   1.703  0.00  0.00    +0.000 A 
ENDBRANCH   4   5
BRANCH   1  13
ATOM     12  C   UNL     1      -2.338   1.000  -1.073  0.00  0.00    +0.000 C 
ATOM     13  C   UNL     1      -2.764  -0.409  -0.386  0.00  0.00    +0.000 C 
BRANCH  13  14
ATOM     14  C   UNL     1      -4.017   0.149   0.463  0.00  0.00    +0.000 C 
ATOM     15  C   UNL     1      -4.593  -1.046   1.214  0.00  0.00    +0.000 C 
ATOM     16  C   UNL     1      -5.036   0.524  -0.591  0.00  0.00    +0.000 C 
ATOM     17  C   UNL     1      -3.638   1.217   1.369  0.00  0.00    +0.000 C 
ENDBRANCH  13  14
ENDBRANCH   1  13
BRANCH   3  18
ATOM     18  C   UNL     1      -0.889  -1.461  -1.568  0.00  0.00    +0.000 C 
ATOM     19  N   UNL     1      -1.633  -1.940  -2.327  0.00  0.00    +0.000 NA
ENDBRANCH   3  18
TORSDOF 4
