REMARK  Name = 
REMARK  3 active torsions:
REMARK  status: ('A' for Active; 'I' for Inactive)
REMARK    1  A    between atoms: C_2  and  C_10
REMARK    2  A    between atoms: N_3  and  C_4
REMARK    3  A    between atoms: C_4  and  C_5
REMARK                            x       y       z     vdW  Elec       q    Type
REMARK                         _______ _______ _______ _____ _____    ______ ____
ROOT
ATOM      1  C   UNL     1      -0.352   0.187  -0.375  0.00  0.00    +0.000 A 
ATOM      2  C   UNL     1      -1.389  -0.280   0.377  0.00  0.00    +0.000 A 
ATOM      3  C   UNL     1      -2.491   0.460   0.464  0.00  0.00    +0.000 A 
ATOM      4  C   UNL     1      -2.505   1.652  -0.214  0.00  0.00    +0.000 A 
ATOM      5  S   UNL     1      -0.965   1.675  -0.945  0.00  0.00    +0.000 S 
ATOM      6  C   UNL     1      -3.540   2.724  -0.348  0.00  0.00    +0.000 C 
ATOM      7  C   UNL     1      -4.923   2.091  -0.350  0.00  0.00    +0.000 C 
ATOM      8  C   UNL     1      -4.855   0.657  -0.823  0.00  0.00    +0.000 C 
ATOM      9  C   UNL     1      -4.785  -0.328   0.304  0.00  0.00    +0.000 C 
ATOM     10  C   UNL     1      -3.682   0.001   1.283  0.00  0.00    +0.000 C 
ENDROOT
BRANCH   1  12
ATOM     11  O   UNL     1       1.804   0.131  -1.347  0.00  0.00    +0.000 OA
ATOM     12  C   UNL     1       0.963  -0.444  -0.625  0.00  0.00    +0.000 C 
ATOM     13  N   UNL     1       1.295  -1.697  -0.059  0.00  0.00    +0.000 NA
BRANCH  13  14
ATOM     14  C   UNL     1       2.543  -2.367  -0.256  0.00  0.00    +0.000 C 
BRANCH  14  15
ATOM     15  C   UNL     1       3.686  -1.552   0.231  0.00  0.00    +0.000 A 
ATOM     16  C   UNL     1       4.271  -1.519   1.480  0.00  0.00    +0.000 A 
ATOM     17  C   UNL     1       5.307  -0.592   1.432  0.00  0.00    +0.000 A 
ATOM     18  C   UNL     1       5.288  -0.106   0.125  0.00  0.00    +0.000 A 
ATOM     19  O   UNL     1       4.332  -0.696  -0.521  0.00  0.00    +0.000 OA
ENDBRANCH  14  15
ENDBRANCH  13  14
ENDBRANCH   1  12
TORSDOF 3
