REMARK  Name = 
REMARK  5 active torsions:
REMARK  status: ('A' for Active; 'I' for Inactive)
REMARK    1  A    between atoms: C_2  and  O_5
REMARK    2  A    between atoms: O_5  and  C_6
REMARK    3  A    between atoms: N_8  and  C_9
REMARK    4  A    between atoms: C_9  and  C_10
REMARK    5  A    between atoms: C_10  and  C_11
REMARK                            x       y       z     vdW  Elec       q    Type
REMARK                         _______ _______ _______ _____ _____    ______ ____
ROOT
ATOM      1  C   UNL     1      -0.351   0.624   1.766  0.00  0.00    +0.000 C 
ENDROOT
BRANCH   1   2
ATOM      2  C   UNL     1      -1.106  -0.186   0.780  0.00  0.00    +0.000 A 
ATOM      3  C   UNL     1      -0.616  -1.257   0.082  0.00  0.00    +0.000 A 
ATOM      4  N   UNL     1      -1.597  -1.714  -0.701  0.00  0.00    +0.000 NA
ATOM      5  C   UNL     1      -2.687  -0.960  -0.511  0.00  0.00    +0.000 A 
ATOM      6  C   UNL     1      -3.951  -1.033  -1.087  0.00  0.00    +0.000 A 
ATOM      7  C   UNL     1      -4.902  -0.115  -0.705  0.00  0.00    +0.000 A 
ATOM      8  C   UNL     1      -4.622   0.861   0.228  0.00  0.00    +0.000 A 
ATOM      9  C   UNL     1      -3.378   0.957   0.814  0.00  0.00    +0.000 A 
ATOM     10  C   UNL     1      -2.429   0.018   0.414  0.00  0.00    +0.000 A 
ENDBRANCH   1   2
BRANCH   1  11
ATOM     11  C   UNL     1       0.003   1.931   1.047  0.00  0.00    +0.000 C 
BRANCH  11  14
ATOM     12  C   UNL     1       2.021   0.792   0.212  0.00  0.00    +0.000 C 
ATOM     13  O   UNL     1       2.342   0.565   1.423  0.00  0.00    +0.000 OA
ATOM     14  N   UNL     1       0.813   1.503  -0.105  0.00  0.00    +0.000 NA
BRANCH  12  15
ATOM     15  O   UNL     1       2.890   0.322  -0.759  0.00  0.00    +0.000 OA
BRANCH  15  17
ATOM     16  C   UNL     1       3.733  -1.634   0.363  0.00  0.00    +0.000 C 
ATOM     17  C   UNL     1       4.087  -0.383  -0.415  0.00  0.00    +0.000 C 
ATOM     18  C   UNL     1       4.800  -0.765  -1.693  0.00  0.00    +0.000 C 
ATOM     19  C   UNL     1       4.948   0.473   0.494  0.00  0.00    +0.000 C 
ENDBRANCH  15  17
ENDBRANCH  12  15
ENDBRANCH  11  14
ENDBRANCH   1  11
TORSDOF 5
