REMARK  Name = 
REMARK  3 active torsions:
REMARK  status: ('A' for Active; 'I' for Inactive)
REMARK    1  A    between atoms: C_8  and  O_9
REMARK    2  A    between atoms: O_9  and  C_10
REMARK    3  A    between atoms: C_15  and  N_16
REMARK                            x       y       z     vdW  Elec       q    Type
REMARK                         _______ _______ _______ _____ _____    ______ ____
ROOT
ATOM      1  O   UNL     1       0.599  -1.168   0.456  0.00  0.00    +0.000 OA
ENDROOT
BRANCH   1   9
ATOM      2  C   UNL     1       2.296   2.960  -1.685  0.00  0.00    +0.000 C 
ATOM      3  C   UNL     1       2.472   1.708  -0.926  0.00  0.00    +0.000 A 
ATOM      4  C   UNL     1       3.740   1.353  -0.516  0.00  0.00    +0.000 A 
ATOM      5  C   UNL     1       3.940   0.197   0.191  0.00  0.00    +0.000 A 
ATOM      6  C   UNL     1       5.346  -0.110   0.595  0.00  0.00    +0.000 C 
ATOM      7  C   UNL     1       2.893  -0.622   0.503  0.00  0.00    +0.000 A 
ATOM      8  C   UNL     1       3.203  -1.857   1.274  0.00  0.00    +0.000 C 
ATOM      9  C   UNL     1       1.615  -0.300   0.111  0.00  0.00    +0.000 A 
ATOM     10  C   UNL     1       1.429   0.864  -0.599  0.00  0.00    +0.000 A 
ENDBRANCH   1   9
BRANCH   1  11
ATOM     11  C   UNL     1      -0.737  -0.927   0.103  0.00  0.00    +0.000 A 
ATOM     12  C   UNL     1      -1.221  -1.408  -1.091  0.00  0.00    +0.000 A 
ATOM     13  C   UNL     1      -2.521  -1.209  -1.502  0.00  0.00    +0.000 A 
ATOM     14  N   UNL     1      -3.050  -1.693  -2.728  0.00  0.00    +0.000 NA
ATOM     15  C   UNL     1      -3.333  -0.494  -0.648  0.00  0.00    +0.000 A 
ATOM     16  C   UNL     1      -2.897   0.011   0.561  0.00  0.00    +0.000 A 
ATOM     17  C   UNL     1      -1.593  -0.222   0.911  0.00  0.00    +0.000 A 
BRANCH  16  18
ATOM     18  N   UNL     1      -3.792   0.740   1.390  0.00  0.00    +0.000 N 
ATOM     19  O   UNL     1      -4.957   0.908   1.004  0.00  0.00    +0.000 OA
ATOM     20  O   UNL     1      -3.431   1.268   2.597  0.00  0.00    +0.000 OA
ENDBRANCH  16  18
ENDBRANCH   1  11
TORSDOF 3
