REMARK  Name = 
REMARK  2 active torsions:
REMARK  status: ('A' for Active; 'I' for Inactive)
REMARK    1  A    between atoms: O_2  and  C_3
REMARK    2  A    between atoms: C_8  and  C_9
REMARK                            x       y       z     vdW  Elec       q    Type
REMARK                         _______ _______ _______ _____ _____    ______ ____
ROOT
ATOM      1  C   UNL     1      -0.527  -0.119   1.541  0.00  0.00    +0.000 C 
ATOM      2  C   UNL     1      -0.956   1.450   1.516  0.00  0.00    +0.000 C 
ATOM      3  C   UNL     1       0.216   2.273   1.760  0.00  0.00    +0.000 C 
ATOM      4  O   UNL     1       0.125   3.133   2.689  0.00  0.00    +0.000 OA
ATOM      5  N   UNL     1       1.378   2.090   0.976  0.00  0.00    +0.000 NA
ATOM      6  C   UNL     1       1.595   0.812   0.449  0.00  0.00    +0.000 A 
ATOM      7  C   UNL     1       2.752   0.578  -0.369  0.00  0.00    +0.000 A 
ATOM      8  C   UNL     1       2.962  -0.677  -0.904  0.00  0.00    +0.000 A 
ATOM      9  C   UNL     1       4.151  -0.943  -1.753  0.00  0.00    +0.000 C 
ATOM     10  C   UNL     1       2.075  -1.689  -0.658  0.00  0.00    +0.000 A 
ATOM     11  C   UNL     1       2.296  -3.018  -1.224  0.00  0.00    +0.000 C 
ATOM     12  C   UNL     1       0.970  -1.419   0.139  0.00  0.00    +0.000 A 
ATOM     13  C   UNL     1       0.752  -0.172   0.677  0.00  0.00    +0.000 A 
ENDROOT
BRANCH   1  19
ATOM     14  C   UNL     1      -1.835   0.184  -0.567  0.00  0.00    +0.000 A 
ATOM     15  C   UNL     1      -2.792  -0.186  -1.541  0.00  0.00    +0.000 A 
ATOM     16  C   UNL     1      -3.479  -1.362  -1.349  0.00  0.00    +0.000 A 
ATOM     17  C   UNL     1      -3.242  -2.136  -0.263  0.00  0.00    +0.000 A 
ATOM     18  C   UNL     1      -2.309  -1.747   0.659  0.00  0.00    +0.000 A 
ATOM     19  C   UNL     1      -1.618  -0.614   0.515  0.00  0.00    +0.000 A 
BRANCH  14  21
ATOM     20  C   UNL     1      -1.373   2.186  -1.879  0.00  0.00    +0.000 C 
ATOM     21  O   UNL     1      -1.141   1.378  -0.765  0.00  0.00    +0.000 OA
ENDBRANCH  14  21
ENDBRANCH   1  19
TORSDOF 2
