REMARK  Name = 
REMARK  9 active torsions:
REMARK  status: ('A' for Active; 'I' for Inactive)
REMARK    1  A    between atoms: O_2  and  C_3
REMARK    2  A    between atoms: C_6  and  N_7
REMARK    3  A    between atoms: C_9  and  C_10
REMARK    4  A    between atoms: C_10  and  O_12
REMARK    5  A    between atoms: O_12  and  C_13
REMARK    6  A    between atoms: C_13  and  C_14
REMARK    7  A    between atoms: C_14  and  C_15
REMARK    8  A    between atoms: C_15  and  N_16
REMARK    9  A    between atoms: N_16  and  C_18
REMARK                            x       y       z     vdW  Elec       q    Type
REMARK                         _______ _______ _______ _____ _____    ______ ____
ROOT
ATOM      1  N   UNL     1      -2.653  -0.386  -1.059  0.00  0.00    +0.000 N 
ATOM      2  C   UNL     1      -1.944  -1.585  -1.290  0.00  0.00    +0.000 C 
ATOM      3  C   UNL     1      -0.569  -1.156  -1.966  0.00  0.00    +0.000 C 
ATOM      4  C   UNL     1      -1.142   0.145  -2.753  0.00  0.00    +0.000 C 
ATOM      5  C   UNL     1      -2.024   0.698  -1.726  0.00  0.00    +0.000 C 
ATOM      6  O   UNL     1      -2.209   1.883  -1.465  0.00  0.00    +0.000 OA
ENDROOT
BRANCH   1  10
ATOM      7  C   UNL     1      -6.331  -0.144   0.886  0.00  0.00    +0.000 A 
ATOM      8  C   UNL     1      -5.183  -0.162   1.653  0.00  0.00    +0.000 A 
ATOM      9  C   UNL     1      -3.919  -0.241   1.075  0.00  0.00    +0.000 A 
ATOM     10  C   UNL     1      -3.834  -0.301  -0.278  0.00  0.00    +0.000 A 
ATOM     11  C   UNL     1      -5.007  -0.284  -1.037  0.00  0.00    +0.000 A 
ATOM     12  C   UNL     1      -6.264  -0.205  -0.479  0.00  0.00    +0.000 A 
BRANCH   7  14
ATOM     13  C   UNL     1      -8.776  -0.042   0.701  0.00  0.00    +0.000 C 
ATOM     14  O   UNL     1      -7.589  -0.063   1.470  0.00  0.00    +0.000 OA
ENDBRANCH   7  14
ENDBRANCH   1  10
BRANCH   3  15
ATOM     15  C   UNL     1       0.060  -0.400  -0.722  0.00  0.00    +0.000 C 
ATOM     16  O   UNL     1      -0.456  -0.561   0.395  0.00  0.00    +0.000 OA
BRANCH  15  17
ATOM     17  O   UNL     1       1.159   0.397  -0.951  0.00  0.00    +0.000 OA
BRANCH  17  18
ATOM     18  C   UNL     1       1.753   1.072   0.131  0.00  0.00    +0.000 C 
BRANCH  18  19
ATOM     19  C   UNL     1       2.239  -0.012   1.089  0.00  0.00    +0.000 C 
BRANCH  19  20
ATOM     20  C   UNL     1       3.263  -0.914   0.374  0.00  0.00    +0.000 C 
BRANCH  20  21
ATOM     21  N   UNL     1       4.319  -0.013  -0.029  0.00  0.00    +0.000 N 
ATOM     22  C   UNL     1       4.061   0.975  -1.069  0.00  0.00    +0.000 C 
BRANCH  21  23
ATOM     23  C   UNL     1       5.578  -0.089   0.581  0.00  0.00    +0.000 A 
ATOM     24  C   UNL     1       5.881  -0.995   1.555  0.00  0.00    +0.000 A 
ATOM     25  C   UNL     1       7.117  -1.048   2.154  0.00  0.00    +0.000 A 
ATOM     26  C   UNL     1       8.083  -0.172   1.769  0.00  0.00    +0.000 A 
ATOM     27  C   UNL     1       7.801   0.750   0.790  0.00  0.00    +0.000 A 
ATOM     28  C   UNL     1       6.583   0.807   0.199  0.00  0.00    +0.000 A 
ENDBRANCH  21  23
ENDBRANCH  20  21
ENDBRANCH  19  20
ENDBRANCH  18  19
ENDBRANCH  17  18
ENDBRANCH  15  17
ENDBRANCH   3  15
TORSDOF 9
