REMARK  Name = 
REMARK  2 active torsions:
REMARK  status: ('A' for Active; 'I' for Inactive)
REMARK    1  A    between atoms: C_5  and  C_6
REMARK    2  A    between atoms: C_6  and  C_7
REMARK                            x       y       z     vdW  Elec       q    Type
REMARK                         _______ _______ _______ _____ _____    ______ ____
ROOT
ATOM      1  C   UNL     1      -0.288  -0.889   0.216  0.00  0.00    +0.000 C 
ATOM      2  C   UNL     1      -0.600  -1.662  -0.990  0.00  0.00    +0.000 C 
ATOM      3  C   UNL     1      -0.945  -3.075  -0.881  0.00  0.00    +0.000 C 
ATOM      4  C   UNL     1      -1.111  -3.645   0.472  0.00  0.00    +0.000 C 
ATOM      5  C   UNL     1      -0.045  -3.098   1.397  0.00  0.00    +0.000 C 
ATOM      6  C   UNL     1      -0.343  -1.605   1.516  0.00  0.00    +0.000 C 
ENDROOT
BRANCH   1  11
ATOM      7  O   UNL     1      -3.761   3.625   0.510  0.00  0.00    +0.000 OA
ATOM      8  C   UNL     1      -2.914   2.529   0.442  0.00  0.00    +0.000 A 
ATOM      9  C   UNL     1      -2.906   1.712  -0.657  0.00  0.00    +0.000 A 
ATOM     10  C   UNL     1      -2.066   0.596  -0.761  0.00  0.00    +0.000 A 
ATOM     11  C   UNL     1      -1.211   0.297   0.271  0.00  0.00    +0.000 A 
ATOM     12  C   UNL     1      -1.224   1.128   1.378  0.00  0.00    +0.000 A 
ATOM     13  C   UNL     1      -2.050   2.231   1.488  0.00  0.00    +0.000 A 
ENDBRANCH   1  11
BRANCH   1  14
ATOM     14  C   UNL     1       1.116  -0.359   0.074  0.00  0.00    +0.000 A 
ATOM     15  C   UNL     1       1.656   0.463   1.040  0.00  0.00    +0.000 A 
ATOM     16  C   UNL     1       2.937   0.957   0.945  0.00  0.00    +0.000 A 
ATOM     17  C   UNL     1       3.690   0.614  -0.149  0.00  0.00    +0.000 A 
ATOM     18  O   UNL     1       4.998   1.067  -0.328  0.00  0.00    +0.000 OA
ATOM     19  C   UNL     1       3.166  -0.204  -1.119  0.00  0.00    +0.000 A 
ATOM     20  C   UNL     1       1.901  -0.683  -1.010  0.00  0.00    +0.000 A 
ENDBRANCH   1  14
TORSDOF 2
