REMARK  Name = 
REMARK  1 active torsions:
REMARK  status: ('A' for Active; 'I' for Inactive)
REMARK    1  A    between atoms: C_10  and  C_11
REMARK                            x       y       z     vdW  Elec       q    Type
REMARK                         _______ _______ _______ _____ _____    ______ ____
ROOT
ATOM      1  C   UNL     1       4.430  -2.639   0.859  0.00  0.00    +0.000 C 
ATOM      2  C   UNL     1       3.427  -1.565   0.546  0.00  0.00    +0.000 A 
ATOM      3  C   UNL     1       3.850  -0.298   0.219  0.00  0.00    +0.000 A 
ATOM      4  C   UNL     1       2.950   0.731  -0.078  0.00  0.00    +0.000 A 
ATOM      5  C   UNL     1       1.601   0.492  -0.048  0.00  0.00    +0.000 A 
ATOM      6  C   UNL     1       1.185  -0.793   0.285  0.00  0.00    +0.000 A 
ATOM      7  C   UNL     1       2.073  -1.809   0.578  0.00  0.00    +0.000 A 
ATOM      8  C   UNL     1      -0.181  -1.024   0.312  0.00  0.00    +0.000 A 
ATOM      9  O   UNL     1      -0.594  -2.178   0.611  0.00  0.00    +0.000 OA
ATOM     10  C   UNL     1      -1.082  -0.049   0.029  0.00  0.00    +0.000 A 
ATOM     11  C   UNL     1      -0.584   1.200  -0.292  0.00  0.00    +0.000 A 
ATOM     12  O   UNL     1      -1.523   2.200  -0.583  0.00  0.00    +0.000 OA
ATOM     13  N   UNL     1       0.723   1.463  -0.330  0.00  0.00    +0.000 N 
ATOM     14  C   UNL     1       1.155   2.814  -0.696  0.00  0.00    +0.000 C 
ATOM     15  C   UNL     1       2.517   2.749  -1.374  0.00  0.00    +0.000 C 
ATOM     16  C   UNL     1       3.459   2.079  -0.411  0.00  0.00    +0.000 C 
ENDROOT
BRANCH  10  17
ATOM     17  C   UNL     1      -2.517  -0.299   0.057  0.00  0.00    +0.000 A 
ATOM     18  C   UNL     1      -3.138  -0.860  -1.033  0.00  0.00    +0.000 A 
ATOM     19  C   UNL     1      -4.493  -1.128  -1.081  0.00  0.00    +0.000 A 
ATOM     20  C   UNL     1      -5.278  -0.826   0.007  0.00  0.00    +0.000 A 
ATOM     21  C   UNL     1      -4.679  -0.264   1.111  0.00  0.00    +0.000 A 
ATOM     22  C   UNL     1      -3.301   0.004   1.146  0.00  0.00    +0.000 A 
ENDBRANCH  10  17
TORSDOF 1
