REMARK  Name = 
REMARK  3 active torsions:
REMARK  status: ('A' for Active; 'I' for Inactive)
REMARK    1  A    between atoms: N_7  and  C_8
REMARK    2  A    between atoms: C_8  and  N_10
REMARK    3  A    between atoms: N_10  and  C_11
REMARK                            x       y       z     vdW  Elec       q    Type
REMARK                         _______ _______ _______ _____ _____    ______ ____
ROOT
ATOM      1  C   UNL     1      -0.033   0.035   1.697  0.00  0.00    +0.000 C 
ATOM      2  S   UNL     1      -1.000   0.103   2.995  0.00  0.00    +0.000 S 
ENDROOT
BRANCH   1   9
ATOM      3  C   UNL     1       5.874  -0.279   0.130  0.00  0.00    +0.000 C 
ATOM      4  C   UNL     1       4.388  -0.209  -0.100  0.00  0.00    +0.000 A 
ATOM      5  C   UNL     1       3.906  -0.205  -1.397  0.00  0.00    +0.000 A 
ATOM      6  C   UNL     1       2.559  -0.143  -1.630  0.00  0.00    +0.000 A 
ATOM      7  C   UNL     1       1.706  -0.085  -0.568  0.00  0.00    +0.000 A 
ATOM      8  C   UNL     1       2.204  -0.089   0.728  0.00  0.00    +0.000 A 
ATOM      9  N   UNL     1       1.360  -0.030   1.863  0.00  0.00    +0.000 NA
ATOM     10  N   UNL     1       3.525  -0.151   0.927  0.00  0.00    +0.000 NA
ENDBRANCH   1   9
BRANCH   1  11
ATOM     11  N   UNL     1      -0.596   0.043   0.408  0.00  0.00    +0.000 NA
BRANCH  11  12
ATOM     12  C   UNL     1      -1.977   0.107   0.132  0.00  0.00    +0.000 A 
ATOM     13  C   UNL     1      -2.648   1.309  -0.032  0.00  0.00    +0.000 A 
ATOM     14  C   UNL     1      -1.829   2.555   0.100  0.00  0.00    +0.000 C 
ATOM     15  C   UNL     1      -3.998   1.351  -0.302  0.00  0.00    +0.000 A 
ATOM     16  C   UNL     1      -4.686   0.171  -0.410  0.00  0.00    +0.000 A 
ATOM     17  C   UNL     1      -4.072  -1.058  -0.257  0.00  0.00    +0.000 A 
ATOM     18  C   UNL     1      -2.715  -1.065   0.014  0.00  0.00    +0.000 A 
ATOM     19  C   UNL     1      -1.969  -2.359   0.195  0.00  0.00    +0.000 C 
ENDBRANCH  11  12
ENDBRANCH   1  11
TORSDOF 3
