REMARK  Name = 
REMARK  3 active torsions:
REMARK  status: ('A' for Active; 'I' for Inactive)
REMARK    1  A    between atoms: O_2  and  C_3
REMARK    2  A    between atoms: C_8  and  N_9
REMARK    3  A    between atoms: C_10  and  C_12
REMARK                            x       y       z     vdW  Elec       q    Type
REMARK                         _______ _______ _______ _____ _____    ______ ____
ROOT
ATOM      1  N   UNL     1      -0.611   0.006  -0.044  0.00  0.00    +0.000 NA
ATOM      2  C   UNL     1       0.235   0.236  -1.127  0.00  0.00    +0.000 C 
ATOM      3  O   UNL     1      -0.286   0.418  -2.253  0.00  0.00    +0.000 OA
ENDROOT
BRANCH   2   4
ATOM      4  C   UNL     1       1.710   0.262  -0.942  0.00  0.00    +0.000 A 
ATOM      5  C   UNL     1       2.494   0.492  -2.041  0.00  0.00    +0.000 A 
ATOM      6  N   UNL     1       2.131   0.724  -3.409  0.00  0.00    +0.000 NA
ATOM      7  S   UNL     1       4.072   0.445  -1.421  0.00  0.00    +0.000 S 
ATOM      8  C   UNL     1       3.716   0.134   0.220  0.00  0.00    +0.000 A 
ATOM      9  C   UNL     1       2.358   0.076   0.241  0.00  0.00    +0.000 A 
ATOM     10  C   UNL     1       1.927  -0.197   1.685  0.00  0.00    +0.000 C 
ATOM     11  C   UNL     1       3.156  -0.735   2.330  0.00  0.00    +0.000 C 
ATOM     12  C   UNL     1       4.316  -0.092   1.595  0.00  0.00    +0.000 C 
ENDBRANCH   2   4
BRANCH   1  18
ATOM     13  C   UNL     1      -2.704  -0.281   1.081  0.00  0.00    +0.000 A 
ATOM     14  C   UNL     1      -4.072  -0.335   1.072  0.00  0.00    +0.000 A 
ATOM     15  C   UNL     1      -4.811  -0.158  -0.076  0.00  0.00    +0.000 A 
ATOM     16  C   UNL     1      -4.141   0.081  -1.253  0.00  0.00    +0.000 A 
ATOM     17  C   UNL     1      -2.771   0.136  -1.249  0.00  0.00    +0.000 A 
ATOM     18  C   UNL     1      -2.018  -0.038  -0.113  0.00  0.00    +0.000 A 
BRANCH  13  20
ATOM     19  C   UNL     1      -2.700  -0.707   3.446  0.00  0.00    +0.000 C 
ATOM     20  O   UNL     1      -2.002  -0.465   2.257  0.00  0.00    +0.000 OA
ENDBRANCH  13  20
ENDBRANCH   1  18
TORSDOF 3
