REMARK  Name = 
REMARK  2 active torsions:
REMARK  status: ('A' for Active; 'I' for Inactive)
REMARK    1  A    between atoms: C_2  and  C_3
REMARK    2  A    between atoms: C_13  and  C_14
REMARK                            x       y       z     vdW  Elec       q    Type
REMARK                         _______ _______ _______ _____ _____    ______ ____
ROOT
ATOM      1  C   UNL     1       0.853   1.555   0.356  0.00  0.00    +0.000 C 
ATOM      2  C   UNL     1       1.763   1.570  -0.552  0.00  0.00    +0.000 C 
ATOM      3  N   UNL     1       2.260   2.827  -1.082  0.00  0.00    +0.000 NA
ATOM      4  O   UNL     1       2.329   0.420  -1.085  0.00  0.00    +0.000 OA
ATOM      5  C   UNL     1       1.850  -0.771  -0.575  0.00  0.00    +0.000 C 
ATOM      6  C   UNL     1       0.940  -0.889   0.335  0.00  0.00    +0.000 C 
ATOM      7  C   UNL     1       0.494  -2.253   0.816  0.00  0.00    +0.000 C 
ATOM      8  C   UNL     1       1.593  -3.211   0.759  0.00  0.00    +0.000 C 
ATOM      9  C   UNL     1       2.857  -2.802   0.097  0.00  0.00    +0.000 C 
ATOM     10  C   UNL     1       2.489  -2.025  -1.178  0.00  0.00    +0.000 C 
ATOM     11  C   UNL     1       0.279   0.313   0.963  0.00  0.00    +0.000 C 
ENDROOT
BRANCH  11  12
ATOM     12  C   UNL     1      -1.134   0.245   0.352  0.00  0.00    +0.000 A 
ATOM     13  C   UNL     1      -1.775   1.348  -0.049  0.00  0.00    +0.000 A 
ATOM     14  C   UNL     1      -3.050   1.280  -0.598  0.00  0.00    +0.000 A 
ATOM     15  C   UNL     1      -3.641   0.061  -0.724  0.00  0.00    +0.000 A 
ATOM     16  C   UNL     1      -3.012  -1.092  -0.323  0.00  0.00    +0.000 A 
ATOM     17  F   UNL     1      -3.583  -2.310  -0.440  0.00  0.00    +0.000 F 
ATOM     18  C   UNL     1      -1.728  -0.960   0.224  0.00  0.00    +0.000 A 
ENDBRANCH  11  12
BRANCH   1  20
ATOM     19  N   UNL     1      -0.107   3.847   1.239  0.00  0.00    +0.000 NA
ATOM     20  C   UNL     1       0.321   2.847   0.853  0.00  0.00    +0.000 C 
ENDBRANCH   1  20
TORSDOF 2
