REMARK  Name = 
REMARK  3 active torsions:
REMARK  status: ('A' for Active; 'I' for Inactive)
REMARK    1  A    between atoms: C_6  and  C_7
REMARK    2  A    between atoms: C_11  and  N_12
REMARK    3  A    between atoms: C_13  and  C_15
REMARK                            x       y       z     vdW  Elec       q    Type
REMARK                         _______ _______ _______ _____ _____    ______ ____
ROOT
ATOM      1  C   UNL     1      -0.205   1.410  -2.882  0.00  0.00    +0.000 C 
ATOM      2  C   UNL     1      -1.033   0.989  -1.722  0.00  0.00    +0.000 A 
ATOM      3  C   UNL     1      -2.417   1.193  -1.720  0.00  0.00    +0.000 A 
ATOM      4  C   UNL     1      -3.163   0.795  -0.636  0.00  0.00    +0.000 A 
ATOM      5  O   UNL     1      -4.540   0.968  -0.568  0.00  0.00    +0.000 OA
ATOM      6  C   UNL     1      -2.545   0.198   0.443  0.00  0.00    +0.000 A 
ATOM      7  C   UNL     1      -1.166  -0.001   0.431  0.00  0.00    +0.000 A 
ATOM      8  C   UNL     1      -0.395   0.393  -0.653  0.00  0.00    +0.000 A 
ENDROOT
BRANCH   6   9
ATOM      9  C   UNL     1      -3.340  -0.229   1.604  0.00  0.00    +0.000 C 
ATOM     10  C   UNL     1      -2.448  -0.855   2.653  0.00  0.00    +0.000 C 
ATOM     11  C   UNL     1      -4.413  -1.229   1.253  0.00  0.00    +0.000 C 
ENDBRANCH   6   9
BRANCH   8  12
ATOM     12  N   UNL     1       1.013   0.208  -0.703  0.00  0.00    +0.000 NA
ATOM     13  C   UNL     1       1.767  -0.385   0.323  0.00  0.00    +0.000 C 
ATOM     14  O   UNL     1       1.173  -0.783   1.359  0.00  0.00    +0.000 OA
BRANCH  13  15
ATOM     15  C   UNL     1       3.213  -0.570   0.260  0.00  0.00    +0.000 A 
ATOM     16  C   UNL     1       4.044  -1.129   1.188  0.00  0.00    +0.000 A 
ATOM     17  C   UNL     1       5.316  -1.078   0.677  0.00  0.00    +0.000 A 
ATOM     18  C   UNL     1       5.192  -0.480  -0.556  0.00  0.00    +0.000 A 
ATOM     19  O   UNL     1       3.947  -0.204  -0.751  0.00  0.00    +0.000 OA
ENDBRANCH  13  15
ENDBRANCH   8  12
TORSDOF 3
