REMARK  Name = 
REMARK  4 active torsions:
REMARK  status: ('A' for Active; 'I' for Inactive)
REMARK    1  A    between atoms: C_2  and  C_3
REMARK    2  A    between atoms: C_6  and  C_7
REMARK    3  A    between atoms: N_8  and  N_9
REMARK    4  A    between atoms: C_10  and  C_12
REMARK                            x       y       z     vdW  Elec       q    Type
REMARK                         _______ _______ _______ _____ _____    ______ ____
ROOT
ATOM      1  C   UNL     1       0.867   1.057   0.291  0.00  0.00    +0.000 C 
ATOM      2  N   UNL     1       0.056   0.094   0.425  0.00  0.00    +0.000 NA
ENDROOT
BRANCH   1   6
ATOM      3  C   UNL     1       5.120   0.561  -0.010  0.00  0.00    +0.000 A 
ATOM      4  C   UNL     1       4.544   1.814  -0.054  0.00  0.00    +0.000 A 
ATOM      5  C   UNL     1       3.172   1.952   0.044  0.00  0.00    +0.000 A 
ATOM      6  C   UNL     1       2.328   0.870   0.189  0.00  0.00    +0.000 A 
ATOM      7  C   UNL     1       2.912  -0.379   0.233  0.00  0.00    +0.000 A 
ATOM      8  C   UNL     1       4.282  -0.526   0.135  0.00  0.00    +0.000 A 
BRANCH   3  10
ATOM      9  C   UNL     1       6.983   0.251  -1.583  0.00  0.00    +0.000 C 
ATOM     10  C   UNL     1       6.598   0.406  -0.116  0.00  0.00    +0.000 C 
ENDBRANCH   3  10
ENDBRANCH   1   6
BRANCH   2  11
ATOM     11  N   UNL     1      -1.337   0.232   0.525  0.00  0.00    +0.000 NA
ATOM     12  C   UNL     1      -2.245  -0.792   0.219  0.00  0.00    +0.000 C 
ATOM     13  O   UNL     1      -1.792  -1.900  -0.167  0.00  0.00    +0.000 OA
BRANCH  12  14
ATOM     14  C   UNL     1      -3.705  -0.620   0.334  0.00  0.00    +0.000 A 
ATOM     15  C   UNL     1      -4.692  -1.514   0.074  0.00  0.00    +0.000 A 
ATOM     16  C   UNL     1      -5.906  -0.907   0.324  0.00  0.00    +0.000 A 
ATOM     17  C   UNL     1      -7.281  -1.459   0.193  0.00  0.00    +0.000 C 
ATOM     18  N   UNL     1      -5.605   0.339   0.727  0.00  0.00    +0.000 NA
ATOM     19  N   UNL     1      -4.300   0.520   0.736  0.00  0.00    +0.000 NA
ENDBRANCH  12  14
ENDBRANCH   2  11
TORSDOF 4
