REMARK  Name = 
REMARK  3 active torsions:
REMARK  status: ('A' for Active; 'I' for Inactive)
REMARK    1  A    between atoms: C_2  and  C_3
REMARK    2  A    between atoms: C_3  and  N_4
REMARK    3  A    between atoms: C_11  and  C_12
REMARK                            x       y       z     vdW  Elec       q    Type
REMARK                         _______ _______ _______ _____ _____    ______ ____
ROOT
ATOM      1  N   UNL     1       2.359   1.099   0.025  0.00  0.00    +0.000 N 
ATOM      2  C   UNL     1       3.277   0.988   1.097  0.00  0.00    +0.000 C 
ATOM      3  O   UNL     1       4.356   1.636   1.026  0.00  0.00    +0.000 OA
ATOM      4  N   UNL     1       3.053   0.197   2.238  0.00  0.00    +0.000 NA
ATOM      5  C   UNL     1       1.858  -0.544   2.359  0.00  0.00    +0.000 C 
ATOM      6  O   UNL     1       1.591  -1.269   3.345  0.00  0.00    +0.000 OA
ATOM      7  C   UNL     1       0.850  -0.478   1.280  0.00  0.00    +0.000 C 
ATOM      8  C   UNL     1      -0.245  -1.183   1.338  0.00  0.00    +0.000 C 
ATOM      9  C   UNL     1       1.139   0.353   0.129  0.00  0.00    +0.000 C 
ATOM     10  O   UNL     1       0.336   0.454  -0.828  0.00  0.00    +0.000 OA
ENDROOT
BRANCH   8  11
ATOM     11  C   UNL     1      -1.263  -1.158   0.334  0.00  0.00    +0.000 A 
ATOM     12  C   UNL     1      -1.617  -2.219  -0.513  0.00  0.00    +0.000 A 
ATOM     13  N   UNL     1      -2.659  -1.872  -1.287  0.00  0.00    +0.000 N 
ATOM     14  C   UNL     1      -3.326  -2.691  -2.298  0.00  0.00    +0.000 C 
ATOM     15  C   UNL     1      -3.030  -0.611  -0.998  0.00  0.00    +0.000 A 
ATOM     16  C   UNL     1      -4.046   0.195  -1.499  0.00  0.00    +0.000 A 
ATOM     17  C   UNL     1      -4.204   1.467  -0.988  0.00  0.00    +0.000 A 
ATOM     18  C   UNL     1      -3.375   1.915  -0.010  0.00  0.00    +0.000 A 
ATOM     19  C   UNL     1      -2.385   1.123   0.473  0.00  0.00    +0.000 A 
ATOM     20  C   UNL     1      -2.178  -0.163  -0.003  0.00  0.00    +0.000 A 
ENDBRANCH   8  11
BRANCH   1  21
ATOM     21  C   UNL     1       2.606   1.925  -1.154  0.00  0.00    +0.000 C 
BRANCH  21  23
ATOM     22  C   UNL     1       3.598  -0.221  -1.910  0.00  0.00    +0.000 C 
ATOM     23  C   UNL     1       3.305   1.058  -2.158  0.00  0.00    +0.000 C 
ENDBRANCH  21  23
ENDBRANCH   1  21
TORSDOF 3
