REMARK  Name = 
REMARK  4 active torsions:
REMARK  status: ('A' for Active; 'I' for Inactive)
REMARK    1  A    between atoms: C_2  and  C_5
REMARK    2  A    between atoms: C_10  and  O_11
REMARK    3  A    between atoms: O_11  and  C_12
REMARK    4  A    between atoms: C_17  and  N_18
REMARK                            x       y       z     vdW  Elec       q    Type
REMARK                         _______ _______ _______ _____ _____    ______ ____
ROOT
ATOM      1  C   UNL     1       2.296  -0.081   0.047  0.00  0.00    +0.000 A 
ATOM      2  C   UNL     1       3.089  -0.271   1.157  0.00  0.00    +0.000 A 
ATOM      3  C   UNL     1       2.559  -0.707   2.355  0.00  0.00    +0.000 A 
ATOM      4  C   UNL     1       1.198  -0.953   2.422  0.00  0.00    +0.000 A 
ATOM      5  C   UNL     1       0.443  -0.757   1.315  0.00  0.00    +0.000 A 
ATOM      6  C   UNL     1       0.966  -0.316   0.094  0.00  0.00    +0.000 A 
ENDROOT
BRANCH   1   8
ATOM      7  C   UNL     1       2.249   1.717  -1.603  0.00  0.00    +0.000 C 
ATOM      8  C   UNL     1       2.906   0.389  -1.224  0.00  0.00    +0.000 C 
ATOM      9  C   UNL     1       2.694  -0.569  -2.348  0.00  0.00    +0.000 C 
ATOM     10  C   UNL     1       4.407   0.580  -1.034  0.00  0.00    +0.000 C 
ENDBRANCH   1   8
BRANCH   6  11
ATOM     11  O   UNL     1       0.101  -0.150  -0.976  0.00  0.00    +0.000 OA
BRANCH  11  12
ATOM     12  C   UNL     1      -1.256  -0.401  -0.871  0.00  0.00    +0.000 A 
ATOM     13  C   UNL     1      -1.900  -1.357  -1.647  0.00  0.00    +0.000 A 
ATOM     14  C   UNL     1      -3.245  -1.597  -1.535  0.00  0.00    +0.000 A 
ATOM     15  C   UNL     1      -4.038  -0.904  -0.648  0.00  0.00    +0.000 A 
ATOM     16  C   UNL     1      -3.419   0.046   0.127  0.00  0.00    +0.000 A 
ATOM     17  C   UNL     1      -2.059   0.289   0.015  0.00  0.00    +0.000 A 
BRANCH  17  18
ATOM     18  N   UNL     1      -1.404   1.274   0.811  0.00  0.00    +0.000 NA
ATOM     19  C   UNL     1      -2.188   2.008   1.736  0.00  0.00    +0.000 C 
ATOM     20  O   UNL     1      -3.398   1.759   1.808  0.00  0.00    +0.000 OA
ENDBRANCH  17  18
ENDBRANCH  11  12
ENDBRANCH   6  11
TORSDOF 4
