REMARK  Name = 
REMARK  1 active torsions:
REMARK  status: ('A' for Active; 'I' for Inactive)
REMARK    1  A    between atoms: C_5  and  C_7
REMARK                            x       y       z     vdW  Elec       q    Type
REMARK                         _______ _______ _______ _____ _____    ______ ____
ROOT
ATOM      1  C   UNL     1       1.761   2.981   1.124  0.00  0.00    +0.000 C 
ATOM      2  C   UNL     1       1.284   2.251  -0.126  0.00  0.00    +0.000 C 
ATOM      3  C   UNL     1       1.601   3.046  -1.371  0.00  0.00    +0.000 C 
ATOM      4  C   UNL     1      -0.176   2.000   0.035  0.00  0.00    +0.000 C 
ATOM      5  C   UNL     1      -0.186   0.723   0.857  0.00  0.00    +0.000 C 
ATOM      6  C   UNL     1      -0.070   1.032   2.341  0.00  0.00    +0.000 C 
ATOM      7  C   UNL     1       1.033   0.014   0.354  0.00  0.00    +0.000 A 
ATOM      8  C   UNL     1       1.333  -1.338   0.416  0.00  0.00    +0.000 A 
ATOM      9  C   UNL     1       2.516  -1.780  -0.120  0.00  0.00    +0.000 A 
ATOM     10  O   UNL     1       2.832  -3.137  -0.065  0.00  0.00    +0.000 OA
ATOM     11  C   UNL     1       3.418  -0.907  -0.724  0.00  0.00    +0.000 A 
ATOM     12  C   UNL     1       3.086   0.425  -0.767  0.00  0.00    +0.000 A 
ATOM     13  C   UNL     1       1.887   0.912  -0.229  0.00  0.00    +0.000 A 
ENDROOT
BRANCH   5  14
ATOM     14  C   UNL     1      -1.401  -0.034   0.529  0.00  0.00    +0.000 A 
ATOM     15  C   UNL     1      -1.659  -1.296   1.035  0.00  0.00    +0.000 A 
ATOM     16  C   UNL     1      -2.816  -1.933   0.681  0.00  0.00    +0.000 A 
ATOM     17  C   UNL     1      -3.735  -1.368  -0.160  0.00  0.00    +0.000 A 
ATOM     18  O   UNL     1      -4.895  -2.007  -0.515  0.00  0.00    +0.000 OA
ATOM     19  C   UNL     1      -3.484  -0.098  -0.675  0.00  0.00    +0.000 A 
ATOM     20  C   UNL     1      -2.332   0.516  -0.311  0.00  0.00    +0.000 A 
ENDBRANCH   5  14
TORSDOF 1
