REMARK  Name = 
REMARK  3 active torsions:
REMARK  status: ('A' for Active; 'I' for Inactive)
REMARK    1  A    between atoms: C_7  and  N_8
REMARK    2  A    between atoms: N_8  and  N_9
REMARK    3  A    between atoms: C_10  and  C_12
REMARK                            x       y       z     vdW  Elec       q    Type
REMARK                         _______ _______ _______ _____ _____    ______ ____
ROOT
ATOM      1  N   UNL     1       0.016   1.302  -0.306  0.00  0.00    +0.000 NA
ATOM      2  C   UNL     1       0.834   0.144  -0.228  0.00  0.00    +0.000 C 
ATOM      3  O   UNL     1       0.351  -0.970  -0.496  0.00  0.00    +0.000 OA
ENDROOT
BRANCH   2   4
ATOM      4  C   UNL     1       2.232   0.266   0.166  0.00  0.00    +0.000 A 
ATOM      5  C   UNL     1       2.753   1.501   0.461  0.00  0.00    +0.000 A 
ATOM      6  C   UNL     1       4.077   1.603   0.831  0.00  0.00    +0.000 A 
ATOM      7  C   UNL     1       4.868   0.447   0.899  0.00  0.00    +0.000 A 
ATOM      8  C   UNL     1       4.351  -0.790   0.605  0.00  0.00    +0.000 A 
ATOM      9  C   UNL     1       3.011  -0.857   0.235  0.00  0.00    +0.000 A 
ATOM     10  O   UNL     1       2.432  -2.097  -0.075  0.00  0.00    +0.000 OA
ENDBRANCH   2   4
BRANCH   1  11
ATOM     11  N   UNL     1      -1.298   1.179  -0.682  0.00  0.00    +0.000 NA
BRANCH  11  18
ATOM     12  C   UNL     1      -3.328   1.903   0.836  0.00  0.00    +0.000 C 
ATOM     13  C   UNL     1      -3.208   0.287   0.839  0.00  0.00    +0.000 C 
ATOM     14  C   UNL     1      -4.565   0.101  -0.087  0.00  0.00    +0.000 C 
ATOM     15  C   UNL     1      -4.653  -1.378  -0.362  0.00  0.00    +0.000 C 
ATOM     16  C   UNL     1      -3.319  -1.951  -0.787  0.00  0.00    +0.000 C 
ATOM     17  C   UNL     1      -2.333  -0.888  -1.105  0.00  0.00    +0.000 C 
ATOM     18  C   UNL     1      -2.221   0.198  -0.383  0.00  0.00    +0.000 C 
ENDBRANCH  11  18
ENDBRANCH   1  11
TORSDOF 3
