REMARK  Name = 
REMARK  4 active torsions:
REMARK  status: ('A' for Active; 'I' for Inactive)
REMARK    1  A    between atoms: C_10  and  C_11
REMARK    2  A    between atoms: C_11  and  C_12
REMARK    3  A    between atoms: C_11  and  C_16
REMARK    4  A    between atoms: C_12  and  N_13
REMARK                            x       y       z     vdW  Elec       q    Type
REMARK                         _______ _______ _______ _____ _____    ______ ____
ROOT
ATOM      1  C   UNL     1      -0.157   1.229  -0.748  0.00  0.00    +0.000 C 
ENDROOT
BRANCH   1  11
ATOM      2  C   UNL     1       1.210   1.190   2.094  0.00  0.00    +0.000 C 
ATOM      3  C   UNL     1       1.629   0.343   0.941  0.00  0.00    +0.000 A 
ATOM      4  N   UNL     1       2.639  -0.542   0.974  0.00  0.00    +0.000 NA
ATOM      5  C   UNL     1       2.716  -1.110  -0.237  0.00  0.00    +0.000 A 
ATOM      6  C   UNL     1       3.562  -2.068  -0.739  0.00  0.00    +0.000 A 
ATOM      7  C   UNL     1       3.438  -2.494  -2.036  0.00  0.00    +0.000 A 
ATOM      8  C   UNL     1       2.462  -1.953  -2.826  0.00  0.00    +0.000 A 
ATOM      9  C   UNL     1       1.628  -1.002  -2.316  0.00  0.00    +0.000 A 
ATOM     10  C   UNL     1       1.716  -0.553  -1.040  0.00  0.00    +0.000 A 
ATOM     11  C   UNL     1       1.034   0.369  -0.274  0.00  0.00    +0.000 A 
ENDBRANCH   1  11
BRANCH   1  12
ATOM     12  C   UNL     1      -1.300   0.617   0.105  0.00  0.00    +0.000 A 
ATOM     13  C   UNL     1      -1.608   0.992   1.356  0.00  0.00    +0.000 A 
ATOM     14  C   UNL     1      -2.656   0.390   2.061  0.00  0.00    +0.000 A 
ATOM     15  C   UNL     1      -3.380  -0.604   1.452  0.00  0.00    +0.000 A 
ATOM     16  C   UNL     1      -3.087  -1.010   0.166  0.00  0.00    +0.000 A 
ATOM     17  C   UNL     1      -2.033  -0.366  -0.467  0.00  0.00    +0.000 A 
ATOM     18  O   UNL     1      -3.949  -2.022  -0.233  0.00  0.00    +0.000 OA
ATOM     19  C   UNL     1      -5.059  -1.989   0.678  0.00  0.00    +0.000 C 
ATOM     20  O   UNL     1      -4.468  -1.420   1.820  0.00  0.00    +0.000 OA
ENDBRANCH   1  12
BRANCH   1  21
ATOM     21  C   UNL     1       0.125   2.532   0.182  0.00  0.00    +0.000 C 
BRANCH  21  22
ATOM     22  N   UNL     1       1.450   2.978  -0.222  0.00  0.00    +0.000 N 
ATOM     23  O   UNL     1       2.130   2.420  -1.089  0.00  0.00    +0.000 OA
ATOM     24  O   UNL     1       1.958   4.072   0.398  0.00  0.00    +0.000 OA
ENDBRANCH  21  22
ENDBRANCH   1  21
TORSDOF 4
