REMARK  Name = 
REMARK  4 active torsions:
REMARK  status: ('A' for Active; 'I' for Inactive)
REMARK    1  A    between atoms: C_2  and  C_5
REMARK    2  A    between atoms: C_8  and  C_9
REMARK    3  A    between atoms: C_9  and  S_10
REMARK    4  A    between atoms: S_10  and  C_11
REMARK                            x       y       z     vdW  Elec       q    Type
REMARK                         _______ _______ _______ _____ _____    ______ ____
ROOT
ATOM      1  C   UNL     1       2.417   0.712  -0.423  0.00  0.00    +0.000 A 
ATOM      2  C   UNL     1       2.735  -0.611  -0.348  0.00  0.00    +0.000 A 
ATOM      3  C   UNL     1       1.879  -1.629  -0.754  0.00  0.00    +0.000 A 
ATOM      4  C   UNL     1       0.621  -1.282  -1.273  0.00  0.00    +0.000 A 
ATOM      5  C   UNL     1       0.305   0.037  -1.351  0.00  0.00    +0.000 A 
ATOM      6  C   UNL     1       1.168   1.051  -0.943  0.00  0.00    +0.000 A 
ENDROOT
BRANCH   1   8
ATOM      7  C   UNL     1       2.968   2.337   1.351  0.00  0.00    +0.000 C 
ATOM      8  C   UNL     1       3.386   1.766   0.022  0.00  0.00    +0.000 C 
ATOM      9  C   UNL     1       4.770   1.176   0.131  0.00  0.00    +0.000 C 
ATOM     10  C   UNL     1       3.377   2.882  -0.986  0.00  0.00    +0.000 C 
ENDBRANCH   1   8
BRANCH   4  11
ATOM     11  C   UNL     1      -0.295  -2.374  -1.706  0.00  0.00    +0.000 C 
BRANCH  11  12
ATOM     12  S   UNL     1      -1.393  -2.869  -0.360  0.00  0.00    +0.000 S 
BRANCH  12  13
ATOM     13  C   UNL     1      -2.557  -1.523  -0.030  0.00  0.00    +0.000 A 
ATOM     14  N   UNL     1      -3.757  -1.365  -0.589  0.00  0.00    +0.000 NA
ATOM     15  N   UNL     1      -4.468  -0.370  -0.274  0.00  0.00    +0.000 NA
ATOM     16  C   UNL     1      -4.015   0.515   0.613  0.00  0.00    +0.000 A 
ATOM     17  N   UNL     1      -4.664   1.710   1.095  0.00  0.00    +0.000 NA
ATOM     18  S   UNL     1      -2.477  -0.165   0.987  0.00  0.00    +0.000 S 
ENDBRANCH  12  13
ENDBRANCH  11  12
ENDBRANCH   4  11
TORSDOF 4
