REMARK  Name = 
REMARK  2 active torsions:
REMARK  status: ('A' for Active; 'I' for Inactive)
REMARK    1  A    between atoms: C_5  and  O_6
REMARK    2  A    between atoms: O_6  and  C_7
REMARK                            x       y       z     vdW  Elec       q    Type
REMARK                         _______ _______ _______ _____ _____    ______ ____
ROOT
ATOM      1  C   UNL     1      -0.100  -1.538  -0.236  0.00  0.00    +0.000 A 
ATOM      2  N   UNL     1       0.241  -2.824  -0.035  0.00  0.00    +0.000 NA
ATOM      3  C   UNL     1      -0.335  -3.619   0.851  0.00  0.00    +0.000 A 
ATOM      4  N   UNL     1      -1.330  -3.118   1.608  0.00  0.00    +0.000 NA
ATOM      5  C   UNL     1      -1.695  -1.826   1.429  0.00  0.00    +0.000 A 
ATOM      6  S   UNL     1      -2.894  -0.838   2.182  0.00  0.00    +0.000 S 
ATOM      7  C   UNL     1      -2.630   0.612   1.328  0.00  0.00    +0.000 A 
ATOM      8  C   UNL     1      -1.612   0.290   0.474  0.00  0.00    +0.000 A 
ATOM      9  C   UNL     1      -1.132  -0.973   0.531  0.00  0.00    +0.000 A 
ATOM     10  C   UNL     1      -1.225   1.480  -0.392  0.00  0.00    +0.000 C 
ATOM     11  C   UNL     1      -2.505   1.877  -1.105  0.00  0.00    +0.000 C 
ATOM     12  C   UNL     1      -3.551   2.392  -0.137  0.00  0.00    +0.000 C 
ATOM     13  C   UNL     1      -3.175   2.001   1.282  0.00  0.00    +0.000 C 
ENDROOT
BRANCH   1  14
ATOM     14  O   UNL     1       0.580  -0.813  -1.195  0.00  0.00    +0.000 OA
BRANCH  14  19
ATOM     15  N   UNL     1       4.912   2.345   0.513  0.00  0.00    +0.000 NA
ATOM     16  C   UNL     1       3.819   1.540   0.125  0.00  0.00    +0.000 A 
ATOM     17  C   UNL     1       3.095   0.792   1.018  0.00  0.00    +0.000 A 
ATOM     18  C   UNL     1       2.038   0.026   0.575  0.00  0.00    +0.000 A 
ATOM     19  C   UNL     1       1.657  -0.034  -0.739  0.00  0.00    +0.000 A 
ATOM     20  C   UNL     1       2.394   0.729  -1.649  0.00  0.00    +0.000 A 
ATOM     21  C   UNL     1       3.452   1.496  -1.213  0.00  0.00    +0.000 A 
ENDBRANCH  14  19
ENDBRANCH   1  14
TORSDOF 2
