REMARK  Name = 
REMARK  4 active torsions:
REMARK  status: ('A' for Active; 'I' for Inactive)
REMARK    1  A    between atoms: C_3  and  C_4
REMARK    2  A    between atoms: C_4  and  O_6
REMARK    3  A    between atoms: O_6  and  C_7
REMARK    4  A    between atoms: C_10  and  C_11
REMARK                            x       y       z     vdW  Elec       q    Type
REMARK                         _______ _______ _______ _____ _____    ______ ____
ROOT
ATOM      1  C   UNL     1       2.462  -1.597  -0.441  0.00  0.00    +0.000 C 
ATOM      2  C   UNL     1       0.970  -1.562  -0.058  0.00  0.00    +0.000 C 
ATOM      3  C   UNL     1       0.497  -0.536   0.554  0.00  0.00    +0.000 C 
ATOM      4  C   UNL     1      -0.983  -0.402   0.920  0.00  0.00    +0.000 C 
ATOM      5  N   UNL     1      -1.618  -1.716   0.637  0.00  0.00    +0.000 NA
ATOM      6  C   UNL     1      -1.078  -2.791  -0.027  0.00  0.00    +0.000 C 
ATOM      7  S   UNL     1      -1.951  -4.117  -0.393  0.00  0.00    +0.000 S 
ATOM      8  N   UNL     1       0.286  -2.754  -0.412  0.00  0.00    +0.000 NA
ENDROOT
BRANCH   4   9
ATOM      9  C   UNL     1      -1.526   0.459  -0.270  0.00  0.00    +0.000 A 
ATOM     10  C   UNL     1      -0.818   1.539  -0.681  0.00  0.00    +0.000 A 
ATOM     11  C   UNL     1      -1.251   2.345  -1.737  0.00  0.00    +0.000 A 
ATOM     12  C   UNL     1      -2.410   2.024  -2.357  0.00  0.00    +0.000 A 
ATOM     13  C   UNL     1      -3.141   0.950  -1.972  0.00  0.00    +0.000 A 
ATOM     14  C   UNL     1      -2.681   0.167  -0.913  0.00  0.00    +0.000 A 
ATOM     15  O   UNL     1      -3.433  -0.923  -0.529  0.00  0.00    +0.000 OA
ENDBRANCH   4   9
BRANCH   3  16
ATOM     16  C   UNL     1       1.393   0.591   0.885  0.00  0.00    +0.000 C 
ATOM     17  O   UNL     1       0.901   1.564   1.477  0.00  0.00    +0.000 OA
BRANCH  16  18
ATOM     18  O   UNL     1       2.731   0.627   0.580  0.00  0.00    +0.000 OA
BRANCH  18  19
ATOM     19  C   UNL     1       3.590   1.707   0.897  0.00  0.00    +0.000 C 
ATOM     20  C   UNL     1       4.983   1.401   0.411  0.00  0.00    +0.000 C 
ATOM     21  C   UNL     1       3.077   3.025   0.370  0.00  0.00    +0.000 C 
ENDBRANCH  18  19
ENDBRANCH  16  18
ENDBRANCH   3  16
TORSDOF 4
