REMARK  Name = 
REMARK  3 active torsions:
REMARK  status: ('A' for Active; 'I' for Inactive)
REMARK    1  A    between atoms: C_2  and  O_5
REMARK    2  A    between atoms: O_5  and  C_6
REMARK    3  A    between atoms: N_8  and  C_9
REMARK                            x       y       z     vdW  Elec       q    Type
REMARK                         _______ _______ _______ _____ _____    ______ ____
ROOT
ATOM      1  C   UNL     1      -0.485  -0.128  -0.153  0.00  0.00    +0.000 A 
ATOM      2  C   UNL     1      -0.458  -1.127  -1.092  0.00  0.00    +0.000 A 
ATOM      3  C   UNL     1      -1.628  -1.754  -1.496  0.00  0.00    +0.000 A 
ATOM      4  C   UNL     1      -2.856  -1.393  -0.967  0.00  0.00    +0.000 A 
ATOM      5  O   UNL     1      -4.042  -1.997  -1.347  0.00  0.00    +0.000 OA
ATOM      6  C   UNL     1      -2.868  -0.383  -0.019  0.00  0.00    +0.000 A 
ATOM      7  C   UNL     1      -4.072   0.013   0.539  0.00  0.00    +0.000 A 
ATOM      8  C   UNL     1      -4.120   1.018   1.487  0.00  0.00    +0.000 A 
ATOM      9  C   UNL     1      -2.954   1.628   1.876  0.00  0.00    +0.000 A 
ATOM     10  C   UNL     1      -1.750   1.236   1.321  0.00  0.00    +0.000 A 
ATOM     11  C   UNL     1      -1.703   0.238   0.380  0.00  0.00    +0.000 A 
ENDROOT
BRANCH   1  14
ATOM     12  C   UNL     1       1.971   0.210  -0.220  0.00  0.00    +0.000 C 
ATOM     13  O   UNL     1       2.121  -0.693  -1.089  0.00  0.00    +0.000 OA
ATOM     14  N   UNL     1       0.692   0.553   0.301  0.00  0.00    +0.000 NA
BRANCH  12  15
ATOM     15  O   UNL     1       3.124   0.856   0.205  0.00  0.00    +0.000 OA
BRANCH  15  17
ATOM     16  C   UNL     1       4.503   0.693  -1.793  0.00  0.00    +0.000 C 
ATOM     17  C   UNL     1       4.377   0.513  -0.311  0.00  0.00    +0.000 C 
ATOM     18  C   UNL     1       4.712  -0.900   0.128  0.00  0.00    +0.000 C 
ATOM     19  C   UNL     1       5.434   1.416   0.336  0.00  0.00    +0.000 C 
ENDBRANCH  15  17
ENDBRANCH  12  15
ENDBRANCH   1  14
TORSDOF 3
