REMARK  Name = 
REMARK  4 active torsions:
REMARK  status: ('A' for Active; 'I' for Inactive)
REMARK    1  A    between atoms: N_4  and  N_5
REMARK    2  A    between atoms: C_6  and  C_8
REMARK    3  A    between atoms: C_8  and  N_9
REMARK    4  A    between atoms: N_9  and  C_10
REMARK                            x       y       z     vdW  Elec       q    Type
REMARK                         _______ _______ _______ _____ _____    ______ ____
ROOT
ATOM      1  N   UNL     1      -0.643   0.240   0.095  0.00  0.00    +0.000 NA
ENDROOT
BRANCH   1   2
ATOM      2  C   UNL     1      -1.917  -0.352  -0.143  0.00  0.00    +0.000 A 
ATOM      3  C   UNL     1      -2.022  -1.670  -0.527  0.00  0.00    +0.000 A 
ATOM      4  C   UNL     1      -3.296  -2.193  -0.745  0.00  0.00    +0.000 A 
ATOM      5  C   UNL     1      -4.432  -1.402  -0.578  0.00  0.00    +0.000 A 
ATOM      6  C   UNL     1      -4.326  -0.081  -0.193  0.00  0.00    +0.000 A 
ATOM      7 CL   UNL     1      -5.729   0.952   0.030  0.00  0.00    +0.000 Cl
ATOM      8  C   UNL     1      -3.051   0.419   0.019  0.00  0.00    +0.000 A 
ATOM      9  C   UNL     1      -2.898   1.822   0.430  0.00  0.00    +0.000 C 
ENDBRANCH   1   2
BRANCH   1  10
ATOM     10  C   UNL     1       0.561  -0.511  -0.057  0.00  0.00    +0.000 C 
BRANCH  10  12
ATOM     11  N   UNL     1       3.029  -0.160   0.175  0.00  0.00    +0.000 NA
ATOM     12  C   UNL     1       1.717   0.356   0.254  0.00  0.00    +0.000 C 
ATOM     13  O   UNL     1       1.565   1.552   0.589  0.00  0.00    +0.000 OA
BRANCH  11  17
ATOM     14  C   UNL     1       6.490   1.097   0.304  0.00  0.00    +0.000 C 
ATOM     15  C   UNL     1       5.282   0.254  -0.003  0.00  0.00    +0.000 C 
ATOM     16  C   UNL     1       5.509  -0.953  -0.830  0.00  0.00    +0.000 C 
ATOM     17  N   UNL     1       4.162   0.629   0.462  0.00  0.00    +0.000 NA
ENDBRANCH  11  17
ENDBRANCH  10  12
ENDBRANCH   1  10
TORSDOF 4
