REMARK  Name = 
REMARK  4 active torsions:
REMARK  status: ('A' for Active; 'I' for Inactive)
REMARK    1  A    between atoms: O_2  and  C_3
REMARK    2  A    between atoms: C_5  and  C_6
REMARK    3  A    between atoms: N_8  and  N_9
REMARK    4  A    between atoms: C_10  and  C_12
REMARK                            x       y       z     vdW  Elec       q    Type
REMARK                         _______ _______ _______ _____ _____    ______ ____
ROOT
ATOM      1  C   UNL     1       0.414  -0.236   0.508  0.00  0.00    +0.000 C 
ATOM      2  C   UNL     1      -0.049   1.071   1.052  0.00  0.00    +0.000 C 
ATOM      3  N   UNL     1      -0.496  -1.092   0.189  0.00  0.00    +0.000 NA
ENDROOT
BRANCH   1   6
ATOM      4  C   UNL     1       4.173   0.072   0.518  0.00  0.00    +0.000 A 
ATOM      5  C   UNL     1       2.822   0.370   0.681  0.00  0.00    +0.000 A 
ATOM      6  C   UNL     1       1.836  -0.521   0.349  0.00  0.00    +0.000 A 
ATOM      7  C   UNL     1       2.220  -1.743  -0.157  0.00  0.00    +0.000 A 
ATOM      8  C   UNL     1       3.560  -2.081  -0.335  0.00  0.00    +0.000 A 
ATOM      9  C   UNL     1       4.540  -1.156   0.010  0.00  0.00    +0.000 A 
ATOM     10  O   UNL     1       5.902  -1.450  -0.151  0.00  0.00    +0.000 OA
BRANCH   4  12
ATOM     11  C   UNL     1       4.929   2.249   1.378  0.00  0.00    +0.000 C 
ATOM     12  O   UNL     1       5.183   0.963   0.849  0.00  0.00    +0.000 OA
ENDBRANCH   4  12
ENDBRANCH   1   6
BRANCH   3  13
ATOM     13  N   UNL     1      -1.857  -0.810   0.345  0.00  0.00    +0.000 NA
ATOM     14  C   UNL     1      -2.402   0.252  -0.418  0.00  0.00    +0.000 C 
ATOM     15  O   UNL     1      -1.657   0.898  -1.200  0.00  0.00    +0.000 OA
BRANCH  14  16
ATOM     16  C   UNL     1      -3.805   0.636  -0.339  0.00  0.00    +0.000 A 
ATOM     17  C   UNL     1      -4.497   1.609  -0.981  0.00  0.00    +0.000 A 
ATOM     18  C   UNL     1      -5.800   1.542  -0.539  0.00  0.00    +0.000 A 
ATOM     19  O   UNL     1      -5.873   0.569   0.328  0.00  0.00    +0.000 OA
ATOM     20  C   UNL     1      -4.720   0.007   0.477  0.00  0.00    +0.000 A 
ATOM     21  C   UNL     1      -4.423  -1.147   1.392  0.00  0.00    +0.000 C 
ENDBRANCH  14  16
ENDBRANCH   3  13
TORSDOF 4
