REMARK  Name = 
REMARK  1 active torsions:
REMARK  status: ('A' for Active; 'I' for Inactive)
REMARK    1  A    between atoms: C_2  and  C_3
REMARK                            x       y       z     vdW  Elec       q    Type
REMARK                         _______ _______ _______ _____ _____    ______ ____
ROOT
ATOM      1  O   UNL     1      -0.853   1.213  -2.389  0.00  0.00    +0.000 OA
ATOM      2  C   UNL     1      -0.957   0.709  -1.241  0.00  0.00    +0.000 C 
ATOM      3  N   UNL     1       0.142   0.606  -0.397  0.00  0.00    +0.000 N 
ATOM      4  C   UNL     1      -0.030   0.015   0.919  0.00  0.00    +0.000 C 
ATOM      5  C   UNL     1       0.759  -1.292   0.755  0.00  0.00    +0.000 C 
ATOM      6  C   UNL     1       2.193  -0.935   0.519  0.00  0.00    +0.000 C 
ATOM      7  O   UNL     1       2.874  -2.151   0.421  0.00  0.00    +0.000 OA
ATOM      8  C   UNL     1       2.794  -0.049   1.511  0.00  0.00    +0.000 C 
ATOM      9  C   UNL     1       4.298  -0.364   1.509  0.00  0.00    +0.000 C 
ATOM     10  C   UNL     1       4.634  -0.526   0.030  0.00  0.00    +0.000 C 
ATOM     11  C   UNL     1       3.763   0.402  -0.754  0.00  0.00    +0.000 C 
ATOM     12  C   UNL     1       2.336  -0.340  -0.974  0.00  0.00    +0.000 C 
ATOM     13  C   UNL     1       1.483   1.033  -0.685  0.00  0.00    +0.000 C 
ENDROOT
BRANCH   2  14
ATOM     14  C   UNL     1      -2.237   0.219  -0.770  0.00  0.00    +0.000 A 
ATOM     15  C   UNL     1      -2.662  -1.075  -0.963  0.00  0.00    +0.000 A 
ATOM     16  C   UNL     1      -3.881  -1.455  -0.488  0.00  0.00    +0.000 A 
ATOM     17  C   UNL     1      -4.724  -0.582   0.190  0.00  0.00    +0.000 A 
ATOM     18  C   UNL     1      -4.308   0.729   0.392  0.00  0.00    +0.000 A 
ATOM     19  C   UNL     1      -3.073   1.094  -0.095  0.00  0.00    +0.000 A 
ATOM     20 CL   UNL     1      -2.550   2.752   0.162  0.00  0.00    +0.000 Cl
ENDBRANCH   2  14
TORSDOF 1
