REMARK  Name = 
REMARK  4 active torsions:
REMARK  status: ('A' for Active; 'I' for Inactive)
REMARK    1  A    between atoms: C_2  and  C_3
REMARK    2  A    between atoms: C_3  and  C_4
REMARK    3  A    between atoms: C_3  and  C_15
REMARK    4  A    between atoms: N_6  and  C_7
REMARK                            x       y       z     vdW  Elec       q    Type
REMARK                         _______ _______ _______ _____ _____    ______ ____
ROOT
ATOM      1  C   UNL     1       0.543   0.536   0.191  0.00  0.00    +0.000 C 
ATOM      2  O   UNL     1       0.470  -0.608  -0.270  0.00  0.00    +0.000 OA
ATOM      3  N   UNL     1      -0.629   1.197   0.509  0.00  0.00    +0.000 NA
ENDROOT
BRANCH   3   4
ATOM      4  C   UNL     1      -1.962   0.709   0.369  0.00  0.00    +0.000 A 
ATOM      5  C   UNL     1      -3.069   1.449   0.717  0.00  0.00    +0.000 A 
ATOM      6  C   UNL     1      -4.374   1.033   0.603  0.00  0.00    +0.000 A 
ATOM      7  C   UNL     1      -4.606  -0.228   0.102  0.00  0.00    +0.000 A 
ATOM      8  C   UNL     1      -5.995  -0.712  -0.035  0.00  0.00    +0.000 C 
ATOM      9  C   UNL     1      -3.539  -1.026  -0.268  0.00  0.00    +0.000 A 
ATOM     10  O   UNL     1      -3.848  -2.288  -0.766  0.00  0.00    +0.000 OA
ATOM     11  C   UNL     1      -2.265  -0.544  -0.127  0.00  0.00    +0.000 A 
ENDBRANCH   3   4
BRANCH   1  12
ATOM     12  C   UNL     1       1.939   1.219   0.408  0.00  0.00    +0.000 C 
BRANCH  12  13
ATOM     13  C   UNL     1       2.871   0.046  -0.108  0.00  0.00    +0.000 A 
ATOM     14  C   UNL     1       4.002  -0.165   0.656  0.00  0.00    +0.000 A 
ATOM     15  C   UNL     1       4.852  -1.194   0.233  0.00  0.00    +0.000 A 
ATOM     16  C   UNL     1       4.540  -1.931  -0.887  0.00  0.00    +0.000 A 
ATOM     17  C   UNL     1       3.386  -1.672  -1.617  0.00  0.00    +0.000 A 
ATOM     18  C   UNL     1       2.552  -0.654  -1.193  0.00  0.00    +0.000 A 
ENDBRANCH  12  13
BRANCH  12  20
ATOM     19  C   UNL     1       3.217   2.780  -0.952  0.00  0.00    +0.000 C 
ATOM     20  C   UNL     1       1.915   2.052  -1.002  0.00  0.00    +0.000 C 
ENDBRANCH  12  20
ENDBRANCH   1  12
TORSDOF 4
