REMARK  Name = 
REMARK  2 active torsions:
REMARK  status: ('A' for Active; 'I' for Inactive)
REMARK    1  A    between atoms: C_2  and  C_3
REMARK    2  A    between atoms: C_13  and  C_14
REMARK                            x       y       z     vdW  Elec       q    Type
REMARK                         _______ _______ _______ _____ _____    ______ ____
ROOT
ATOM      1  C   UNL     1      -0.449   1.691   0.180  0.00  0.00    +0.000 C 
ATOM      2  C   UNL     1      -1.346   1.760  -0.709  0.00  0.00    +0.000 C 
ATOM      3  N   UNL     1      -1.509   2.932  -1.476  0.00  0.00    +0.000 NA
ATOM      4  O   UNL     1      -2.146   0.681  -0.906  0.00  0.00    +0.000 OA
ATOM      5  C   UNL     1      -2.103  -0.492  -0.253  0.00  0.00    +0.000 C 
ATOM      6  C   UNL     1      -1.224  -0.639   0.660  0.00  0.00    +0.000 C 
ATOM      7  C   UNL     1      -1.116  -1.949   1.446  0.00  0.00    +0.000 C 
ATOM      8  C   UNL     1      -1.150  -3.010   0.388  0.00  0.00    +0.000 C 
ATOM      9  C   UNL     1      -2.237  -2.872  -0.612  0.00  0.00    +0.000 C 
ATOM     10  C   UNL     1      -3.030  -1.617  -0.547  0.00  0.00    +0.000 C 
ATOM     11  C   UNL     1      -0.179   0.433   1.094  0.00  0.00    +0.000 C 
ENDROOT
BRANCH  11  12
ATOM     12  C   UNL     1       1.036  -0.143   0.208  0.00  0.00    +0.000 A 
ATOM     13  C   UNL     1       0.814  -0.493  -1.059  0.00  0.00    +0.000 A 
ATOM     14  C   UNL     1       1.880  -0.980  -1.791  0.00  0.00    +0.000 A 
ATOM     15  C   UNL     1       3.134  -1.102  -1.231  0.00  0.00    +0.000 A 
ATOM     16  C   UNL     1       3.295  -0.721   0.086  0.00  0.00    +0.000 A 
ATOM     17  C   UNL     1       2.247  -0.231   0.840  0.00  0.00    +0.000 A 
ATOM     18 CL   UNL     1       2.414   0.260   2.507  0.00  0.00    +0.000 Cl
ENDBRANCH  11  12
BRANCH   1  20
ATOM     19  N   UNL     1       1.198   3.678   0.708  0.00  0.00    +0.000 NA
ATOM     20  C   UNL     1       0.470   2.813   0.468  0.00  0.00    +0.000 C 
ENDBRANCH   1  20
TORSDOF 2
