REMARK  Name = 
REMARK  2 active torsions:
REMARK  status: ('A' for Active; 'I' for Inactive)
REMARK    1  A    between atoms: N_11  and  C_12
REMARK    2  A    between atoms: C_12  and  C_13
REMARK                            x       y       z     vdW  Elec       q    Type
REMARK                         _______ _______ _______ _____ _____    ______ ____
ROOT
ATOM      1  C   UNL     1      -3.107  -1.321  -1.883  0.00  0.00    +0.000 C 
ATOM      2  C   UNL     1      -1.723  -0.647  -1.444  0.00  0.00    +0.000 C 
ATOM      3  C   UNL     1      -2.214   0.926  -1.638  0.00  0.00    +0.000 C 
ATOM      4  C   UNL     1      -3.639   1.061  -1.395  0.00  0.00    +0.000 C 
ATOM      5  C   UNL     1      -4.286   0.082  -0.464  0.00  0.00    +0.000 C 
ATOM      6  C   UNL     1      -3.372  -0.500   0.526  0.00  0.00    +0.000 C 
ATOM      7  C   UNL     1      -1.947  -0.627   0.167  0.00  0.00    +0.000 C 
ATOM      8  N   UNL     1      -1.357  -1.743   0.826  0.00  0.00    +0.000 NA
ATOM      9  C   UNL     1      -0.102  -1.428   1.357  0.00  0.00    +0.000 C 
ATOM     10  O   UNL     1       0.791  -2.169   1.895  0.00  0.00    +0.000 OA
ATOM     11  N   UNL     1       0.088  -0.049   1.180  0.00  0.00    +0.000 N 
ATOM     12  C   UNL     1      -1.063   0.522   0.538  0.00  0.00    +0.000 C 
ATOM     13  O   UNL     1      -1.251   1.746   0.343  0.00  0.00    +0.000 OA
ENDROOT
BRANCH  11  14
ATOM     14  C   UNL     1       1.186   0.862   1.601  0.00  0.00    +0.000 C 
BRANCH  14  15
ATOM     15  C   UNL     1       2.231   0.535   0.513  0.00  0.00    +0.000 A 
ATOM     16  C   UNL     1       2.841  -0.723   0.914  0.00  0.00    +0.000 A 
ATOM     17  C   UNL     1       4.005  -1.097   0.221  0.00  0.00    +0.000 A 
ATOM     18  C   UNL     1       4.528  -0.309  -0.786  0.00  0.00    +0.000 A 
ATOM     19  C   UNL     1       3.866   0.902  -1.124  0.00  0.00    +0.000 A 
ATOM     20  C   UNL     1       2.709   1.265  -0.430  0.00  0.00    +0.000 A 
ATOM     21 CL   UNL     1       1.815   2.713  -0.917  0.00  0.00    +0.000 Cl
ENDBRANCH  14  15
ENDBRANCH  11  14
TORSDOF 2
