REMARK  Name = 
REMARK  4 active torsions:
REMARK  status: ('A' for Active; 'I' for Inactive)
REMARK    1  A    between atoms: C_2  and  S_3
REMARK    2  A    between atoms: S_3  and  C_4
REMARK    3  A    between atoms: N_9  and  C_10
REMARK    4  A    between atoms: C_10  and  C_11
REMARK                            x       y       z     vdW  Elec       q    Type
REMARK                         _______ _______ _______ _____ _____    ______ ____
ROOT
ATOM      1  C   UNL     1       0.996   0.025   1.228  0.00  0.00    +0.000 C 
ENDROOT
BRANCH   1   2
ATOM      2  C   UNL     1      -0.339   0.626   1.234  0.00  0.00    +0.000 A 
ATOM      3  C   UNL     1      -0.665   1.517   2.229  0.00  0.00    +0.000 A 
ATOM      4  C   UNL     1      -1.891   2.136   2.324  0.00  0.00    +0.000 A 
ATOM      5  C   UNL     1      -2.841   1.846   1.368  0.00  0.00    +0.000 A 
ATOM      6  C   UNL     1      -2.536   0.955   0.361  0.00  0.00    +0.000 A 
ATOM      7  C   UNL     1      -3.536   0.708  -0.566  0.00  0.00    +0.000 A 
ATOM      8  C   UNL     1      -3.299  -0.167  -1.594  0.00  0.00    +0.000 A 
ATOM      9  C   UNL     1      -2.063  -0.767  -1.657  0.00  0.00    +0.000 A 
ATOM     10  C   UNL     1      -1.053  -0.545  -0.756  0.00  0.00    +0.000 A 
ATOM     11  C   UNL     1      -1.294   0.342   0.285  0.00  0.00    +0.000 A 
ENDBRANCH   1   2
BRANCH   1  17
ATOM     12  C   UNL     1       1.812  -0.484  -1.011  0.00  0.00    +0.000 A 
ATOM     13  N   UNL     1       1.957  -1.558  -1.772  0.00  0.00    +0.000 NA
ATOM     14  N   UNL     1       1.525  -2.612  -1.085  0.00  0.00    +0.000 NA
ATOM     15  C   UNL     1       1.101  -2.237   0.114  0.00  0.00    +0.000 A 
ATOM     16  N   UNL     1       0.564  -3.039   1.159  0.00  0.00    +0.000 NA
ATOM     17  N   UNL     1       1.276  -0.891   0.176  0.00  0.00    +0.000 N 
BRANCH  12  18
ATOM     18  S   UNL     1       2.253   1.177  -1.496  0.00  0.00    +0.000 S 
BRANCH  18  20
ATOM     19  C   UNL     1       4.054   1.477   0.493  0.00  0.00    +0.000 C 
ATOM     20  C   UNL     1       3.980   1.490  -1.034  0.00  0.00    +0.000 C 
ENDBRANCH  18  20
ENDBRANCH  12  18
ENDBRANCH   1  17
TORSDOF 4
