REMARK  Name = 
REMARK  1 active torsions:
REMARK  status: ('A' for Active; 'I' for Inactive)
REMARK    1  A    between atoms: C_4  and  C_5
REMARK                            x       y       z     vdW  Elec       q    Type
REMARK                         _______ _______ _______ _____ _____    ______ ____
ROOT
ATOM      1  C   UNL     1       0.692  -1.304  -1.236  0.00  0.00    +0.000 C 
ATOM      2  C   UNL     1      -0.590  -1.092  -1.120  0.00  0.00    +0.000 C 
ATOM      3  C   UNL     1      -1.668  -1.854  -1.805  0.00  0.00    +0.000 C 
ATOM      4  O   UNL     1      -1.436  -2.788  -2.613  0.00  0.00    +0.000 OA
ATOM      5  N   UNL     1      -2.881  -1.288  -1.339  0.00  0.00    +0.000 NA
ATOM      6  C   UNL     1      -2.639  -0.237  -0.419  0.00  0.00    +0.000 A 
ATOM      7  C   UNL     1      -3.488   0.602   0.309  0.00  0.00    +0.000 A 
ATOM      8  C   UNL     1      -3.011   1.558   1.168  0.00  0.00    +0.000 A 
ATOM      9 CL   UNL     1      -4.046   2.623   2.093  0.00  0.00    +0.000 Cl
ATOM     10  C   UNL     1      -1.642   1.686   1.312  0.00  0.00    +0.000 A 
ATOM     11  C   UNL     1      -0.827   0.853   0.587  0.00  0.00    +0.000 A 
ATOM     12  C   UNL     1      -1.255  -0.107  -0.276  0.00  0.00    +0.000 A 
ENDROOT
BRANCH   1  16
ATOM     13  C   UNL     1       3.129   2.684   0.651  0.00  0.00    +0.000 C 
ATOM     14  C   UNL     1       2.734   1.264   0.329  0.00  0.00    +0.000 A 
ATOM     15  C   UNL     1       1.699   0.893  -0.483  0.00  0.00    +0.000 A 
ATOM     16  C   UNL     1       1.660  -0.482  -0.517  0.00  0.00    +0.000 A 
ATOM     17  C   UNL     1       2.695  -0.938   0.291  0.00  0.00    +0.000 A 
ATOM     18  C   UNL     1       3.046  -2.355   0.566  0.00  0.00    +0.000 C 
ATOM     19  N   UNL     1       3.344   0.141   0.802  0.00  0.00    +0.000 N 
ATOM     20  C   UNL     1       4.484   0.142   1.701  0.00  0.00    +0.000 C 
ENDBRANCH   1  16
TORSDOF 1
