REMARK  Name = 
REMARK  5 active torsions:
REMARK  status: ('A' for Active; 'I' for Inactive)
REMARK    1  A    between atoms: C_2  and  O_3
REMARK    2  A    between atoms: O_3  and  C_4
REMARK    3  A    between atoms: C_10  and  C_11
REMARK    4  A    between atoms: C_13  and  C_14
REMARK    5  A    between atoms: C_17  and  O_18
REMARK                            x       y       z     vdW  Elec       q    Type
REMARK                         _______ _______ _______ _____ _____    ______ ____
ROOT
ATOM      1  C   UNL     1       1.588  -0.248  -0.713  0.00  0.00    +0.000 C 
ATOM      2  C   UNL     1       1.978   0.694  -1.474  0.00  0.00    +0.000 C 
ATOM      3  C   UNL     1       2.630   0.299  -2.801  0.00  0.00    +0.000 C 
ATOM      4  O   UNL     1       1.857   2.050  -1.190  0.00  0.00    +0.000 OA
ATOM      5  C   UNL     1       1.255   2.318   0.034  0.00  0.00    +0.000 C 
ATOM      6  N   UNL     1       1.076   3.716   0.436  0.00  0.00    +0.000 NA
ATOM      7  C   UNL     1       0.818   1.450   0.892  0.00  0.00    +0.000 C 
ATOM      8  C   UNL     1       0.926  -0.072   0.629  0.00  0.00    +0.000 C 
ENDROOT
BRANCH   8   9
ATOM      9  C   UNL     1      -0.565  -0.453   0.296  0.00  0.00    +0.000 A 
ATOM     10  C   UNL     1      -1.594   0.170   0.924  0.00  0.00    +0.000 A 
ATOM     11  C   UNL     1      -2.921  -0.138   0.657  0.00  0.00    +0.000 A 
ATOM     12  C   UNL     1      -3.197  -1.106  -0.274  0.00  0.00    +0.000 A 
ATOM     13  C   UNL     1      -2.167  -1.749  -0.921  0.00  0.00    +0.000 A 
ATOM     14  C   UNL     1      -0.823  -1.415  -0.630  0.00  0.00    +0.000 A 
BRANCH  12  15
ATOM     15  O   UNL     1      -4.542  -1.432  -0.557  0.00  0.00    +0.000 OA
ATOM     16  C   UNL     1      -4.877  -2.416  -1.503  0.00  0.00    +0.000 C 
ENDBRANCH  12  15
ENDBRANCH   8   9
BRANCH   7  17
ATOM     17  C   UNL     1       0.210   1.893   2.131  0.00  0.00    +0.000 C 
ATOM     18  N   UNL     1      -0.278   2.224   3.126  0.00  0.00    +0.000 NA
ENDBRANCH   7  17
BRANCH   1  19
ATOM     19  O   UNL     1       1.761  -1.582  -1.103  0.00  0.00    +0.000 OA
BRANCH  19  21
ATOM     20  C   UNL     1       4.117  -1.806  -0.630  0.00  0.00    +0.000 C 
ATOM     21  C   UNL     1       2.747  -2.396  -0.456  0.00  0.00    +0.000 C 
ENDBRANCH  19  21
ENDBRANCH   1  19
TORSDOF 5
