REMARK  Name = 
REMARK  2 active torsions:
REMARK  status: ('A' for Active; 'I' for Inactive)
REMARK    1  A    between atoms: C_11  and  N_12
REMARK    2  A    between atoms: N_12  and  C_13
REMARK                            x       y       z     vdW  Elec       q    Type
REMARK                         _______ _______ _______ _____ _____    ______ ____
ROOT
ATOM      1  C   UNL     1       3.619  -3.308   0.653  0.00  0.00    +0.000 C 
ATOM      2  C   UNL     1       3.161  -1.888   0.514  0.00  0.00    +0.000 A 
ATOM      3  C   UNL     1       4.070  -0.834   0.580  0.00  0.00    +0.000 A 
ATOM      4  C   UNL     1       3.673   0.474   0.454  0.00  0.00    +0.000 A 
ATOM      5  C   UNL     1       4.645   1.581   0.526  0.00  0.00    +0.000 C 
ATOM      6  C   UNL     1       2.341   0.751   0.258  0.00  0.00    +0.000 A 
ATOM      7  N   UNL     1       1.925   2.003   0.132  0.00  0.00    +0.000 NA
ATOM      8  C   UNL     1       0.620   2.277  -0.060  0.00  0.00    +0.000 A 
ATOM      9  C   UNL     1       0.214   3.718  -0.194  0.00  0.00    +0.000 C 
ATOM     10  C   UNL     1      -0.339   1.288  -0.137  0.00  0.00    +0.000 A 
ATOM     11  C   UNL     1       0.054  -0.026  -0.011  0.00  0.00    +0.000 A 
ATOM     12  C   UNL     1       1.393  -0.281   0.185  0.00  0.00    +0.000 A 
ATOM     13  C   UNL     1       1.834  -1.578   0.316  0.00  0.00    +0.000 A 
ENDROOT
BRANCH  11  14
ATOM     14  N   UNL     1      -0.860  -1.123  -0.075  0.00  0.00    +0.000 NA
BRANCH  14  15
ATOM     15  C   UNL     1      -2.245  -0.955  -0.273  0.00  0.00    +0.000 A 
ATOM     16  C   UNL     1      -3.059  -2.045  -0.324  0.00  0.00    +0.000 A 
ATOM     17  C   UNL     1      -4.416  -1.902  -0.517  0.00  0.00    +0.000 A 
ATOM     18  C   UNL     1      -4.959  -0.655  -0.659  0.00  0.00    +0.000 A 
ATOM     19  C   UNL     1      -4.144   0.470  -0.610  0.00  0.00    +0.000 A 
ATOM     20  O   UNL     1      -4.718   1.746  -0.758  0.00  0.00    +0.000 OA
ATOM     21  C   UNL     1      -2.808   0.288  -0.418  0.00  0.00    +0.000 A 
ENDBRANCH  14  15
ENDBRANCH  11  14
TORSDOF 2
