REMARK  Name = 
REMARK  2 active torsions:
REMARK  status: ('A' for Active; 'I' for Inactive)
REMARK    1  A    between atoms: N_10  and  N_11
REMARK    2  A    between atoms: C_12  and  C_14
REMARK                            x       y       z     vdW  Elec       q    Type
REMARK                         _______ _______ _______ _____ _____    ______ ____
ROOT
ATOM      1  C   UNL     1      -5.131   2.004   1.429  0.00  0.00    +0.000 C 
ATOM      2  C   UNL     1      -4.317   0.996   0.669  0.00  0.00    +0.000 A 
ATOM      3  C   UNL     1      -4.954  -0.033   0.016  0.00  0.00    +0.000 A 
ATOM      4  C   UNL     1      -4.279  -0.999  -0.706  0.00  0.00    +0.000 A 
ATOM      5  C   UNL     1      -4.968  -2.113  -1.423  0.00  0.00    +0.000 C 
ATOM      6  C   UNL     1      -2.913  -0.934  -0.774  0.00  0.00    +0.000 A 
ATOM      7  C   UNL     1      -2.272   0.096  -0.125  0.00  0.00    +0.000 A 
ATOM      8  C   UNL     1      -2.940   1.064   0.596  0.00  0.00    +0.000 A 
ATOM      9  C   UNL     1      -0.803   0.001  -0.322  0.00  0.00    +0.000 C 
ATOM     10  N   UNL     1       0.081   0.782   0.153  0.00  0.00    +0.000 NA
ATOM     11  C   UNL     1      -0.606  -1.173  -1.149  0.00  0.00    +0.000 C 
ATOM     12  O   UNL     1       0.510  -1.570  -1.523  0.00  0.00    +0.000 OA
ATOM     13  N   UNL     1      -1.904  -1.731  -1.416  0.00  0.00    +0.000 NA
ENDROOT
BRANCH  10  14
ATOM     14  N   UNL     1       1.450   0.620  -0.085  0.00  0.00    +0.000 NA
ATOM     15  C   UNL     1       2.458   0.924   0.869  0.00  0.00    +0.000 C 
ATOM     16  O   UNL     1       2.100   1.389   1.970  0.00  0.00    +0.000 OA
BRANCH  15  17
ATOM     17  C   UNL     1       3.863   0.680   0.504  0.00  0.00    +0.000 A 
ATOM     18  C   UNL     1       4.956   1.534   0.646  0.00  0.00    +0.000 A 
ATOM     19  C   UNL     1       6.022   0.870   0.090  0.00  0.00    +0.000 A 
ATOM     20  O   UNL     1       5.663  -0.287  -0.362  0.00  0.00    +0.000 OA
ATOM     21  C   UNL     1       4.356  -0.446  -0.131  0.00  0.00    +0.000 A 
ATOM     22  C   UNL     1       3.628  -1.675  -0.528  0.00  0.00    +0.000 C 
ENDBRANCH  15  17
ENDBRANCH  10  14
TORSDOF 2
