REMARK  Name = 
REMARK  0 active torsions:
REMARK  status: ('A' for Active; 'I' for Inactive)
REMARK                            x       y       z     vdW  Elec       q    Type
REMARK                         _______ _______ _______ _____ _____    ______ ____
ROOT
ATOM      1  N   UNL     1       2.054   2.288   0.037  0.00  0.00    +0.000 NA
ATOM      2  C   UNL     1       1.989   0.875   0.094  0.00  0.00    +0.000 A 
ATOM      3  N   UNL     1       3.072   0.101   0.198  0.00  0.00    +0.000 NA
ATOM      4  C   UNL     1       3.021  -1.232   0.253  0.00  0.00    +0.000 A 
ATOM      5  S   UNL     1       4.404  -2.090   0.381  0.00  0.00    +0.000 S 
ATOM      6  N   UNL     1       1.812  -1.813   0.198  0.00  0.00    +0.000 NA
ATOM      7  C   UNL     1       0.689  -1.056   0.091  0.00  0.00    +0.000 A 
ATOM      8  C   UNL     1       0.697   0.310   0.033  0.00  0.00    +0.000 A 
ATOM      9  C   UNL     1      -0.460   1.209  -0.082  0.00  0.00    +0.000 C 
ATOM     10  C   UNL     1      -0.322   2.148   1.132  0.00  0.00    +0.000 C 
ATOM     11  C   UNL     1      -1.238   3.326   1.026  0.00  0.00    +0.000 C 
ATOM     12  C   UNL     1      -1.190   4.011  -0.310  0.00  0.00    +0.000 C 
ATOM     13  C   UNL     1      -1.346   3.031  -1.425  0.00  0.00    +0.000 C 
ATOM     14  C   UNL     1      -0.169   2.053  -1.342  0.00  0.00    +0.000 C 
ATOM     15  C   UNL     1      -1.760   0.561  -0.140  0.00  0.00    +0.000 C 
ATOM     16  C   UNL     1      -1.754  -0.898  -0.076  0.00  0.00    +0.000 A 
ATOM     17  C   UNL     1      -3.007  -1.543  -0.131  0.00  0.00    +0.000 A 
ATOM     18  C   UNL     1      -3.116  -2.885  -0.080  0.00  0.00    +0.000 A 
ATOM     19  C   UNL     1      -1.984  -3.672   0.029  0.00  0.00    +0.000 A 
ATOM     20  C   UNL     1      -0.756  -3.035   0.082  0.00  0.00    +0.000 A 
ATOM     21  C   UNL     1      -0.635  -1.689   0.032  0.00  0.00    +0.000 A 
ENDROOT
TORSDOF 0
