REMARK  Name = 
REMARK  5 active torsions:
REMARK  status: ('A' for Active; 'I' for Inactive)
REMARK    1  A    between atoms: C_2  and  O_3
REMARK    2  A    between atoms: O_3  and  C_4
REMARK    3  A    between atoms: C_4  and  C_6
REMARK    4  A    between atoms: C_7  and  C_8
REMARK    5  A    between atoms: C_14  and  C_15
REMARK                            x       y       z     vdW  Elec       q    Type
REMARK                         _______ _______ _______ _____ _____    ______ ____
ROOT
ATOM      1  C   UNL     1      -0.941  -0.275   0.502  0.00  0.00    +0.000 C 
ATOM      2  C   UNL     1      -1.483  -1.404   0.227  0.00  0.00    +0.000 C 
ATOM      3  N   UNL     1      -1.022  -2.662   0.686  0.00  0.00    +0.000 NA
ATOM      4  C   UNL     1       0.129  -2.639   1.511  0.00  0.00    +0.000 C 
ATOM      5  O   UNL     1       0.580  -3.791   1.952  0.00  0.00    +0.000 OA
ATOM      6  N   UNL     1       0.717  -1.463   1.814  0.00  0.00    +0.000 NA
ATOM      7  C   UNL     1       0.323  -0.100   1.393  0.00  0.00    +0.000 C 
ENDROOT
BRANCH   7   8
ATOM      8  C   UNL     1       1.368   0.233   0.257  0.00  0.00    +0.000 A 
ATOM      9  C   UNL     1       1.707  -0.622  -0.714  0.00  0.00    +0.000 A 
ATOM     10  C   UNL     1       2.630  -0.318  -1.710  0.00  0.00    +0.000 A 
ATOM     11  C   UNL     1       3.223   0.915  -1.700  0.00  0.00    +0.000 A 
ATOM     12  O   UNL     1       4.168   1.274  -2.692  0.00  0.00    +0.000 OA
ATOM     13  C   UNL     1       2.894   1.815  -0.715  0.00  0.00    +0.000 A 
ATOM     14  C   UNL     1       1.952   1.469   0.281  0.00  0.00    +0.000 A 
ENDBRANCH   7   8
BRANCH   1  15
ATOM     15  C   UNL     1      -1.496   0.955  -0.021  0.00  0.00    +0.000 C 
ATOM     16  O   UNL     1      -2.526   0.983  -0.764  0.00  0.00    +0.000 OA
BRANCH  15  17
ATOM     17  O   UNL     1      -0.951   2.221   0.241  0.00  0.00    +0.000 OA
BRANCH  17  19
ATOM     18  C   UNL     1      -2.961   3.530   0.218  0.00  0.00    +0.000 C 
ATOM     19  C   UNL     1      -1.519   3.408  -0.287  0.00  0.00    +0.000 C 
ENDBRANCH  17  19
ENDBRANCH  15  17
ENDBRANCH   1  15
BRANCH   2  20
ATOM     20  C   UNL     1      -2.697  -1.414  -0.644  0.00  0.00    +0.000 C 
ATOM     21 CL   UNL     1      -4.096  -2.114   0.166  0.00  0.00    +0.000 Cl
ENDBRANCH   2  20
TORSDOF 5
