REMARK  Name = 
REMARK  2 active torsions:
REMARK  status: ('A' for Active; 'I' for Inactive)
REMARK    1  A    between atoms: C_6  and  C_8
REMARK    2  A    between atoms: C_16  and  C_17
REMARK                            x       y       z     vdW  Elec       q    Type
REMARK                         _______ _______ _______ _____ _____    ______ ____
ROOT
ATOM      1  C   UNL     1      -3.462   2.070  -0.777  0.00  0.00    +0.000 C 
ATOM      2  C   UNL     1      -2.736   0.744  -0.633  0.00  0.00    +0.000 A 
ATOM      3  N   UNL     1      -1.471   0.671  -0.368  0.00  0.00    +0.000 NA
ATOM      4  C   UNL     1      -0.887  -0.511  -0.254  0.00  0.00    +0.000 A 
ATOM      5  N   UNL     1       0.490  -0.748   0.034  0.00  0.00    +0.000 NA
ATOM      6  C   UNL     1       1.368   0.352   0.226  0.00  0.00    +0.000 C 
ATOM      7  O   UNL     1       0.852   1.520   0.126  0.00  0.00    +0.000 OA
ATOM      8  S   UNL     1      -2.182  -1.584  -0.533  0.00  0.00    +0.000 S 
ATOM      9  C   UNL     1      -3.426  -0.427  -0.786  0.00  0.00    +0.000 A 
ENDROOT
BRANCH   6  10
ATOM     10  C   UNL     1       2.775   0.208   0.521  0.00  0.00    +0.000 A 
ATOM     11  C   UNL     1       3.563   1.308   0.694  0.00  0.00    +0.000 A 
ATOM     12  C   UNL     1       4.927   1.178   0.979  0.00  0.00    +0.000 A 
ATOM     13  C   UNL     1       5.457  -0.092   1.082  0.00  0.00    +0.000 A 
ATOM     14  C   UNL     1       4.653  -1.185   0.905  0.00  0.00    +0.000 A 
ATOM     15  C   UNL     1       3.313  -1.042   0.625  0.00  0.00    +0.000 A 
ATOM     16  O   UNL     1       2.575  -2.211   0.462  0.00  0.00    +0.000 OA
ENDBRANCH   6  10
BRANCH   9  17
ATOM     17  C   UNL     1      -4.883  -0.621  -1.094  0.00  0.00    +0.000 C 
ATOM     18  C   UNL     1      -5.215  -2.094  -1.171  0.00  0.00    +0.000 C 
ATOM     19  C   UNL     1      -5.711   0.063  -0.037  0.00  0.00    +0.000 C 
ENDBRANCH   9  17
TORSDOF 2
