REMARK  Name = 
REMARK  3 active torsions:
REMARK  status: ('A' for Active; 'I' for Inactive)
REMARK    1  A    between atoms: C_2  and  C_4
REMARK    2  A    between atoms: C_4  and  C_5
REMARK    3  A    between atoms: C_5  and  N_6
REMARK                            x       y       z     vdW  Elec       q    Type
REMARK                         _______ _______ _______ _____ _____    ______ ____
ROOT
ATOM      1  N   UNL     1       2.213  -0.492   0.783  0.00  0.00    +0.000 NA
ATOM      2  C   UNL     1       0.969  -1.135   0.536  0.00  0.00    +0.000 A 
ATOM      3  N   UNL     1       0.861  -2.473   0.656  0.00  0.00    +0.000 NA
ATOM      4  C   UNL     1      -0.286  -3.130   0.436  0.00  0.00    +0.000 A 
ATOM      5  N   UNL     1      -1.373  -2.422   0.081  0.00  0.00    +0.000 NA
ATOM      6  C   UNL     1      -1.336  -1.084  -0.057  0.00  0.00    +0.000 A 
ATOM      7  C   UNL     1      -0.153  -0.421   0.171  0.00  0.00    +0.000 A 
ATOM      8  N   UNL     1      -0.374   0.901  -0.031  0.00  0.00    +0.000 NA
ATOM      9  C   UNL     1      -1.674   1.093  -0.384  0.00  0.00    +0.000 A 
ATOM     10  C   UNL     1      -2.380   2.234  -0.690  0.00  0.00    +0.000 A 
ATOM     11  C   UNL     1      -3.733   2.124  -1.023  0.00  0.00    +0.000 A 
ATOM     12  C   UNL     1      -4.365   0.905  -1.050  0.00  0.00    +0.000 A 
ATOM     13  F   UNL     1      -5.677   0.811  -1.374  0.00  0.00    +0.000 F 
ATOM     14  C   UNL     1      -3.634  -0.218  -0.740  0.00  0.00    +0.000 A 
ATOM     15  C   UNL     1      -2.285  -0.147  -0.403  0.00  0.00    +0.000 A 
ENDROOT
BRANCH   1  16
ATOM     16  C   UNL     1       3.375  -1.270   1.165  0.00  0.00    +0.000 C 
BRANCH  16  17
ATOM     17  C   UNL     1       4.588  -0.430   1.382  0.00  0.00    +0.000 C 
BRANCH  17  19
ATOM     18  C   UNL     1       6.266   1.143   0.587  0.00  0.00    +0.000 C 
ATOM     19  C   UNL     1       5.019   0.350   0.179  0.00  0.00    +0.000 C 
ATOM     20  C   UNL     1       3.981   1.398  -0.225  0.00  0.00    +0.000 C 
ENDBRANCH  17  19
ENDBRANCH  16  17
ENDBRANCH   1  16
TORSDOF 3
