REMARK  Name = 
REMARK  3 active torsions:
REMARK  status: ('A' for Active; 'I' for Inactive)
REMARK    1  A    between atoms: C_2  and  C_12
REMARK    2  A    between atoms: N_3  and  N_4
REMARK    3  A    between atoms: N_4  and  C_5
REMARK                            x       y       z     vdW  Elec       q    Type
REMARK                         _______ _______ _______ _____ _____    ______ ____
ROOT
ATOM      1  O   UNL     1       0.000  -0.462  -0.894  0.00  0.00    +0.000 OA
ATOM      2  C   UNL     1      -0.807  -0.204   0.040  0.00  0.00    +0.000 C 
ATOM      3  N   UNL     1      -0.240  -0.220   1.354  0.00  0.00    +0.000 NA
ENDROOT
BRANCH   2   4
ATOM      4  C   UNL     1      -2.225   0.090  -0.177  0.00  0.00    +0.000 A 
ATOM      5  C   UNL     1      -3.016   0.732   0.701  0.00  0.00    +0.000 A 
ATOM      6  C   UNL     1      -4.361   1.018   0.535  0.00  0.00    +0.000 A 
ATOM      7  C   UNL     1      -4.979   0.602  -0.660  0.00  0.00    +0.000 A 
ATOM      8 CL   UNL     1      -6.673   0.913  -0.956  0.00  0.00    +0.000 Cl
ATOM      9  C   UNL     1      -4.177  -0.044  -1.549  0.00  0.00    +0.000 A 
ATOM     10  C   UNL     1      -2.834  -0.331  -1.383  0.00  0.00    +0.000 A 
ENDBRANCH   2   4
BRANCH   3  11
ATOM     11  N   UNL     1       1.132  -0.500   1.559  0.00  0.00    +0.000 NA
BRANCH  11  12
ATOM     12  C   UNL     1       2.136   0.387   1.097  0.00  0.00    +0.000 C 
ATOM     13  C   UNL     1       3.162   0.040   0.366  0.00  0.00    +0.000 C 
ATOM     14  C   UNL     1       3.349  -1.358  -0.042  0.00  0.00    +0.000 C 
ATOM     15  C   UNL     1       4.786  -1.654  -0.302  0.00  0.00    +0.000 C 
ATOM     16  C   UNL     1       5.577  -0.731  -0.809  0.00  0.00    +0.000 C 
ATOM     17  C   UNL     1       5.036   0.611  -1.130  0.00  0.00    +0.000 C 
ATOM     18  C   UNL     1       4.135   1.110  -0.023  0.00  0.00    +0.000 C 
ENDBRANCH  11  12
ENDBRANCH   3  11
TORSDOF 3
