REMARK  Name = 
REMARK  4 active torsions:
REMARK  status: ('A' for Active; 'I' for Inactive)
REMARK    1  A    between atoms: C_2  and  O_3
REMARK    2  A    between atoms: O_3  and  C_4
REMARK    3  A    between atoms: C_4  and  C_6
REMARK    4  A    between atoms: C_9  and  C_10
REMARK                            x       y       z     vdW  Elec       q    Type
REMARK                         _______ _______ _______ _____ _____    ______ ____
ROOT
ATOM      1  C   UNL     1       1.155  -0.925  -0.077  0.00  0.00    +0.000 C 
ATOM      2  C   UNL     1       0.486  -0.315   0.803  0.00  0.00    +0.000 C 
ATOM      3  C   UNL     1       1.049   0.822   1.635  0.00  0.00    +0.000 C 
ATOM      4  C   UNL     1      -1.006  -0.670   1.166  0.00  0.00    +0.000 C 
ATOM      5  N   UNL     1      -1.407  -1.765   0.190  0.00  0.00    +0.000 NA
ATOM      6  C   UNL     1      -0.658  -2.394  -0.736  0.00  0.00    +0.000 C 
ATOM      7  O   UNL     1      -1.152  -3.341  -1.443  0.00  0.00    +0.000 OA
ATOM      8  N   UNL     1       0.662  -1.955  -0.869  0.00  0.00    +0.000 NA
ENDROOT
BRANCH   4   9
ATOM      9  C   UNL     1      -1.676   0.553   0.394  0.00  0.00    +0.000 A 
ATOM     10  C   UNL     1      -1.116   1.778   0.507  0.00  0.00    +0.000 A 
ATOM     11  C   UNL     1      -1.693   2.834  -0.152  0.00  0.00    +0.000 A 
ATOM     12  C   UNL     1      -2.824   2.671  -0.923  0.00  0.00    +0.000 A 
ATOM     13  C   UNL     1      -3.369   1.406  -1.017  0.00  0.00    +0.000 A 
ATOM     14  C   UNL     1      -2.783   0.348  -0.349  0.00  0.00    +0.000 A 
ATOM     15 CL   UNL     1      -3.540  -1.225  -0.509  0.00  0.00    +0.000 Cl
ENDBRANCH   4   9
BRANCH   1  16
ATOM     16  C   UNL     1       2.571  -0.468  -0.271  0.00  0.00    +0.000 C 
ATOM     17  O   UNL     1       3.284  -1.034  -1.128  0.00  0.00    +0.000 OA
BRANCH  16  18
ATOM     18  O   UNL     1       3.041   0.541   0.484  0.00  0.00    +0.000 OA
BRANCH  18  20
ATOM     19  C   UNL     1       4.588   2.140   1.323  0.00  0.00    +0.000 C 
ATOM     20  C   UNL     1       4.389   0.998   0.320  0.00  0.00    +0.000 C 
ENDBRANCH  18  20
ENDBRANCH  16  18
ENDBRANCH   1  16
TORSDOF 4
