REMARK  Name = 
REMARK  4 active torsions:
REMARK  status: ('A' for Active; 'I' for Inactive)
REMARK    1  A    between atoms: C_2  and  O_3
REMARK    2  A    between atoms: O_3  and  C_4
REMARK    3  A    between atoms: C_4  and  C_6
REMARK    4  A    between atoms: C_9  and  C_10
REMARK                            x       y       z     vdW  Elec       q    Type
REMARK                         _______ _______ _______ _____ _____    ______ ____
ROOT
ATOM      1  C   UNL     1       1.008  -0.411  -0.155  0.00  0.00    +0.000 C 
ATOM      2  C   UNL     1       0.330   0.454  -0.842  0.00  0.00    +0.000 C 
ATOM      3  C   UNL     1       0.991   1.794  -1.000  0.00  0.00    +0.000 C 
ATOM      4  C   UNL     1      -1.078   0.229  -1.368  0.00  0.00    +0.000 C 
ATOM      5  N   UNL     1      -1.161  -1.275  -1.499  0.00  0.00    +0.000 NA
ATOM      6  C   UNL     1      -0.487  -2.200  -0.764  0.00  0.00    +0.000 C 
ATOM      7  O   UNL     1      -0.883  -3.400  -0.727  0.00  0.00    +0.000 OA
ATOM      8  N   UNL     1       0.661  -1.766  -0.053  0.00  0.00    +0.000 N 
ATOM      9  C   UNL     1       1.394  -2.742   0.725  0.00  0.00    +0.000 C 
ENDROOT
BRANCH   4  10
ATOM     10  C   UNL     1      -1.952   0.360  -0.065  0.00  0.00    +0.000 A 
ATOM     11  C   UNL     1      -2.935  -0.577   0.144  0.00  0.00    +0.000 A 
ATOM     12  C   UNL     1      -3.796  -0.588   1.241  0.00  0.00    +0.000 A 
ATOM     13  C   UNL     1      -3.596   0.437   2.142  0.00  0.00    +0.000 A 
ATOM     14  C   UNL     1      -2.609   1.375   1.929  0.00  0.00    +0.000 A 
ATOM     15  C   UNL     1      -1.764   1.362   0.825  0.00  0.00    +0.000 A 
ATOM     16  F   UNL     1      -0.824   2.348   0.703  0.00  0.00    +0.000 F 
ENDBRANCH   4  10
BRANCH   1  17
ATOM     17  C   UNL     1       2.326  -0.066   0.437  0.00  0.00    +0.000 C 
ATOM     18  O   UNL     1       2.939  -0.927   1.090  0.00  0.00    +0.000 OA
BRANCH  17  19
ATOM     19  O   UNL     1       2.878   1.173   0.280  0.00  0.00    +0.000 OA
BRANCH  19  21
ATOM     20  C   UNL     1       4.404   2.931   0.462  0.00  0.00    +0.000 C 
ATOM     21  C   UNL     1       4.154   1.489   0.858  0.00  0.00    +0.000 C 
ENDBRANCH  19  21
ENDBRANCH  17  19
ENDBRANCH   1  17
TORSDOF 4
