REMARK  Name = 
REMARK  4 active torsions:
REMARK  status: ('A' for Active; 'I' for Inactive)
REMARK    1  A    between atoms: C_2  and  C_3
REMARK    2  A    between atoms: C_3  and  S_4
REMARK    3  A    between atoms: S_4  and  C_5
REMARK    4  A    between atoms: C_7  and  C_8
REMARK                            x       y       z     vdW  Elec       q    Type
REMARK                         _______ _______ _______ _____ _____    ______ ____
ROOT
ATOM      1  C   UNL     1      -1.348   0.574  -0.621  0.00  0.00    +0.000 A 
ATOM      2  N   UNL     1      -0.275  -0.236  -0.618  0.00  0.00    +0.000 NA
ATOM      3  C   UNL     1       0.846   0.089   0.086  0.00  0.00    +0.000 A 
ATOM      4  N   UNL     1       0.884   1.232   0.790  0.00  0.00    +0.000 NA
ATOM      5  C   UNL     1      -0.152   2.090   0.834  0.00  0.00    +0.000 A 
ATOM      6  C   UNL     1      -1.286   1.756   0.117  0.00  0.00    +0.000 A 
ATOM      7  C   UNL     1      -2.297   2.801   0.285  0.00  0.00    +0.000 C 
ATOM      8  C   UNL     1      -1.559   3.981   0.872  0.00  0.00    +0.000 C 
ATOM      9  C   UNL     1      -0.323   3.381   1.530  0.00  0.00    +0.000 C 
ENDROOT
BRANCH   3  10
ATOM     10  C   UNL     1       1.999  -0.801   0.077  0.00  0.00    +0.000 A 
ATOM     11  C   UNL     1       1.935  -1.981  -0.658  0.00  0.00    +0.000 A 
ATOM     12  C   UNL     1       3.027  -2.818  -0.664  0.00  0.00    +0.000 A 
ATOM     13  C   UNL     1       4.152  -2.495   0.039  0.00  0.00    +0.000 A 
ATOM     14  C   UNL     1       4.189  -1.310   0.765  0.00  0.00    +0.000 A 
ATOM     15  C   UNL     1       3.108  -0.452   0.789  0.00  0.00    +0.000 A 
ENDBRANCH   3  10
BRANCH   1  16
ATOM     16  S   UNL     1      -2.805   0.127  -1.552  0.00  0.00    +0.000 S 
BRANCH  16  17
ATOM     17  C   UNL     1      -3.935  -0.860  -0.509  0.00  0.00    +0.000 C 
BRANCH  17  19
ATOM     18  O   UNL     1      -2.933  -2.892  -1.354  0.00  0.00    +0.000 OA
ATOM     19  C   UNL     1      -3.229  -2.185  -0.207  0.00  0.00    +0.000 C 
ENDBRANCH  17  19
ENDBRANCH  16  17
ENDBRANCH   1  16
TORSDOF 4
