REMARK  Name = 
REMARK  2 active torsions:
REMARK  status: ('A' for Active; 'I' for Inactive)
REMARK    1  A    between atoms: C_6  and  C_7
REMARK    2  A    between atoms: N_11  and  C_12
REMARK                            x       y       z     vdW  Elec       q    Type
REMARK                         _______ _______ _______ _____ _____    ______ ____
ROOT
ATOM      1  C   UNL     1      -0.400   3.459   1.494  0.00  0.00    +0.000 C 
ATOM      2  C   UNL     1      -0.977   2.157   1.037  0.00  0.00    +0.000 A 
ATOM      3  C   UNL     1      -2.347   1.948   1.084  0.00  0.00    +0.000 A 
ATOM      4  C   UNL     1      -2.882   0.750   0.663  0.00  0.00    +0.000 A 
ATOM      5  C   UNL     1      -4.348   0.500   0.703  0.00  0.00    +0.000 C 
ATOM      6  C   UNL     1      -2.029  -0.214   0.204  0.00  0.00    +0.000 A 
ATOM      7  C   UNL     1      -0.673  -0.014   0.155  0.00  0.00    +0.000 A 
ATOM      8  N   UNL     1       0.142  -1.052  -0.330  0.00  0.00    +0.000 NA
ATOM      9  N   UNL     1      -0.193   1.167   0.574  0.00  0.00    +0.000 NA
ENDROOT
BRANCH   8  10
ATOM     10  C   UNL     1       1.558  -0.939  -0.418  0.00  0.00    +0.000 A 
ATOM     11  C   UNL     1       2.290  -2.002  -0.905  0.00  0.00    +0.000 A 
ATOM     12  C   UNL     1       3.667  -1.865  -0.981  0.00  0.00    +0.000 A 
ATOM     13  C   UNL     1       4.317  -0.721  -0.592  0.00  0.00    +0.000 A 
ATOM     14  C   UNL     1       3.577   0.328  -0.110  0.00  0.00    +0.000 A 
ATOM     15 BR   UNL     1       4.475   1.943   0.440  0.00  0.00    +0.000 Br
ATOM     16  C   UNL     1       2.221   0.200  -0.033  0.00  0.00    +0.000 A 
ENDBRANCH   8  10
BRANCH   6  17
ATOM     17  C   UNL     1      -2.593  -1.502  -0.249  0.00  0.00    +0.000 C 
ATOM     18  N   UNL     1      -3.979  -1.743  -0.213  0.00  0.00    +0.000 NA
ATOM     19  O   UNL     1      -1.826  -2.402  -0.675  0.00  0.00    +0.000 OA
ENDBRANCH   6  17
TORSDOF 2
