REMARK  Name = 
REMARK  3 active torsions:
REMARK  status: ('A' for Active; 'I' for Inactive)
REMARK    1  A    between atoms: O_2  and  C_3
REMARK    2  A    between atoms: C_9  and  C_10
REMARK    3  A    between atoms: C_11  and  C_12
REMARK                            x       y       z     vdW  Elec       q    Type
REMARK                         _______ _______ _______ _____ _____    ______ ____
ROOT
ATOM      1  C   UNL     1      -2.097   0.842   0.274  0.00  0.00    +0.000 A 
ATOM      2  C   UNL     1      -1.084   1.760   0.144  0.00  0.00    +0.000 A 
ATOM      3  O   UNL     1      -1.034   3.070   0.108  0.00  0.00    +0.000 OA
ATOM      4  C   UNL     1       0.197   3.494  -0.034  0.00  0.00    +0.000 A 
ATOM      5  C   UNL     1       1.041   2.392  -0.098  0.00  0.00    +0.000 A 
ATOM      6  C   UNL     1       0.228   1.282   0.015  0.00  0.00    +0.000 A 
ATOM      7  C   UNL     1       0.489  -0.064   0.018  0.00  0.00    +0.000 A 
ATOM      8  C   UNL     1      -0.559  -0.938   0.151  0.00  0.00    +0.000 A 
ATOM      9  C   UNL     1      -0.321  -2.295   0.158  0.00  0.00    +0.000 A 
ATOM     10  C   UNL     1      -1.366  -3.217   0.291  0.00  0.00    +0.000 A 
ATOM     11  C   UNL     1      -2.636  -2.692   0.414  0.00  0.00    +0.000 A 
ATOM     12  O   UNL     1      -3.610  -3.513   0.538  0.00  0.00    +0.000 OA
ATOM     13  O   UNL     1      -2.839  -1.397   0.406  0.00  0.00    +0.000 OA
ATOM     14  C   UNL     1      -1.869  -0.511   0.281  0.00  0.00    +0.000 A 
ENDROOT
BRANCH   1  16
ATOM     15  C   UNL     1      -4.198   1.501  -0.741  0.00  0.00    +0.000 C 
ATOM     16  O   UNL     1      -3.395   1.294   0.402  0.00  0.00    +0.000 OA
ENDBRANCH   1  16
BRANCH   7  17
ATOM     17  C   UNL     1       1.835  -0.572  -0.113  0.00  0.00    +0.000 C 
ATOM     18  C   UNL     1       2.824   0.262  -0.239  0.00  0.00    +0.000 C 
BRANCH  18  19
ATOM     19  C   UNL     1       4.241  -0.065  -0.382  0.00  0.00    +0.000 C 
ATOM     20  C   UNL     1       4.455  -1.455   0.227  0.00  0.00    +0.000 C 
ATOM     21  C   UNL     1       4.743  -0.002  -1.794  0.00  0.00    +0.000 C 
ATOM     22  O   UNL     1       4.956   0.824   0.449  0.00  0.00    +0.000 OA
ENDBRANCH  18  19
ENDBRANCH   7  17
TORSDOF 3
