REMARK  Name = 
REMARK  3 active torsions:
REMARK  status: ('A' for Active; 'I' for Inactive)
REMARK    1  A    between atoms: C_4  and  N_5
REMARK    2  A    between atoms: C_6  and  C_8
REMARK    3  A    between atoms: C_14  and  C_15
REMARK                            x       y       z     vdW  Elec       q    Type
REMARK                         _______ _______ _______ _____ _____    ______ ____
ROOT
ATOM      1  C   UNL     1      -3.078  -3.171  -0.062  0.00  0.00    +0.000 C 
ATOM      2  C   UNL     1      -2.714  -1.731  -0.245  0.00  0.00    +0.000 A 
ATOM      3  C   UNL     1      -1.399  -1.336  -0.104  0.00  0.00    +0.000 A 
ATOM      4  C   UNL     1      -1.016  -0.019  -0.264  0.00  0.00    +0.000 A 
ATOM      5  C   UNL     1      -1.982   0.917  -0.572  0.00  0.00    +0.000 A 
ATOM      6  C   UNL     1      -3.299   0.503  -0.709  0.00  0.00    +0.000 A 
ATOM      7  C   UNL     1      -3.688  -0.810  -0.551  0.00  0.00    +0.000 A 
ATOM      8  O   UNL     1      -5.023  -1.170  -0.700  0.00  0.00    +0.000 OA
ENDROOT
BRANCH   4   9
ATOM      9  N   UNL     1       0.344   0.385  -0.118  0.00  0.00    +0.000 NA
ATOM     10  C   UNL     1       1.338  -0.570   0.197  0.00  0.00    +0.000 C 
ATOM     11  O   UNL     1       0.964  -1.762   0.338  0.00  0.00    +0.000 OA
BRANCH  10  12
ATOM     12  C   UNL     1       2.746  -0.237   0.362  0.00  0.00    +0.000 A 
ATOM     13  C   UNL     1       3.171   1.054   0.214  0.00  0.00    +0.000 A 
ATOM     14  C   UNL     1       4.516   1.342   0.376  0.00  0.00    +0.000 A 
ATOM     15  C   UNL     1       5.445   0.370   0.684  0.00  0.00    +0.000 A 
ATOM     16  C   UNL     1       5.013  -0.921   0.831  0.00  0.00    +0.000 A 
ATOM     17  C   UNL     1       3.663  -1.208   0.667  0.00  0.00    +0.000 A 
ENDBRANCH  10  12
ENDBRANCH   4   9
BRANCH   5  18
ATOM     18  C   UNL     1      -1.561   2.315  -0.739  0.00  0.00    +0.000 C 
ATOM     19  C   UNL     1      -2.714   3.222  -1.068  0.00  0.00    +0.000 C 
ATOM     20  C   UNL     1      -0.725   2.827   0.410  0.00  0.00    +0.000 C 
ENDBRANCH   5  18
TORSDOF 3
