REMARK  Name = 
REMARK  2 active torsions:
REMARK  status: ('A' for Active; 'I' for Inactive)
REMARK    1  A    between atoms: N_14  and  C_15
REMARK    2  A    between atoms: C_15  and  C_16
REMARK                            x       y       z     vdW  Elec       q    Type
REMARK                         _______ _______ _______ _____ _____    ______ ____
ROOT
ATOM      1  O   UNL     1      -0.076   1.090   1.565  0.00  0.00    +0.000 OA
ATOM      2  C   UNL     1      -0.373   0.809   0.393  0.00  0.00    +0.000 C 
ATOM      3  N   UNL     1      -1.466   1.260  -0.306  0.00  0.00    +0.000 NA
ATOM      4  C   UNL     1      -1.642   0.323  -1.397  0.00  0.00    +0.000 C 
ATOM      5  C   UNL     1      -2.259  -1.018  -1.033  0.00  0.00    +0.000 C 
ATOM      6  C   UNL     1      -2.653  -1.112   0.380  0.00  0.00    +0.000 C 
ATOM      7  C   UNL     1      -4.184  -1.077   0.399  0.00  0.00    +0.000 C 
ATOM      8  C   UNL     1      -4.683   0.335   0.325  0.00  0.00    +0.000 C 
ATOM      9  C   UNL     1      -3.791   1.256  -0.480  0.00  0.00    +0.000 C 
ATOM     10  C   UNL     1      -3.872   1.049  -1.961  0.00  0.00    +0.000 C 
ATOM     11  C   UNL     1      -2.419   0.973  -2.497  0.00  0.00    +0.000 C 
ATOM     12  C   UNL     1      -0.223  -0.053  -1.707  0.00  0.00    +0.000 C 
ATOM     13  O   UNL     1       0.224  -0.294  -2.812  0.00  0.00    +0.000 OA
ATOM     14  N   UNL     1       0.455  -0.096  -0.501  0.00  0.00    +0.000 N 
ENDROOT
BRANCH  14  15
ATOM     15  C   UNL     1       1.441  -0.748   0.235  0.00  0.00    +0.000 C 
BRANCH  15  16
ATOM     16  C   UNL     1       2.731  -0.208   0.572  0.00  0.00    +0.000 A 
ATOM     17  C   UNL     1       3.689   0.214  -0.194  0.00  0.00    +0.000 A 
ATOM     18  C   UNL     1       4.950   0.677   0.222  0.00  0.00    +0.000 A 
ATOM     19  C   UNL     1       5.120   0.638   1.606  0.00  0.00    +0.000 A 
ATOM     20  C   UNL     1       4.135   0.196   2.445  0.00  0.00    +0.000 A 
ATOM     21  C   UNL     1       2.935  -0.216   1.994  0.00  0.00    +0.000 A 
ATOM     22  F   UNL     1       1.962  -0.693   2.754  0.00  0.00    +0.000 F 
ENDBRANCH  15  16
ENDBRANCH  14  15
TORSDOF 2
