REMARK  Name = 
REMARK  4 active torsions:
REMARK  status: ('A' for Active; 'I' for Inactive)
REMARK    1  A    between atoms: N_2  and  C_3
REMARK    2  A    between atoms: N_2  and  C_12
REMARK    3  A    between atoms: C_3  and  N_5
REMARK    4  A    between atoms: N_5  and  C_6
REMARK                            x       y       z     vdW  Elec       q    Type
REMARK                         _______ _______ _______ _____ _____    ______ ____
ROOT
ATOM      1  C   UNL     1       0.716  -3.308  -1.266  0.00  0.00    +0.000 C 
ATOM      2  N   UNL     1       0.534  -1.977  -0.661  0.00  0.00    +0.000 N 
ENDROOT
BRANCH   2   3
ATOM      3  C   UNL     1       1.647  -1.102  -0.495  0.00  0.00    +0.000 A 
ATOM      4  C   UNL     1       1.988  -0.139  -1.422  0.00  0.00    +0.000 A 
ATOM      5  C   UNL     1       3.078   0.681  -1.213  0.00  0.00    +0.000 A 
ATOM      6  C   UNL     1       3.874   0.592  -0.092  0.00  0.00    +0.000 A 
ATOM      7  O   UNL     1       4.958   1.438   0.076  0.00  0.00    +0.000 OA
ATOM      8  C   UNL     1       3.538  -0.372   0.843  0.00  0.00    +0.000 A 
ATOM      9  C   UNL     1       2.449  -1.196   0.639  0.00  0.00    +0.000 A 
ENDBRANCH   2   3
BRANCH   2  10
ATOM     10  C   UNL     1      -0.759  -1.580  -0.243  0.00  0.00    +0.000 C 
ATOM     11  S   UNL     1      -2.026  -2.575  -0.421  0.00  0.00    +0.000 S 
BRANCH  10  12
ATOM     12  N   UNL     1      -0.910  -0.289   0.333  0.00  0.00    +0.000 NA
BRANCH  12  13
ATOM     13  C   UNL     1      -2.177   0.197   0.783  0.00  0.00    +0.000 C 
ATOM     14  C   UNL     1      -1.995   1.604   1.306  0.00  0.00    +0.000 C 
ATOM     15  C   UNL     1      -3.333   2.047   1.837  0.00  0.00    +0.000 C 
ATOM     16  C   UNL     1      -4.340   2.164   0.713  0.00  0.00    +0.000 C 
ATOM     17  C   UNL     1      -3.947   1.407  -0.517  0.00  0.00    +0.000 C 
ATOM     18  C   UNL     1      -3.292   0.081  -0.199  0.00  0.00    +0.000 C 
ENDBRANCH  12  13
ENDBRANCH  10  12
ENDBRANCH   2  10
TORSDOF 4
