REMARK  Name = 
REMARK  4 active torsions:
REMARK  status: ('A' for Active; 'I' for Inactive)
REMARK    1  A    between atoms: C_2  and  C_3
REMARK    2  A    between atoms: C_2  and  N_7
REMARK    3  A    between atoms: C_3  and  C_4
REMARK    4  A    between atoms: N_7  and  N_8
REMARK                            x       y       z     vdW  Elec       q    Type
REMARK                         _______ _______ _______ _____ _____    ______ ____
ROOT
ATOM      1  N   UNL     1       0.706  -0.311   1.563  0.00  0.00    +0.000 NA
ATOM      2  C   UNL     1      -0.397   0.340   0.952  0.00  0.00    +0.000 A 
ATOM      3  N   UNL     1      -0.571   1.689   0.986  0.00  0.00    +0.000 NA
ATOM      4  N   UNL     1      -1.597   2.304   0.417  0.00  0.00    +0.000 NA
ATOM      5  C   UNL     1      -2.544   1.611  -0.241  0.00  0.00    +0.000 A 
ATOM      6 CL   UNL     1      -3.925   2.382  -1.013  0.00  0.00    +0.000 Cl
ATOM      7  C   UNL     1      -2.412   0.241  -0.304  0.00  0.00    +0.000 A 
ATOM      8  C   UNL     1      -3.369  -0.519  -0.971  0.00  0.00    +0.000 A 
ATOM      9  C   UNL     1      -3.272  -1.888  -1.053  0.00  0.00    +0.000 A 
ATOM     10  C   UNL     1      -2.186  -2.515  -0.451  0.00  0.00    +0.000 A 
ATOM     11  C   UNL     1      -1.223  -1.805   0.215  0.00  0.00    +0.000 A 
ATOM     12  C   UNL     1      -1.350  -0.412   0.282  0.00  0.00    +0.000 A 
ENDROOT
BRANCH   1  13
ATOM     13  N   UNL     1       1.817  -0.608   0.787  0.00  0.00    +0.000 NA
BRANCH  13  15
ATOM     14  C   UNL     1       1.965   1.595  -0.131  0.00  0.00    +0.000 C 
ATOM     15  C   UNL     1       2.226   0.303  -0.205  0.00  0.00    +0.000 C 
BRANCH  15  16
ATOM     16  C   UNL     1       2.996  -0.134  -1.424  0.00  0.00    +0.000 C 
BRANCH  16  17
ATOM     17  C   UNL     1       4.291  -0.750  -0.883  0.00  0.00    +0.000 C 
ATOM     18  C   UNL     1       5.022   0.314  -0.099  0.00  0.00    +0.000 C 
ATOM     19  C   UNL     1       3.821  -1.836   0.091  0.00  0.00    +0.000 C 
ENDBRANCH  16  17
ENDBRANCH  15  16
ENDBRANCH  13  15
ENDBRANCH   1  13
TORSDOF 4
