REMARK  Name = 
REMARK  3 active torsions:
REMARK  status: ('A' for Active; 'I' for Inactive)
REMARK    1  A    between atoms: O_2  and  C_3
REMARK    2  A    between atoms: C_3  and  C_5
REMARK    3  A    between atoms: C_12  and  C_13
REMARK                            x       y       z     vdW  Elec       q    Type
REMARK                         _______ _______ _______ _____ _____    ______ ____
ROOT
ATOM      1  C   UNL     1      -1.295  -0.012   0.433  0.00  0.00    +0.000 C 
ATOM      2  C   UNL     1      -1.925   0.770  -0.366  0.00  0.00    +0.000 C 
ATOM      3  C   UNL     1      -2.977   0.206  -1.292  0.00  0.00    +0.000 C 
ATOM      4  N   UNL     1      -1.732   2.167  -0.446  0.00  0.00    +0.000 NA
ATOM      5  C   UNL     1      -0.761   2.706   0.444  0.00  0.00    +0.000 C 
ATOM      6  S   UNL     1      -0.553   4.353   0.325  0.00  0.00    +0.000 S 
ATOM      7  N   UNL     1      -0.092   1.903   1.294  0.00  0.00    +0.000 NA
ATOM      8  C   UNL     1      -0.180   0.426   1.412  0.00  0.00    +0.000 C 
ENDROOT
BRANCH   8   9
ATOM      9  C   UNL     1       1.090   0.002   0.579  0.00  0.00    +0.000 A 
ATOM     10  C   UNL     1       2.272   0.637   0.713  0.00  0.00    +0.000 A 
ATOM     11  C   UNL     1       3.385   0.240  -0.031  0.00  0.00    +0.000 A 
ATOM     12  C   UNL     1       3.299  -0.788  -0.900  0.00  0.00    +0.000 A 
ATOM     13  O   UNL     1       4.400  -1.226  -1.676  0.00  0.00    +0.000 OA
ATOM     14  C   UNL     1       2.101  -1.451  -1.053  0.00  0.00    +0.000 A 
ATOM     15  C   UNL     1       0.989  -1.037  -0.294  0.00  0.00    +0.000 A 
ENDBRANCH   8   9
BRANCH   1  16
ATOM     16  C   UNL     1      -1.596  -1.428   0.447  0.00  0.00    +0.000 C 
ATOM     17  O   UNL     1      -1.004  -2.206   1.209  0.00  0.00    +0.000 OA
BRANCH  16  19
ATOM     18  C   UNL     1      -2.838  -3.329  -0.372  0.00  0.00    +0.000 C 
ATOM     19  O   UNL     1      -2.583  -1.932  -0.426  0.00  0.00    +0.000 OA
ENDBRANCH  16  19
ENDBRANCH   1  16
TORSDOF 3
