REMARK  Name = 
REMARK  2 active torsions:
REMARK  status: ('A' for Active; 'I' for Inactive)
REMARK    1  A    between atoms: C_2  and  C_4
REMARK    2  A    between atoms: C_9  and  C_10
REMARK                            x       y       z     vdW  Elec       q    Type
REMARK                         _______ _______ _______ _____ _____    ______ ____
ROOT
ATOM      1  C   UNL     1       0.287  -0.152  -0.550  0.00  0.00    +0.000 A 
ATOM      2  C   UNL     1       0.367   0.133  -1.931  0.00  0.00    +0.000 A 
ATOM      3  C   UNL     1       1.558   0.389  -2.543  0.00  0.00    +0.000 A 
ATOM      4  C   UNL     1       2.728   0.371  -1.825  0.00  0.00    +0.000 A 
ATOM      5  C   UNL     1       2.667   0.094  -0.483  0.00  0.00    +0.000 A 
ATOM      6  C   UNL     1       3.820   0.022   0.273  0.00  0.00    +0.000 A 
ATOM      7  C   UNL     1       3.794  -0.279   1.609  0.00  0.00    +0.000 A 
ATOM      8  C   UNL     1       2.583  -0.531   2.223  0.00  0.00    +0.000 A 
ATOM      9  C   UNL     1       1.437  -0.468   1.482  0.00  0.00    +0.000 A 
ATOM     10  C   UNL     1       1.448  -0.166   0.156  0.00  0.00    +0.000 A 
ENDROOT
BRANCH   1  16
ATOM     11  C   UNL     1      -2.076   0.508  -0.168  0.00  0.00    +0.000 A 
ATOM     12  S   UNL     1      -3.438  -0.287   0.413  0.00  0.00    +0.000 S 
ATOM     13  C   UNL     1      -2.709  -1.785   0.800  0.00  0.00    +0.000 A 
ATOM     14  N   UNL     1      -3.270  -3.001   1.345  0.00  0.00    +0.000 NA
ATOM     15  N   UNL     1      -1.444  -1.579   0.451  0.00  0.00    +0.000 NA
ATOM     16  C   UNL     1      -1.065  -0.452  -0.043  0.00  0.00    +0.000 A 
BRANCH  11  18
ATOM     17  C   UNL     1      -3.098   2.507  -1.314  0.00  0.00    +0.000 C 
ATOM     18  C   UNL     1      -1.870   1.929  -0.617  0.00  0.00    +0.000 C 
ATOM     19  C   UNL     1      -1.719   2.745   0.721  0.00  0.00    +0.000 C 
ENDBRANCH  11  18
ENDBRANCH   1  16
TORSDOF 2
