REMARK  Name = 
REMARK  4 active torsions:
REMARK  status: ('A' for Active; 'I' for Inactive)
REMARK    1  A    between atoms: C_2  and  O_3
REMARK    2  A    between atoms: O_3  and  C_4
REMARK    3  A    between atoms: C_11  and  N_12
REMARK    4  A    between atoms: C_18  and  N_19
REMARK                            x       y       z     vdW  Elec       q    Type
REMARK                         _______ _______ _______ _____ _____    ______ ____
ROOT
ATOM      1  C   UNL     1       3.327   0.605  -1.496  0.00  0.00    +0.000 A 
ATOM      2  C   UNL     1       2.635   1.430  -2.349  0.00  0.00    +0.000 A 
ATOM      3  C   UNL     1       1.260   1.589  -2.280  0.00  0.00    +0.000 A 
ATOM      4  C   UNL     1       0.541   0.886  -1.307  0.00  0.00    +0.000 A 
ATOM      5  N   UNL     1      -0.794   1.018  -1.214  0.00  0.00    +0.000 NA
ATOM      6  C   UNL     1      -1.517   0.352  -0.283  0.00  0.00    +0.000 A 
ATOM      7  C   UNL     1      -2.886   0.488  -0.189  0.00  0.00    +0.000 A 
ATOM      8  C   UNL     1      -3.624  -0.190   0.758  0.00  0.00    +0.000 A 
ATOM      9  C   UNL     1      -2.906  -1.019   1.611  0.00  0.00    +0.000 A 
ATOM     10  C   UNL     1      -1.541  -1.180   1.547  0.00  0.00    +0.000 A 
ATOM     11  C   UNL     1      -0.831  -0.482   0.582  0.00  0.00    +0.000 A 
ATOM     12  C   UNL     1       0.544  -0.629   0.498  0.00  0.00    +0.000 A 
ATOM     13  C   UNL     1       1.242   0.061  -0.455  0.00  0.00    +0.000 A 
ATOM     14  C   UNL     1       2.621  -0.083  -0.543  0.00  0.00    +0.000 A 
ENDROOT
BRANCH   8  15
ATOM     15  N   UNL     1      -5.024  -0.060   0.867  0.00  0.00    +0.000 N 
ATOM     16  O   UNL     1      -5.646  -0.685   1.730  0.00  0.00    +0.000 OA
ATOM     17  O   UNL     1      -5.697   0.761   0.015  0.00  0.00    +0.000 OA
ENDBRANCH   8  15
BRANCH  12  18
ATOM     18  N   UNL     1       1.184  -1.506   1.423  0.00  0.00    +0.000 NA
ATOM     19  C   UNL     1       1.645  -0.965   2.679  0.00  0.00    +0.000 C 
ENDBRANCH  12  18
BRANCH   1  20
ATOM     20  O   UNL     1       4.725   0.462  -1.588  0.00  0.00    +0.000 OA
BRANCH  20  22
ATOM     21  C   UNL     1       5.292   0.040   0.726  0.00  0.00    +0.000 C 
ATOM     22  C   UNL     1       5.449  -0.370  -0.732  0.00  0.00    +0.000 C 
ENDBRANCH  20  22
ENDBRANCH   1  20
TORSDOF 4
