REMARK  Name = 
REMARK  3 active torsions:
REMARK  status: ('A' for Active; 'I' for Inactive)
REMARK    1  A    between atoms: C_2  and  C_3
REMARK    2  A    between atoms: C_6  and  N_7
REMARK    3  A    between atoms: C_8  and  C_10
REMARK                            x       y       z     vdW  Elec       q    Type
REMARK                         _______ _______ _______ _____ _____    ______ ____
ROOT
ATOM      1  N   UNL     1       0.460   0.166   0.738  0.00  0.00    +0.000 NA
ATOM      2  C   UNL     1      -0.342  -0.172  -0.371  0.00  0.00    +0.000 C 
ATOM      3  O   UNL     1       0.224  -0.249  -1.491  0.00  0.00    +0.000 OA
ENDROOT
BRANCH   2   4
ATOM      4  C   UNL     1      -1.792  -0.437  -0.298  0.00  0.00    +0.000 C 
ATOM      5  C   UNL     1      -2.465   0.830   0.242  0.00  0.00    +0.000 C 
ATOM      6  C   UNL     1      -3.951   0.630   0.405  0.00  0.00    +0.000 C 
ATOM      7  C   UNL     1      -4.152  -0.521   1.363  0.00  0.00    +0.000 C 
ATOM      8  C   UNL     1      -3.543  -1.781   0.735  0.00  0.00    +0.000 C 
ATOM      9  C   UNL     1      -4.156  -2.033  -0.628  0.00  0.00    +0.000 C 
ATOM     10  C   UNL     1      -3.863  -0.865  -1.567  0.00  0.00    +0.000 C 
ATOM     11  C   UNL     1      -4.537   0.352  -0.960  0.00  0.00    +0.000 C 
ATOM     12  C   UNL     1      -2.370  -0.700  -1.647  0.00  0.00    +0.000 C 
ATOM     13  C   UNL     1      -2.027  -1.607   0.618  0.00  0.00    +0.000 C 
ENDBRANCH   2   4
BRANCH   1  17
ATOM     14  C   UNL     1       4.571   0.890   0.368  0.00  0.00    +0.000 A 
ATOM     15  C   UNL     1       3.994   0.987   1.617  0.00  0.00    +0.000 A 
ATOM     16  C   UNL     1       2.639   0.742   1.702  0.00  0.00    +0.000 A 
ATOM     17  C   UNL     1       1.875   0.414   0.602  0.00  0.00    +0.000 A 
ATOM     18  C   UNL     1       2.499   0.329  -0.625  0.00  0.00    +0.000 A 
ATOM     19  C   UNL     1       3.850   0.563  -0.771  0.00  0.00    +0.000 A 
BRANCH  14  21
ATOM     20  N   UNL     1       7.114   1.332   0.082  0.00  0.00    +0.000 NA
ATOM     21  C   UNL     1       5.971   1.131   0.206  0.00  0.00    +0.000 C 
ENDBRANCH  14  21
ENDBRANCH   1  17
TORSDOF 3
