REMARK  Name = 
REMARK  4 active torsions:
REMARK  status: ('A' for Active; 'I' for Inactive)
REMARK    1  A    between atoms: C_4  and  N_5
REMARK    2  A    between atoms: C_6  and  C_8
REMARK    3  A    between atoms: C_8  and  C_9
REMARK    4  A    between atoms: C_15  and  C_16
REMARK                            x       y       z     vdW  Elec       q    Type
REMARK                         _______ _______ _______ _____ _____    ______ ____
ROOT
ATOM      1  C   UNL     1      -4.476   2.798   0.632  0.00  0.00    +0.000 C 
ATOM      2  C   UNL     1      -3.426   1.720   0.480  0.00  0.00    +0.000 A 
ATOM      3  S   UNL     1      -1.874   1.763   1.105  0.00  0.00    +0.000 S 
ATOM      4  C   UNL     1      -1.288   0.190   0.506  0.00  0.00    +0.000 A 
ATOM      5  C   UNL     1      -2.387  -0.256  -0.142  0.00  0.00    +0.000 A 
ATOM      6  C   UNL     1      -3.488   0.528  -0.163  0.00  0.00    +0.000 A 
ATOM      7  C   UNL     1      -4.794   0.181  -0.846  0.00  0.00    +0.000 C 
ENDROOT
BRANCH   4   8
ATOM      8  N   UNL     1       0.013  -0.188   0.814  0.00  0.00    +0.000 NA
ATOM      9  C   UNL     1       1.000  -0.990   0.378  0.00  0.00    +0.000 C 
ATOM     10  O   UNL     1       0.873  -1.677  -0.660  0.00  0.00    +0.000 OA
BRANCH   9  11
ATOM     11  C   UNL     1       2.301  -1.131   1.077  0.00  0.00    +0.000 C 
BRANCH  11  12
ATOM     12  C   UNL     1       3.289  -0.310   0.373  0.00  0.00    +0.000 A 
ATOM     13  C   UNL     1       3.766   0.806   1.071  0.00  0.00    +0.000 A 
ATOM     14  C   UNL     1       4.674   1.661   0.469  0.00  0.00    +0.000 A 
ATOM     15  C   UNL     1       5.093   1.393  -0.821  0.00  0.00    +0.000 A 
ATOM     16  C   UNL     1       4.641   0.301  -1.538  0.00  0.00    +0.000 A 
ATOM     17  C   UNL     1       3.723  -0.536  -0.886  0.00  0.00    +0.000 A 
ENDBRANCH  11  12
ENDBRANCH   9  11
ENDBRANCH   4   8
BRANCH   5  18
ATOM     18  C   UNL     1      -2.461  -1.663  -0.642  0.00  0.00    +0.000 C 
ATOM     19  N   UNL     1      -3.565  -2.049  -1.462  0.00  0.00    +0.000 NA
ATOM     20  O   UNL     1      -1.614  -2.542  -0.396  0.00  0.00    +0.000 OA
ENDBRANCH   5  18
TORSDOF 4
