REMARK  Name = 
REMARK  4 active torsions:
REMARK  status: ('A' for Active; 'I' for Inactive)
REMARK    1  A    between atoms: C_2  and  C_3
REMARK    2  A    between atoms: C_7  and  N_8
REMARK    3  A    between atoms: C_9  and  C_11
REMARK    4  A    between atoms: C_15  and  N_16
REMARK                            x       y       z     vdW  Elec       q    Type
REMARK                         _______ _______ _______ _____ _____    ______ ____
ROOT
ATOM      1  N   UNL     1       0.705   0.048   0.164  0.00  0.00    +0.000 NA
ATOM      2  C   UNL     1      -0.017  -1.163   0.032  0.00  0.00    +0.000 C 
ATOM      3  O   UNL     1       0.638  -2.235   0.006  0.00  0.00    +0.000 OA
ENDROOT
BRANCH   2   4
ATOM      4  C   UNL     1      -1.468  -1.223  -0.074  0.00  0.00    +0.000 A 
ATOM      5  C   UNL     1      -2.154  -2.412  -0.202  0.00  0.00    +0.000 A 
ATOM      6  C   UNL     1      -3.530  -2.432  -0.299  0.00  0.00    +0.000 A 
ATOM      7  C   UNL     1      -4.281  -1.286  -0.276  0.00  0.00    +0.000 A 
ATOM      8  C   UNL     1      -3.606  -0.088  -0.149  0.00  0.00    +0.000 A 
ATOM      9  C   UNL     1      -2.245  -0.070  -0.052  0.00  0.00    +0.000 A 
ATOM     10  C   UNL     1      -1.489   1.215   0.086  0.00  0.00    +0.000 C 
BRANCH   8  11
ATOM     11  N   UNL     1      -4.359   1.123  -0.121  0.00  0.00    +0.000 N 
ATOM     12  O   UNL     1      -3.991   2.122   0.525  0.00  0.00    +0.000 OA
ATOM     13  O   UNL     1      -5.550   1.259  -0.815  0.00  0.00    +0.000 OA
ENDBRANCH   8  11
ENDBRANCH   2   4
BRANCH   1  18
ATOM     14  C   UNL     1       4.222   1.140   0.480  0.00  0.00    +0.000 A 
ATOM     15  C   UNL     1       4.841  -0.086   0.448  0.00  0.00    +0.000 A 
ATOM     16  C   UNL     1       4.149  -1.258   0.327  0.00  0.00    +0.000 A 
ATOM     17  C   UNL     1       2.780  -1.186   0.234  0.00  0.00    +0.000 A 
ATOM     18  C   UNL     1       2.116   0.016   0.262  0.00  0.00    +0.000 A 
ATOM     19  C   UNL     1       2.847   1.174   0.385  0.00  0.00    +0.000 A 
BRANCH  14  21
ATOM     20  C   UNL     1       5.377   2.925  -0.778  0.00  0.00    +0.000 C 
ATOM     21  C   UNL     1       5.013   2.416   0.615  0.00  0.00    +0.000 C 
ENDBRANCH  14  21
ENDBRANCH   1  18
TORSDOF 4
