REMARK  Name = 
REMARK  4 active torsions:
REMARK  status: ('A' for Active; 'I' for Inactive)
REMARK    1  A    between atoms: C_2  and  C_3
REMARK    2  A    between atoms: C_3  and  C_16
REMARK    3  A    between atoms: C_4  and  C_5
REMARK    4  A    between atoms: C_16  and  N_18
REMARK                            x       y       z     vdW  Elec       q    Type
REMARK                         _______ _______ _______ _____ _____    ______ ____
ROOT
ATOM      1  C   UNL     1      -0.979  -0.249  -0.173  0.00  0.00    +0.000 A 
ATOM      2  C   UNL     1      -1.733  -1.385  -0.151  0.00  0.00    +0.000 A 
ATOM      3 CL   UNL     1      -1.335  -3.021  -0.650  0.00  0.00    +0.000 Cl
ATOM      4  N   UNL     1      -2.955  -1.012   0.335  0.00  0.00    +0.000 N 
ATOM      5  C   UNL     1      -4.072  -1.927   0.522  0.00  0.00    +0.000 C 
ATOM      6  C   UNL     1      -2.972   0.297   0.608  0.00  0.00    +0.000 A 
ATOM      7  C   UNL     1      -3.961   1.151   1.116  0.00  0.00    +0.000 A 
ATOM      8  C   UNL     1      -3.701   2.485   1.303  0.00  0.00    +0.000 A 
ATOM      9  C   UNL     1      -2.464   2.996   0.991  0.00  0.00    +0.000 A 
ATOM     10  C   UNL     1      -1.454   2.176   0.483  0.00  0.00    +0.000 A 
ATOM     11  C   UNL     1      -1.751   0.839   0.308  0.00  0.00    +0.000 A 
ENDROOT
BRANCH   1  13
ATOM     12  C   UNL     1       1.367  -0.792  -0.119  0.00  0.00    +0.000 C 
ATOM     13  C   UNL     1       0.386  -0.083  -0.561  0.00  0.00    +0.000 C 
BRANCH  12  15
ATOM     14  C   UNL     1       1.907  -3.107   0.235  0.00  0.00    +0.000 C 
ATOM     15  C   UNL     1       1.209  -1.878   0.852  0.00  0.00    +0.000 C 
ENDBRANCH  12  15
BRANCH  12  16
ATOM     16  C   UNL     1       2.719  -0.511  -0.609  0.00  0.00    +0.000 C 
ATOM     17  O   UNL     1       3.671  -1.191  -0.183  0.00  0.00    +0.000 OA
BRANCH  16  18
ATOM     18  N   UNL     1       2.964   0.529  -1.567  0.00  0.00    +0.000 NA
ATOM     19  C   UNL     1       3.996   1.281  -1.420  0.00  0.00    +0.000 C 
ATOM     20  N   UNL     1       4.889   1.086  -0.318  0.00  0.00    +0.000 NA
ATOM     21  N   UNL     1       4.271   2.316  -2.341  0.00  0.00    +0.000 NA
ENDBRANCH  16  18
ENDBRANCH  12  16
ENDBRANCH   1  13
TORSDOF 4
