REMARK  Name = 
REMARK  2 active torsions:
REMARK  status: ('A' for Active; 'I' for Inactive)
REMARK    1  A    between atoms: C_7  and  S_8
REMARK    2  A    between atoms: C_12  and  C_13
REMARK                            x       y       z     vdW  Elec       q    Type
REMARK                         _______ _______ _______ _____ _____    ______ ____
ROOT
ATOM      1  S   UNL     1       0.666  -1.128   0.307  0.00  0.00    +0.000 S 
ATOM      2  C   UNL     1       0.075  -0.396   1.826  0.00  0.00    +0.000 C 
ATOM      3  C   UNL     1      -1.252  -1.042   2.146  0.00  0.00    +0.000 C 
ATOM      4  C   UNL     1      -1.887  -1.451   0.822  0.00  0.00    +0.000 C 
ATOM      5  C   UNL     1      -1.776  -0.049  -0.034  0.00  0.00    +0.000 C 
ATOM      6  C   UNL     1      -0.503  -0.607  -0.940  0.00  0.00    +0.000 C 
ENDROOT
BRANCH   1  13
ATOM      7  O   UNL     1       3.513   2.493  -1.928  0.00  0.00    +0.000 OA
ATOM      8  C   UNL     1       3.525   1.361  -1.146  0.00  0.00    +0.000 A 
ATOM      9  C   UNL     1       4.676   0.792  -0.648  0.00  0.00    +0.000 A 
ATOM     10  C   UNL     1       4.600  -0.340   0.125  0.00  0.00    +0.000 A 
ATOM     11  C   UNL     1       3.357  -0.910   0.404  0.00  0.00    +0.000 A 
ATOM     12  O   UNL     1       3.375  -2.048   1.191  0.00  0.00    +0.000 OA
ATOM     13  C   UNL     1       2.193  -0.355  -0.085  0.00  0.00    +0.000 A 
ATOM     14  C   UNL     1       2.294   0.767  -0.850  0.00  0.00    +0.000 A 
ENDBRANCH   1  13
BRANCH   5  15
ATOM     15  C   UNL     1      -2.888  -0.546  -1.154  0.00  0.00    +0.000 C 
ATOM     16  C   UNL     1      -4.153  -0.796  -0.358  0.00  0.00    +0.000 C 
ATOM     17  C   UNL     1      -4.345   0.318   0.652  0.00  0.00    +0.000 C 
ATOM     18  C   UNL     1      -4.198   1.679   0.013  0.00  0.00    +0.000 C 
ATOM     19  C   UNL     1      -4.154   1.598  -1.493  0.00  0.00    +0.000 C 
ATOM     20  C   UNL     1      -3.118   0.660  -2.015  0.00  0.00    +0.000 C 
ENDBRANCH   5  15
TORSDOF 2
