REMARK  Name = 
REMARK  2 active torsions:
REMARK  status: ('A' for Active; 'I' for Inactive)
REMARK    1  A    between atoms: O_2  and  C_3
REMARK    2  A    between atoms: C_5  and  C_6
REMARK                            x       y       z     vdW  Elec       q    Type
REMARK                         _______ _______ _______ _____ _____    ______ ____
ROOT
ATOM      1  C   UNL     1       0.425  -0.883   0.094  0.00  0.00    +0.000 C 
ATOM      2  N   UNL     1       1.495  -0.460   0.955  0.00  0.00    +0.000 N 
ATOM      3  C   UNL     1       1.373  -0.206   2.364  0.00  0.00    +0.000 C 
ATOM      4  C   UNL     1       2.653  -0.353   0.145  0.00  0.00    +0.000 A 
ATOM      5  C   UNL     1       4.020  -0.309   0.427  0.00  0.00    +0.000 A 
ATOM      6  C   UNL     1       4.901  -0.197  -0.619  0.00  0.00    +0.000 A 
ATOM      7  C   UNL     1       4.448  -0.130  -1.917  0.00  0.00    +0.000 A 
ATOM      8  C   UNL     1       3.110  -0.171  -2.235  0.00  0.00    +0.000 A 
ATOM      9  C   UNL     1       2.231  -0.283  -1.166  0.00  0.00    +0.000 A 
ATOM     10  N   UNL     1       0.817  -0.346  -1.193  0.00  0.00    +0.000 N 
ATOM     11  C   UNL     1      -0.059   0.045  -2.281  0.00  0.00    +0.000 C 
ENDROOT
BRANCH   1  14
ATOM     12  C   UNL     1      -3.071   0.544   0.186  0.00  0.00    +0.000 A 
ATOM     13  C   UNL     1      -1.850   0.129  -0.305  0.00  0.00    +0.000 A 
ATOM     14  C   UNL     1      -0.905  -0.412   0.527  0.00  0.00    +0.000 A 
ATOM     15  C   UNL     1      -1.232  -0.522   1.872  0.00  0.00    +0.000 A 
ATOM     16  C   UNL     1      -2.455  -0.107   2.366  0.00  0.00    +0.000 A 
ATOM     17  C   UNL     1      -3.401   0.437   1.523  0.00  0.00    +0.000 A 
ATOM     18  O   UNL     1      -4.646   0.870   1.970  0.00  0.00    +0.000 OA
BRANCH  12  20
ATOM     19  C   UNL     1      -3.820   1.258  -2.046  0.00  0.00    +0.000 C 
ATOM     20  O   UNL     1      -4.034   1.096  -0.667  0.00  0.00    +0.000 OA
ENDBRANCH  12  20
ENDBRANCH   1  14
TORSDOF 2
