REMARK  Name = 
REMARK  2 active torsions:
REMARK  status: ('A' for Active; 'I' for Inactive)
REMARK    1  A    between atoms: C_2  and  C_3
REMARK    2  A    between atoms: C_3  and  N_4
REMARK                            x       y       z     vdW  Elec       q    Type
REMARK                         _______ _______ _______ _____ _____    ______ ____
ROOT
ATOM      1  N   UNL     1       3.526   0.213  -1.075  0.00  0.00    +0.000 N 
ATOM      2  C   UNL     1       4.446   0.628  -2.134  0.00  0.00    +0.000 C 
ATOM      3  C   UNL     1       2.723   1.343  -0.732  0.00  0.00    +0.000 C 
ATOM      4  C   UNL     1       1.579   0.936   0.149  0.00  0.00    +0.000 C 
ATOM      5  N   UNL     1       0.735   0.006  -0.570  0.00  0.00    +0.000 N 
ATOM      6  C   UNL     1      -0.641  -0.181  -0.238  0.00  0.00    +0.000 A 
ATOM      7  N   UNL     1      -1.293   0.440   0.722  0.00  0.00    +0.000 NA
ATOM      8  C   UNL     1      -2.560   0.175   0.922  0.00  0.00    +0.000 A 
ATOM      9  C   UNL     1      -3.386   0.752   1.900  0.00  0.00    +0.000 A 
ATOM     10  C   UNL     1      -4.683   0.399   2.012  0.00  0.00    +0.000 A 
ATOM     11  C   UNL     1      -5.300  -0.524   1.213  0.00  0.00    +0.000 A 
ATOM     12  O   UNL     1      -6.631  -0.880   1.335  0.00  0.00    +0.000 OA
ATOM     13  C   UNL     1      -4.499  -1.113   0.230  0.00  0.00    +0.000 A 
ATOM     14  C   UNL     1      -3.154  -0.747   0.114  0.00  0.00    +0.000 A 
ATOM     15  S   UNL     1      -1.839  -1.190  -0.906  0.00  0.00    +0.000 S 
ATOM     16  C   UNL     1       1.333  -0.743  -1.652  0.00  0.00    +0.000 C 
ATOM     17  C   UNL     1       2.789  -0.965  -1.409  0.00  0.00    +0.000 C 
ENDROOT
BRANCH   1  18
ATOM     18  C   UNL     1       4.378  -0.087   0.086  0.00  0.00    +0.000 C 
BRANCH  18  20
ATOM     19  C   UNL     1       6.840   0.165  -0.005  0.00  0.00    +0.000 C 
ATOM     20  C   UNL     1       5.637   0.722   0.040  0.00  0.00    +0.000 C 
ENDBRANCH  18  20
ENDBRANCH   1  18
TORSDOF 2
