REMARK  Name = 
REMARK  3 active torsions:
REMARK  status: ('A' for Active; 'I' for Inactive)
REMARK    1  A    between atoms: C_7  and  N_8
REMARK    2  A    between atoms: N_8  and  N_9
REMARK    3  A    between atoms: C_10  and  C_12
REMARK                            x       y       z     vdW  Elec       q    Type
REMARK                         _______ _______ _______ _____ _____    ______ ____
ROOT
ATOM      1  N   UNL     1       0.025   0.953  -0.564  0.00  0.00    +0.000 NA
ATOM      2  C   UNL     1       0.848  -0.184  -0.771  0.00  0.00    +0.000 C 
ATOM      3  O   UNL     1       0.425  -1.169  -1.416  0.00  0.00    +0.000 OA
ENDROOT
BRANCH   2   4
ATOM      4  C   UNL     1       2.200  -0.235  -0.241  0.00  0.00    +0.000 A 
ATOM      5  C   UNL     1       2.984  -1.359  -0.444  0.00  0.00    +0.000 A 
ATOM      6  C   UNL     1       4.264  -1.415   0.050  0.00  0.00    +0.000 A 
ATOM      7  C   UNL     1       4.799  -0.356   0.758  0.00  0.00    +0.000 A 
ATOM      8  C   UNL     1       4.024   0.765   0.964  0.00  0.00    +0.000 A 
ATOM      9  C   UNL     1       2.742   0.817   0.467  0.00  0.00    +0.000 A 
ATOM     10 BR   UNL     1       1.681   2.374   0.756  0.00  0.00    +0.000 Br
ENDBRANCH   2   4
BRANCH   1  11
ATOM     11  N   UNL     1      -1.270   1.065  -1.047  0.00  0.00    +0.000 NA
BRANCH  11  18
ATOM     12  C   UNL     1      -3.098   2.166   0.413  0.00  0.00    +0.000 C 
ATOM     13  C   UNL     1      -3.688   0.824  -0.342  0.00  0.00    +0.000 C 
ATOM     14  C   UNL     1      -3.876   0.025   1.091  0.00  0.00    +0.000 C 
ATOM     15  C   UNL     1      -4.339  -1.347   0.640  0.00  0.00    +0.000 C 
ATOM     16  C   UNL     1      -3.257  -2.037  -0.170  0.00  0.00    +0.000 C 
ATOM     17  C   UNL     1      -2.189  -1.080  -0.558  0.00  0.00    +0.000 C 
ATOM     18  C   UNL     1      -2.276   0.193  -0.663  0.00  0.00    +0.000 C 
ENDBRANCH  11  18
ENDBRANCH   1  11
TORSDOF 3
