REMARK  Name = 
REMARK  5 active torsions:
REMARK  status: ('A' for Active; 'I' for Inactive)
REMARK    1  A    between atoms: C_2  and  N_5
REMARK    2  A    between atoms: N_5  and  C_6
REMARK    3  A    between atoms: C_6  and  N_8
REMARK    4  A    between atoms: C_9  and  C_11
REMARK    5  A    between atoms: C_16  and  N_17
REMARK                            x       y       z     vdW  Elec       q    Type
REMARK                         _______ _______ _______ _____ _____    ______ ____
ROOT
ATOM      1  N   UNL     1       0.873  -0.237  -0.232  0.00  0.00    +0.000 NA
ATOM      2  C   UNL     1      -0.050  -1.312  -0.239  0.00  0.00    +0.000 C 
ATOM      3  O   UNL     1       0.534  -2.467  -0.299  0.00  0.00    +0.000 OA
ENDROOT
BRANCH   2   4
ATOM      4  C   UNL     1      -1.487  -1.243  -0.196  0.00  0.00    +0.000 A 
ATOM      5  C   UNL     1      -2.163  -2.371  -0.683  0.00  0.00    +0.000 A 
ATOM      6  C   UNL     1      -3.523  -2.457  -0.784  0.00  0.00    +0.000 A 
ATOM      7  C   UNL     1      -4.238  -1.346  -0.370  0.00  0.00    +0.000 A 
ATOM      8  C   UNL     1      -3.612  -0.221   0.115  0.00  0.00    +0.000 A 
ATOM      9  C   UNL     1      -2.205  -0.187   0.198  0.00  0.00    +0.000 A 
BRANCH   9  10
ATOM     10  N   UNL     1      -1.668   0.984   0.721  0.00  0.00    +0.000 N 
ATOM     11  O   UNL     1      -2.263   2.066   0.556  0.00  0.00    +0.000 OA
ATOM     12  O   UNL     1      -0.506   1.010   1.411  0.00  0.00    +0.000 OA
ENDBRANCH   9  10
ENDBRANCH   2   4
BRANCH   1  13
ATOM     13  C   UNL     1       2.276  -0.420  -0.287  0.00  0.00    +0.000 C 
ATOM     14  S   UNL     1       2.863  -1.964  -0.360  0.00  0.00    +0.000 S 
BRANCH  13  15
ATOM     15  N   UNL     1       3.237   0.594  -0.297  0.00  0.00    +0.000 NA
BRANCH  15  17
ATOM     16  C   UNL     1       2.386   2.359   1.064  0.00  0.00    +0.000 C 
ATOM     17  C   UNL     1       3.039   2.011  -0.252  0.00  0.00    +0.000 C 
ATOM     18  C   UNL     1       4.360   2.767  -0.296  0.00  0.00    +0.000 C 
ATOM     19  C   UNL     1       2.146   2.434  -1.426  0.00  0.00    +0.000 C 
ENDBRANCH  15  17
ENDBRANCH  13  15
ENDBRANCH   1  13
TORSDOF 5
