REMARK  Name = 
REMARK  3 active torsions:
REMARK  status: ('A' for Active; 'I' for Inactive)
REMARK    1  A    between atoms: C_2  and  C_14
REMARK    2  A    between atoms: N_3  and  C_4
REMARK    3  A    between atoms: C_18  and  N_19
REMARK                            x       y       z     vdW  Elec       q    Type
REMARK                         _______ _______ _______ _____ _____    ______ ____
ROOT
ATOM      1  O   UNL     1       0.426   1.658   1.292  0.00  0.00    +0.000 OA
ATOM      2  C   UNL     1       0.533   0.618   0.634  0.00  0.00    +0.000 C 
ATOM      3  N   UNL     1      -0.618  -0.007   0.128  0.00  0.00    +0.000 NA
ENDROOT
BRANCH   3   4
ATOM      4  C   UNL     1      -1.937   0.487   0.325  0.00  0.00    +0.000 A 
ATOM      5  C   UNL     1      -2.216   1.638   1.040  0.00  0.00    +0.000 A 
ATOM      6  C   UNL     1      -3.547   2.042   1.178  0.00  0.00    +0.000 A 
ATOM      7  C   UNL     1      -4.586   1.309   0.613  0.00  0.00    +0.000 A 
ATOM      8  C   UNL     1      -4.294   0.170  -0.092  0.00  0.00    +0.000 A 
ATOM      9  C   UNL     1      -2.972  -0.215  -0.219  0.00  0.00    +0.000 A 
ATOM     10  C   UNL     1      -2.689  -1.452  -0.988  0.00  0.00    +0.000 C 
ATOM     11  C   UNL     1      -3.610  -2.529  -0.519  0.00  0.00    +0.000 C 
ATOM     12  C   UNL     1      -5.032  -2.109  -0.353  0.00  0.00    +0.000 C 
ATOM     13  C   UNL     1      -5.315  -0.694  -0.740  0.00  0.00    +0.000 C 
ENDBRANCH   3   4
BRANCH   2  14
ATOM     14  C   UNL     1       1.835  -0.017   0.344  0.00  0.00    +0.000 A 
ATOM     15  C   UNL     1       1.934  -1.168  -0.386  0.00  0.00    +0.000 A 
ATOM     16  C   UNL     1       3.175  -1.736  -0.639  0.00  0.00    +0.000 A 
ATOM     17  C   UNL     1       4.318  -1.139  -0.151  0.00  0.00    +0.000 A 
ATOM     18  C   UNL     1       4.259   0.036   0.598  0.00  0.00    +0.000 A 
ATOM     19  C   UNL     1       2.997   0.555   0.817  0.00  0.00    +0.000 A 
BRANCH  18  20
ATOM     20  N   UNL     1       5.434   0.642   1.094  0.00  0.00    +0.000 N 
ATOM     21  O   UNL     1       6.529   0.124   0.860  0.00  0.00    +0.000 OA
ATOM     22  O   UNL     1       5.373   1.788   1.824  0.00  0.00    +0.000 OA
ENDBRANCH  18  20
ENDBRANCH   2  14
TORSDOF 3
