REMARK  Name = 
REMARK  5 active torsions:
REMARK  status: ('A' for Active; 'I' for Inactive)
REMARK    1  A    between atoms: O_2  and  C_3
REMARK    2  A    between atoms: C_7  and  N_8
REMARK    3  A    between atoms: N_8  and  C_9
REMARK    4  A    between atoms: C_10  and  N_11
REMARK    5  A    between atoms: C_17  and  O_18
REMARK                            x       y       z     vdW  Elec       q    Type
REMARK                         _______ _______ _______ _____ _____    ______ ____
ROOT
ATOM      1  C   UNL     1      -0.159  -1.374  -0.086  0.00  0.00    +0.000 A 
ATOM      2  C   UNL     1      -0.825  -2.603   0.030  0.00  0.00    +0.000 A 
ATOM      3  N   UNL     1      -2.040  -2.300   0.505  0.00  0.00    +0.000 NA
ATOM      4  C   UNL     1      -2.203  -0.983   0.702  0.00  0.00    +0.000 A 
ATOM      5  C   UNL     1      -3.246  -0.196   1.165  0.00  0.00    +0.000 A 
ATOM      6  C   UNL     1      -3.163   1.173   1.278  0.00  0.00    +0.000 A 
ATOM      7  C   UNL     1      -1.976   1.764   0.906  0.00  0.00    +0.000 A 
ATOM      8  C   UNL     1      -0.930   0.995   0.444  0.00  0.00    +0.000 A 
ATOM      9  C   UNL     1      -1.012  -0.375   0.331  0.00  0.00    +0.000 A 
ENDROOT
BRANCH   2  10
ATOM     10  N   UNL     1      -0.294  -3.886  -0.298  0.00  0.00    +0.000 N 
ATOM     11  O   UNL     1      -0.949  -4.933  -0.169  0.00  0.00    +0.000 OA
ATOM     12  O   UNL     1       0.982  -3.973  -0.773  0.00  0.00    +0.000 OA
ENDBRANCH   2  10
BRANCH   6  13
ATOM     13  O   UNL     1      -4.247   1.901   1.750  0.00  0.00    +0.000 OA
ATOM     14  C   UNL     1      -4.209   3.309   1.883  0.00  0.00    +0.000 C 
ENDBRANCH   6  13
BRANCH   1  15
ATOM     15  N   UNL     1       1.144  -1.296  -0.553  0.00  0.00    +0.000 NA
BRANCH  15  20
ATOM     16  C   UNL     1       2.612   2.114  -0.734  0.00  0.00    +0.000 A 
ATOM     17  C   UNL     1       3.875   1.836  -1.224  0.00  0.00    +0.000 A 
ATOM     18  C   UNL     1       4.184   0.522  -1.474  0.00  0.00    +0.000 A 
ATOM     19  C   UNL     1       3.289  -0.496  -1.253  0.00  0.00    +0.000 A 
ATOM     20  C   UNL     1       2.006  -0.230  -0.757  0.00  0.00    +0.000 A 
ATOM     21  C   UNL     1       1.726   1.083  -0.518  0.00  0.00    +0.000 A 
BRANCH  16  23
ATOM     22  C   UNL     1       3.173   4.497  -0.690  0.00  0.00    +0.000 C 
ATOM     23  O   UNL     1       2.261   3.450  -0.466  0.00  0.00    +0.000 OA
ENDBRANCH  16  23
ENDBRANCH  15  20
ENDBRANCH   1  15
TORSDOF 5
