REMARK  Name = 
REMARK  5 active torsions:
REMARK  status: ('A' for Active; 'I' for Inactive)
REMARK    1  A    between atoms: C_2  and  O_3
REMARK    2  A    between atoms: O_3  and  C_4
REMARK    3  A    between atoms: C_7  and  C_8
REMARK    4  A    between atoms: C_8  and  C_11
REMARK    5  A    between atoms: C_14  and  C_15
REMARK                            x       y       z     vdW  Elec       q    Type
REMARK                         _______ _______ _______ _____ _____    ______ ____
ROOT
ATOM      1  C   UNL     1      -0.635   1.323   0.394  0.00  0.00    +0.000 A 
ATOM      2  C   UNL     1       0.523   2.008   0.762  0.00  0.00    +0.000 A 
ATOM      3  C   UNL     1       1.747   1.379   0.755  0.00  0.00    +0.000 A 
ATOM      4  C   UNL     1       1.880   0.039   0.384  0.00  0.00    +0.000 A 
ATOM      5  C   UNL     1       0.719  -0.624   0.025  0.00  0.00    +0.000 A 
ATOM      6  C   UNL     1      -0.514  -0.008   0.026  0.00  0.00    +0.000 A 
ENDROOT
BRANCH   6   7
ATOM      7  C   UNL     1      -1.696  -0.783  -0.359  0.00  0.00    +0.000 A 
ATOM      8  C   UNL     1      -1.652  -2.115  -0.696  0.00  0.00    +0.000 A 
ATOM      9  C   UNL     1      -2.953  -2.506  -1.012  0.00  0.00    +0.000 A 
ATOM     10  N   UNL     1      -3.405  -3.807  -1.446  0.00  0.00    +0.000 NA
ATOM     11  O   UNL     1      -3.702  -1.424  -0.850  0.00  0.00    +0.000 OA
ATOM     12  N   UNL     1      -2.958  -0.392  -0.460  0.00  0.00    +0.000 NA
ENDBRANCH   6   7
BRANCH   4  13
ATOM     13  C   UNL     1       3.192  -0.681   0.385  0.00  0.00    +0.000 C 
ATOM     14  C   UNL     1       3.335  -1.455  -0.911  0.00  0.00    +0.000 C 
ATOM     15  C   UNL     1       3.187  -1.679   1.556  0.00  0.00    +0.000 C 
BRANCH  13  16
ATOM     16  C   UNL     1       4.346   0.272   0.505  0.00  0.00    +0.000 C 
ATOM     17  C   UNL     1       4.415   1.280  -0.601  0.00  0.00    +0.000 C 
ENDBRANCH  13  16
ENDBRANCH   4  13
BRANCH   1  18
ATOM     18  O   UNL     1      -1.893   1.858   0.374  0.00  0.00    +0.000 OA
BRANCH  18  20
ATOM     19  C   UNL     1      -1.629   4.174  -0.183  0.00  0.00    +0.000 C 
ATOM     20  C   UNL     1      -2.306   3.141   0.702  0.00  0.00    +0.000 C 
ENDBRANCH  18  20
ENDBRANCH   1  18
TORSDOF 5
