REMARK  Name = 
REMARK  3 active torsions:
REMARK  status: ('A' for Active; 'I' for Inactive)
REMARK    1  A    between atoms: C_2  and  N_5
REMARK    2  A    between atoms: C_10  and  C_11
REMARK    3  A    between atoms: C_11  and  C_13
REMARK                            x       y       z     vdW  Elec       q    Type
REMARK                         _______ _______ _______ _____ _____    ______ ____
ROOT
ATOM      1  N   UNL     1      -3.089   0.108   1.385  0.00  0.00    +0.000 NA
ATOM      2  C   UNL     1      -1.946   0.087   0.522  0.00  0.00    +0.000 A 
ATOM      3  N   UNL     1      -1.858   0.090  -0.772  0.00  0.00    +0.000 NA
ATOM      4  C   UNL     1      -0.716   0.054  -1.377  0.00  0.00    +0.000 A 
ATOM      5  N   UNL     1      -0.626   0.057  -2.825  0.00  0.00    +0.000 NA
ATOM      6  C   UNL     1       0.393   0.014  -0.601  0.00  0.00    +0.000 A 
ATOM      7  S   UNL     1      -0.269   0.030   0.982  0.00  0.00    +0.000 S 
ENDROOT
BRANCH   1   9
ATOM      8  C   UNL     1      -4.621  -1.098  -0.077  0.00  0.00    +0.000 C 
ATOM      9  C   UNL     1      -4.429   0.131   0.805  0.00  0.00    +0.000 C 
ATOM     10  C   UNL     1      -5.464   0.004   1.926  0.00  0.00    +0.000 C 
ATOM     11  C   UNL     1      -4.704   1.401   0.055  0.00  0.00    +0.000 C 
ENDBRANCH   1   9
BRANCH   6  12
ATOM     12  C   UNL     1       1.796  -0.038  -1.042  0.00  0.00    +0.000 C 
ATOM     13  O   UNL     1       2.058  -0.049  -2.270  0.00  0.00    +0.000 OA
BRANCH  12  14
ATOM     14  C   UNL     1       2.890  -0.079  -0.097  0.00  0.00    +0.000 A 
ATOM     15  C   UNL     1       2.625  -0.356   1.220  0.00  0.00    +0.000 A 
ATOM     16  C   UNL     1       3.615  -0.413   2.174  0.00  0.00    +0.000 A 
ATOM     17  C   UNL     1       4.913  -0.185   1.791  0.00  0.00    +0.000 A 
ATOM     18  C   UNL     1       5.229   0.096   0.487  0.00  0.00    +0.000 A 
ATOM     19  C   UNL     1       4.203   0.144  -0.439  0.00  0.00    +0.000 A 
ENDBRANCH  12  14
ENDBRANCH   6  12
TORSDOF 3
