REMARK  Name = 
REMARK  2 active torsions:
REMARK  status: ('A' for Active; 'I' for Inactive)
REMARK    1  A    between atoms: C_7  and  N_8
REMARK    2  A    between atoms: C_9  and  C_11
REMARK                            x       y       z     vdW  Elec       q    Type
REMARK                         _______ _______ _______ _____ _____    ______ ____
ROOT
ATOM      1  N   UNL     1       1.122  -0.384   0.299  0.00  0.00    +0.000 NA
ATOM      2  C   UNL     1       0.132   0.582  -0.021  0.00  0.00    +0.000 C 
ATOM      3  O   UNL     1       0.524   1.732  -0.331  0.00  0.00    +0.000 OA
ENDROOT
BRANCH   2   4
ATOM      4  C   UNL     1      -1.307   0.266   0.003  0.00  0.00    +0.000 C 
ATOM      5  C   UNL     1      -1.574  -0.863  -0.996  0.00  0.00    +0.000 C 
ATOM      6  C   UNL     1      -3.034  -1.162  -1.121  0.00  0.00    +0.000 C 
ATOM      7  C   UNL     1      -3.751   0.131  -1.494  0.00  0.00    +0.000 C 
ATOM      8  C   UNL     1      -3.585   1.164  -0.389  0.00  0.00    +0.000 C 
ATOM      9  C   UNL     1      -4.063   0.611   0.942  0.00  0.00    +0.000 C 
ATOM     10  C   UNL     1      -3.207  -0.594   1.282  0.00  0.00    +0.000 C 
ATOM     11  C   UNL     1      -3.509  -1.659   0.247  0.00  0.00    +0.000 C 
ATOM     12  C   UNL     1      -1.749  -0.257   1.363  0.00  0.00    +0.000 C 
ATOM     13  C   UNL     1      -2.109   1.495  -0.323  0.00  0.00    +0.000 C 
ENDBRANCH   2   4
BRANCH   1  20
ATOM     14  N   UNL     1       2.949  -2.354   0.943  0.00  0.00    +0.000 NA
ATOM     15  C   UNL     1       3.418  -1.036   0.589  0.00  0.00    +0.000 A 
ATOM     16  C   UNL     1       4.765  -0.767   0.574  0.00  0.00    +0.000 A 
ATOM     17  C   UNL     1       5.198   0.489   0.236  0.00  0.00    +0.000 A 
ATOM     18  C   UNL     1       4.298   1.470  -0.084  0.00  0.00    +0.000 A 
ATOM     19  C   UNL     1       2.963   1.194  -0.067  0.00  0.00    +0.000 A 
ATOM     20  C   UNL     1       2.517  -0.057   0.269  0.00  0.00    +0.000 A 
ENDBRANCH   1  20
TORSDOF 2
