REMARK  Name = 
REMARK  3 active torsions:
REMARK  status: ('A' for Active; 'I' for Inactive)
REMARK    1  A    between atoms: C_2  and  C_12
REMARK    2  A    between atoms: N_3  and  C_4
REMARK    3  A    between atoms: C_14  and  N_15
REMARK                            x       y       z     vdW  Elec       q    Type
REMARK                         _______ _______ _______ _____ _____    ______ ____
ROOT
ATOM      1  O   UNL     1       0.490  -1.650   0.146  0.00  0.00    +0.000 OA
ATOM      2  C   UNL     1       0.022  -0.457   0.248  0.00  0.00    +0.000 C 
ATOM      3  N   UNL     1       0.865   0.443   0.957  0.00  0.00    +0.000 NA
ENDROOT
BRANCH   3   4
ATOM      4  C   UNL     1       2.118   0.053   1.510  0.00  0.00    +0.000 C 
ATOM      5  C   UNL     1       2.707  -1.218   1.090  0.00  0.00    +0.000 C 
ATOM      6  C   UNL     1       3.325  -1.221  -0.285  0.00  0.00    +0.000 C 
ATOM      7  C   UNL     1       3.882   0.114  -0.713  0.00  0.00    +0.000 C 
ATOM      8  C   UNL     1       5.294   0.190  -0.142  0.00  0.00    +0.000 C 
ATOM      9  C   UNL     1       5.172   0.674   1.299  0.00  0.00    +0.000 C 
ATOM     10  C   UNL     1       4.029   1.668   1.305  0.00  0.00    +0.000 C 
ATOM     11  C   UNL     1       2.918   1.089   2.133  0.00  0.00    +0.000 C 
ENDBRANCH   3   4
BRANCH   2  12
ATOM     12  C   UNL     1      -1.268  -0.148  -0.341  0.00  0.00    +0.000 A 
ATOM     13  C   UNL     1      -2.450  -0.300   0.365  0.00  0.00    +0.000 A 
ATOM     14  C   UNL     1      -3.682  -0.050  -0.167  0.00  0.00    +0.000 A 
ATOM     15  C   UNL     1      -3.740   0.380  -1.489  0.00  0.00    +0.000 A 
ATOM     16  C   UNL     1      -2.591   0.552  -2.254  0.00  0.00    +0.000 A 
ATOM     17  C   UNL     1      -1.378   0.288  -1.673  0.00  0.00    +0.000 A 
ATOM     18 CL   UNL     1       0.139   0.482  -2.540  0.00  0.00    +0.000 Cl
BRANCH  14  19
ATOM     19  N   UNL     1      -4.901  -0.231   0.548  0.00  0.00    +0.000 N 
ATOM     20  O   UNL     1      -6.001  -0.106  -0.067  0.00  0.00    +0.000 OA
ATOM     21  O   UNL     1      -4.950  -0.552   1.877  0.00  0.00    +0.000 OA
ENDBRANCH  14  19
ENDBRANCH   2  12
TORSDOF 3
