REMARK  Name = 
REMARK  5 active torsions:
REMARK  status: ('A' for Active; 'I' for Inactive)
REMARK    1  A    between atoms: C_2  and  C_3
REMARK    2  A    between atoms: C_3  and  C_4
REMARK    3  A    between atoms: C_4  and  C_5
REMARK    4  A    between atoms: C_5  and  C_6
REMARK    5  A    between atoms: C_9  and  C_10
REMARK                            x       y       z     vdW  Elec       q    Type
REMARK                         _______ _______ _______ _____ _____    ______ ____
ROOT
ATOM      1  C   UNL     1      -1.990  -0.526  -0.063  0.00  0.00    +0.000 A 
ATOM      2  C   UNL     1      -1.303  -0.953   1.053  0.00  0.00    +0.000 A 
ATOM      3  C   UNL     1       0.066  -0.792   1.104  0.00  0.00    +0.000 A 
ATOM      4  C   UNL     1       0.799  -0.217   0.084  0.00  0.00    +0.000 A 
ATOM      5  C   UNL     1       0.100   0.203  -1.020  0.00  0.00    +0.000 A 
ATOM      6  C   UNL     1      -1.269   0.049  -1.087  0.00  0.00    +0.000 A 
ENDROOT
BRANCH   4   7
ATOM      7  C   UNL     1       2.259  -0.067   0.183  0.00  0.00    +0.000 C 
ATOM      8  C   UNL     1       2.959   0.474  -0.774  0.00  0.00    +0.000 C 
ATOM      9  C   UNL     1       4.417   0.664  -0.760  0.00  0.00    +0.000 C 
ATOM     10  C   UNL     1       5.093   0.188   0.459  0.00  0.00    +0.000 C 
ATOM     11  O   UNL     1       6.329   0.321   0.530  0.00  0.00    +0.000 OA
ATOM     12  N   UNL     1       4.331  -0.398   1.493  0.00  0.00    +0.000 NA
ATOM     13  N   UNL     1       2.948  -0.514   1.341  0.00  0.00    +0.000 NA
ENDBRANCH   4   7
BRANCH   1  14
ATOM     14  C   UNL     1      -3.452  -0.684  -0.148  0.00  0.00    +0.000 C 
BRANCH  14  15
ATOM     15  C   UNL     1      -4.161   0.519   0.409  0.00  0.00    +0.000 C 
BRANCH  15  16
ATOM     16  C   UNL     1      -5.660   0.277   0.284  0.00  0.00    +0.000 C 
BRANCH  16  18
ATOM     17  C   UNL     1      -5.520   1.365  -1.894  0.00  0.00    +0.000 C 
ATOM     18  C   UNL     1      -5.947   0.092  -1.194  0.00  0.00    +0.000 C 
ENDBRANCH  16  18
ENDBRANCH  15  16
ENDBRANCH  14  15
ENDBRANCH   1  14
TORSDOF 5
