REMARK  Name = 
REMARK  3 active torsions:
REMARK  status: ('A' for Active; 'I' for Inactive)
REMARK    1  A    between atoms: C_2  and  C_4
REMARK    2  A    between atoms: C_4  and  C_5
REMARK    3  A    between atoms: N_9  and  C_10
REMARK                            x       y       z     vdW  Elec       q    Type
REMARK                         _______ _______ _______ _____ _____    ______ ____
ROOT
ATOM      1  C   UNL     1       2.225   0.869   0.130  0.00  0.00    +0.000 C 
ATOM      2  N   UNL     1       2.606  -0.632   0.460  0.00  0.00    +0.000 NA
ATOM      3  C   UNL     1       1.364  -1.258   0.705  0.00  0.00    +0.000 C 
ATOM      4  O   UNL     1       1.185  -2.248   1.449  0.00  0.00    +0.000 OA
ATOM      5  N   UNL     1       0.347  -0.593  -0.024  0.00  0.00    +0.000 N 
ATOM      6  C   UNL     1       0.928   0.470  -0.743  0.00  0.00    +0.000 C 
ATOM      7  O   UNL     1       0.630   1.050  -1.787  0.00  0.00    +0.000 OA
ENDROOT
BRANCH   5   8
ATOM      8  C   UNL     1      -1.044  -0.883  -0.074  0.00  0.00    +0.000 A 
ATOM      9  C   UNL     1      -1.523  -2.196  -0.031  0.00  0.00    +0.000 A 
ATOM     10  C   UNL     1      -2.843  -2.513  -0.080  0.00  0.00    +0.000 A 
ATOM     11  C   UNL     1      -3.792  -1.518  -0.178  0.00  0.00    +0.000 A 
ATOM     12  C   UNL     1      -3.351  -0.223  -0.222  0.00  0.00    +0.000 A 
ATOM     13  C   UNL     1      -4.297   0.773  -0.320  0.00  0.00    +0.000 A 
ATOM     14  C   UNL     1      -3.941   2.096  -0.368  0.00  0.00    +0.000 A 
ATOM     15  C   UNL     1      -2.595   2.416  -0.317  0.00  0.00    +0.000 A 
ATOM     16  C   UNL     1      -1.648   1.418  -0.220  0.00  0.00    +0.000 A 
ATOM     17  C   UNL     1      -2.009   0.100  -0.171  0.00  0.00    +0.000 A 
ENDBRANCH   5   8
BRANCH   1  18
ATOM     18  C   UNL     1       3.228   0.936  -1.188  0.00  0.00    +0.000 C 
BRANCH  18  20
ATOM     19  C   UNL     1       4.817  -0.627  -0.034  0.00  0.00    +0.000 C 
ATOM     20  C   UNL     1       4.605   0.685  -0.698  0.00  0.00    +0.000 C 
ATOM     21  C   UNL     1       5.107   1.879   0.049  0.00  0.00    +0.000 C 
ENDBRANCH  18  20
ENDBRANCH   1  18
TORSDOF 3
