REMARK  Name = 
REMARK  3 active torsions:
REMARK  status: ('A' for Active; 'I' for Inactive)
REMARK    1  A    between atoms: C_2  and  C_13
REMARK    2  A    between atoms: N_3  and  N_4
REMARK    3  A    between atoms: C_5  and  C_6
REMARK                            x       y       z     vdW  Elec       q    Type
REMARK                         _______ _______ _______ _____ _____    ______ ____
ROOT
ATOM      1  O   UNL     1      -0.264   0.181  -2.050  0.00  0.00    +0.000 OA
ATOM      2  C   UNL     1      -0.979   0.051  -1.024  0.00  0.00    +0.000 C 
ATOM      3  N   UNL     1      -0.426  -0.426   0.184  0.00  0.00    +0.000 NA
ENDROOT
BRANCH   2   4
ATOM      4  C   UNL     1      -2.383   0.407  -1.127  0.00  0.00    +0.000 A 
ATOM      5  N   UNL     1      -3.054   0.871  -2.191  0.00  0.00    +0.000 NA
ATOM      6  N   UNL     1      -4.335   1.073  -1.860  0.00  0.00    +0.000 NA
ATOM      7  C   UNL     1      -4.530   0.745  -0.567  0.00  0.00    +0.000 A 
ATOM      8  C   UNL     1      -3.297   0.326  -0.110  0.00  0.00    +0.000 A 
ATOM      9  C   UNL     1      -3.202  -0.111   1.327  0.00  0.00    +0.000 C 
ATOM     10  C   UNL     1      -4.353  -1.071   1.545  0.00  0.00    +0.000 C 
ATOM     11  C   UNL     1      -5.688  -0.458   1.280  0.00  0.00    +0.000 C 
ATOM     12  C   UNL     1      -5.655   0.733   0.377  0.00  0.00    +0.000 C 
ENDBRANCH   2   4
BRANCH   3  13
ATOM     13  N   UNL     1       0.954  -0.755   0.212  0.00  0.00    +0.000 NA
ATOM     14  C   UNL     1       1.835   0.134   0.422  0.00  0.00    +0.000 C 
BRANCH  14  15
ATOM     15  C   UNL     1       3.266  -0.084   0.472  0.00  0.00    +0.000 A 
ATOM     16  C   UNL     1       3.882  -1.305   0.298  0.00  0.00    +0.000 A 
ATOM     17  C   UNL     1       5.256  -1.443   0.358  0.00  0.00    +0.000 A 
ATOM     18  C   UNL     1       6.053  -0.325   0.602  0.00  0.00    +0.000 A 
ATOM     19  F   UNL     1       7.401  -0.428   0.668  0.00  0.00    +0.000 F 
ATOM     20  C   UNL     1       5.441   0.879   0.774  0.00  0.00    +0.000 A 
ATOM     21  C   UNL     1       4.078   1.004   0.712  0.00  0.00    +0.000 A 
ENDBRANCH  14  15
ENDBRANCH   3  13
TORSDOF 3
