REMARK  Name = 
REMARK  2 active torsions:
REMARK  status: ('A' for Active; 'I' for Inactive)
REMARK    1  A    between atoms: C_5  and  N_6
REMARK    2  A    between atoms: C_7  and  C_9
REMARK                            x       y       z     vdW  Elec       q    Type
REMARK                         _______ _______ _______ _____ _____    ______ ____
ROOT
ATOM      1  N   UNL     1       0.508  -0.555   0.258  0.00  0.00    +0.000 NA
ATOM      2  C   UNL     1      -0.221   0.584  -0.177  0.00  0.00    +0.000 C 
ATOM      3  O   UNL     1       0.431   1.495  -0.717  0.00  0.00    +0.000 OA
ENDROOT
BRANCH   1   8
ATOM      4  C   UNL     1       6.137  -0.693  -0.550  0.00  0.00    +0.000 C 
ATOM      5  C   UNL     1       4.677  -0.630  -0.353  0.00  0.00    +0.000 A 
ATOM      6  C   UNL     1       3.950   0.466  -0.768  0.00  0.00    +0.000 A 
ATOM      7  C   UNL     1       2.588   0.445  -0.546  0.00  0.00    +0.000 A 
ATOM      8  C   UNL     1       1.935  -0.608   0.062  0.00  0.00    +0.000 A 
ATOM      9  C   UNL     1       2.681  -1.681   0.463  0.00  0.00    +0.000 A 
ATOM     10  C   UNL     1       1.964  -2.814   1.120  0.00  0.00    +0.000 C 
ATOM     11  C   UNL     1       4.051  -1.711   0.264  0.00  0.00    +0.000 A 
ENDBRANCH   1   8
BRANCH   2  12
ATOM     12  C   UNL     1      -1.652   0.725  -0.022  0.00  0.00    +0.000 A 
ATOM     13  C   UNL     1      -2.276   1.861  -0.474  0.00  0.00    +0.000 A 
ATOM     14  C   UNL     1      -3.635   2.055  -0.357  0.00  0.00    +0.000 A 
ATOM     15  C   UNL     1      -4.400   1.077   0.234  0.00  0.00    +0.000 A 
ATOM     16  C   UNL     1      -5.865   1.344   0.334  0.00  0.00    +0.000 C 
ATOM     17  C   UNL     1      -3.810  -0.058   0.691  0.00  0.00    +0.000 A 
ATOM     18  N   UNL     1      -4.637  -1.055   1.301  0.00  0.00    +0.000 NA
ATOM     19  C   UNL     1      -2.428  -0.247   0.567  0.00  0.00    +0.000 A 
ENDBRANCH   2  12
TORSDOF 2
