REMARK  Name = 
REMARK  3 active torsions:
REMARK  status: ('A' for Active; 'I' for Inactive)
REMARK    1  A    between atoms: C_2  and  O_3
REMARK    2  A    between atoms: O_3  and  C_4
REMARK    3  A    between atoms: C_4  and  C_6
REMARK                            x       y       z     vdW  Elec       q    Type
REMARK                         _______ _______ _______ _____ _____    ______ ____
ROOT
ATOM      1  C   UNL     1      -1.488  -0.310  -0.547  0.00  0.00    +0.000 A 
ATOM      2  C   UNL     1      -1.228  -1.674  -0.662  0.00  0.00    +0.000 A 
ATOM      3  C   UNL     1      -2.228  -2.720  -0.980  0.00  0.00    +0.000 C 
ATOM      4  N   UNL     1       0.091  -1.895  -0.436  0.00  0.00    +0.000 N 
ATOM      5  C   UNL     1       0.756  -3.185  -0.464  0.00  0.00    +0.000 C 
ATOM      6  C   UNL     1       0.710  -0.729  -0.176  0.00  0.00    +0.000 A 
ATOM      7  C   UNL     1      -0.263   0.251  -0.244  0.00  0.00    +0.000 A 
ATOM      8  C   UNL     1       0.099   1.562  -0.017  0.00  0.00    +0.000 A 
ATOM      9  C   UNL     1       1.419   1.920   0.280  0.00  0.00    +0.000 A 
ATOM     10  O   UNL     1       1.707   3.262   0.497  0.00  0.00    +0.000 OA
ATOM     11  C   UNL     1       2.379   0.926   0.344  0.00  0.00    +0.000 A 
ATOM     12  C   UNL     1       3.684   1.264   0.635  0.00  0.00    +0.000 A 
ATOM     13  C   UNL     1       4.663   0.270   0.702  0.00  0.00    +0.000 A 
ATOM     14  C   UNL     1       4.330  -1.044   0.480  0.00  0.00    +0.000 A 
ATOM     15  C   UNL     1       3.015  -1.347   0.191  0.00  0.00    +0.000 A 
ATOM     16  C   UNL     1       2.019  -0.397   0.115  0.00  0.00    +0.000 A 
ENDROOT
BRANCH   1  17
ATOM     17  C   UNL     1      -2.775   0.362  -0.712  0.00  0.00    +0.000 C 
ATOM     18  O   UNL     1      -3.204   0.806  -1.785  0.00  0.00    +0.000 OA
BRANCH  17  19
ATOM     19  O   UNL     1      -3.562   0.506   0.426  0.00  0.00    +0.000 OA
BRANCH  19  21
ATOM     20  C   UNL     1      -5.316   1.057   1.895  0.00  0.00    +0.000 C 
ATOM     21  C   UNL     1      -4.809   1.117   0.457  0.00  0.00    +0.000 C 
ENDBRANCH  19  21
ENDBRANCH  17  19
ENDBRANCH   1  17
TORSDOF 3
