REMARK  Name = 
REMARK  3 active torsions:
REMARK  status: ('A' for Active; 'I' for Inactive)
REMARK    1  A    between atoms: C_2  and  C_5
REMARK    2  A    between atoms: C_6  and  C_7
REMARK    3  A    between atoms: C_7  and  C_10
REMARK                            x       y       z     vdW  Elec       q    Type
REMARK                         _______ _______ _______ _____ _____    ______ ____
ROOT
ATOM      1  C   UNL     1      -0.530  -0.082   0.065  0.00  0.00    +0.000 A 
ATOM      2  C   UNL     1      -0.143  -1.295  -0.460  0.00  0.00    +0.000 A 
ATOM      3  C   UNL     1      -1.078  -2.233  -0.892  0.00  0.00    +0.000 A 
ATOM      4  C   UNL     1      -2.418  -1.958  -0.799  0.00  0.00    +0.000 A 
ATOM      5  C   UNL     1      -2.840  -0.738  -0.272  0.00  0.00    +0.000 A 
ATOM      6  C   UNL     1      -4.197  -0.507  -0.198  0.00  0.00    +0.000 A 
ATOM      7  C   UNL     1      -4.621   0.693   0.321  0.00  0.00    +0.000 A 
ATOM      8  C   UNL     1      -3.709   1.629   0.751  0.00  0.00    +0.000 A 
ATOM      9  C   UNL     1      -2.364   1.374   0.668  0.00  0.00    +0.000 A 
ATOM     10  C   UNL     1      -1.883   0.172   0.149  0.00  0.00    +0.000 A 
ENDROOT
BRANCH   1  11
ATOM     11  C   UNL     1       0.410   0.946   0.537  0.00  0.00    +0.000 C 
ATOM     12  C   UNL     1       0.121   2.217  -0.270  0.00  0.00    +0.000 C 
ATOM     13  O   UNL     1       0.249   1.263   1.881  0.00  0.00    +0.000 OA
BRANCH  11  15
ATOM     14  C   UNL     1       2.888   0.080   0.001  0.00  0.00    +0.000 C 
ATOM     15  C   UNL     1       1.774   0.464   0.248  0.00  0.00    +0.000 C 
BRANCH  14  17
ATOM     16  C   UNL     1       4.453  -0.332  -1.819  0.00  0.00    +0.000 C 
ATOM     17  C   UNL     1       4.259  -0.376  -0.320  0.00  0.00    +0.000 C 
ATOM     18  C   UNL     1       4.420  -1.788   0.155  0.00  0.00    +0.000 C 
ATOM     19  O   UNL     1       5.210   0.472   0.254  0.00  0.00    +0.000 OA
ENDBRANCH  14  17
ENDBRANCH  11  15
ENDBRANCH   1  11
TORSDOF 3
