REMARK  Name = 
REMARK  3 active torsions:
REMARK  status: ('A' for Active; 'I' for Inactive)
REMARK    1  A    between atoms: C_2  and  C_4
REMARK    2  A    between atoms: C_4  and  C_5
REMARK    3  A    between atoms: C_5  and  N_6
REMARK                            x       y       z     vdW  Elec       q    Type
REMARK                         _______ _______ _______ _____ _____    ______ ____
ROOT
ATOM      1  N   UNL     1      -1.319   0.457   0.476  0.00  0.00    +0.000 N 
ATOM      2  C   UNL     1      -1.042   1.011  -0.718  0.00  0.00    +0.000 A 
ATOM      3  S   UNL     1      -2.190   1.725  -1.648  0.00  0.00    +0.000 S 
ATOM      4  N   UNL     1       0.247   0.968  -1.155  0.00  0.00    +0.000 NA
ATOM      5  C   UNL     1       1.206   0.399  -0.432  0.00  0.00    +0.000 A 
ATOM      6  C   UNL     1       0.910  -0.165   0.788  0.00  0.00    +0.000 A 
ATOM      7  O   UNL     1       2.005  -0.648   1.289  0.00  0.00    +0.000 OA
ATOM      8  C   UNL     1       3.014  -0.447   0.488  0.00  0.00    +0.000 A 
ATOM      9  C   UNL     1       4.340  -0.785   0.612  0.00  0.00    +0.000 A 
ATOM     10  C   UNL     1       5.179  -0.435  -0.408  0.00  0.00    +0.000 A 
ATOM     11  C   UNL     1       4.758   0.230  -1.536  0.00  0.00    +0.000 A 
ATOM     12  C   UNL     1       3.426   0.557  -1.636  0.00  0.00    +0.000 A 
ATOM     13  C   UNL     1       2.573   0.218  -0.631  0.00  0.00    +0.000 A 
ATOM     14  C   UNL     1      -0.406  -0.133   1.258  0.00  0.00    +0.000 A 
ATOM     15  O   UNL     1      -0.677  -0.643   2.363  0.00  0.00    +0.000 OA
ENDROOT
BRANCH   1  16
ATOM     16  C   UNL     1      -2.687   0.488   0.967  0.00  0.00    +0.000 C 
BRANCH  16  17
ATOM     17  C   UNL     1      -3.393  -0.769   0.476  0.00  0.00    +0.000 C 
BRANCH  17  19
ATOM     18  C   UNL     1      -5.617  -1.908   0.580  0.00  0.00    +0.000 C 
ATOM     19  C   UNL     1      -4.820  -0.706   1.006  0.00  0.00    +0.000 C 
ATOM     20  C   UNL     1      -5.506   0.585   0.587  0.00  0.00    +0.000 C 
ENDBRANCH  17  19
ENDBRANCH  16  17
ENDBRANCH   1  16
TORSDOF 3
