REMARK  Name = 
REMARK  4 active torsions:
REMARK  status: ('A' for Active; 'I' for Inactive)
REMARK    1  A    between atoms: C_2  and  O_3
REMARK    2  A    between atoms: O_3  and  C_4
REMARK    3  A    between atoms: C_4  and  C_6
REMARK    4  A    between atoms: C_9  and  C_10
REMARK                            x       y       z     vdW  Elec       q    Type
REMARK                         _______ _______ _______ _____ _____    ______ ____
ROOT
ATOM      1  C   UNL     1       1.329  -0.364   0.695  0.00  0.00    +0.000 C 
ATOM      2  C   UNL     1       0.522  -0.835  -0.167  0.00  0.00    +0.000 C 
ATOM      3  C   UNL     1       0.863  -0.805  -1.605  0.00  0.00    +0.000 C 
ATOM      4  C   UNL     1      -0.861  -1.475   0.155  0.00  0.00    +0.000 C 
ATOM      5  N   UNL     1      -1.019  -1.413   1.631  0.00  0.00    +0.000 NA
ATOM      6  C   UNL     1      -0.132  -0.899   2.523  0.00  0.00    +0.000 C 
ATOM      7  O   UNL     1      -0.349  -0.885   3.804  0.00  0.00    +0.000 OA
ATOM      8  N   UNL     1       1.101  -0.342   2.098  0.00  0.00    +0.000 NA
ENDROOT
BRANCH   4   9
ATOM      9  C   UNL     1      -1.795  -0.234  -0.280  0.00  0.00    +0.000 A 
ATOM     10  C   UNL     1      -1.505   1.007   0.080  0.00  0.00    +0.000 A 
ATOM     11  C   UNL     1      -2.300   2.051  -0.292  0.00  0.00    +0.000 A 
ATOM     12  C   UNL     1      -3.405   1.804  -1.043  0.00  0.00    +0.000 A 
ATOM     13  C   UNL     1      -3.717   0.534  -1.421  0.00  0.00    +0.000 A 
ATOM     14  C   UNL     1      -2.895  -0.530  -1.034  0.00  0.00    +0.000 A 
ATOM     15  F   UNL     1      -3.217  -1.800  -1.418  0.00  0.00    +0.000 F 
ENDBRANCH   4   9
BRANCH   1  16
ATOM     16  C   UNL     1       2.601   0.208   0.222  0.00  0.00    +0.000 C 
ATOM     17  O   UNL     1       3.436   0.687   1.016  0.00  0.00    +0.000 OA
BRANCH  16  18
ATOM     18  O   UNL     1       2.922   0.237  -1.127  0.00  0.00    +0.000 OA
BRANCH  18  20
ATOM     19  C   UNL     1       4.263   2.258  -1.120  0.00  0.00    +0.000 C 
ATOM     20  C   UNL     1       4.156   0.796  -1.534  0.00  0.00    +0.000 C 
ENDBRANCH  18  20
ENDBRANCH  16  18
ENDBRANCH   1  16
TORSDOF 4
