REMARK  Name = 
REMARK  4 active torsions:
REMARK  status: ('A' for Active; 'I' for Inactive)
REMARK    1  A    between atoms: C_2  and  N_3
REMARK    2  A    between atoms: C_2  and  C_15
REMARK    3  A    between atoms: C_4  and  C_6
REMARK    4  A    between atoms: C_11  and  N_12
REMARK                            x       y       z     vdW  Elec       q    Type
REMARK                         _______ _______ _______ _____ _____    ______ ____
ROOT
ATOM      1  N   UNL     1       0.072  -0.515   0.434  0.00  0.00    +0.000 NA
ATOM      2  C   UNL     1      -0.951  -0.628  -0.507  0.00  0.00    +0.000 C 
ATOM      3  O   UNL     1      -0.891  -1.445  -1.439  0.00  0.00    +0.000 OA
ENDROOT
BRANCH   2   4
ATOM      4  C   UNL     1      -2.113   0.255  -0.376  0.00  0.00    +0.000 A 
ATOM      5  C   UNL     1      -2.593   1.028  -1.376  0.00  0.00    +0.000 A 
ATOM      6  C   UNL     1      -3.607   1.929  -1.232  0.00  0.00    +0.000 A 
ATOM      7  C   UNL     1      -4.182   2.055   0.026  0.00  0.00    +0.000 A 
ATOM      8  C   UNL     1      -3.734   1.296   1.059  0.00  0.00    +0.000 A 
ATOM      9  C   UNL     1      -2.697   0.391   0.869  0.00  0.00    +0.000 A 
BRANCH   9  10
ATOM     10  N   UNL     1      -2.324  -0.382   1.979  0.00  0.00    +0.000 N 
ATOM     11  O   UNL     1      -2.487   0.039   3.120  0.00  0.00    +0.000 OA
ATOM     12  O   UNL     1      -1.783  -1.622   1.827  0.00  0.00    +0.000 OA
ENDBRANCH   9  10
ENDBRANCH   2   4
BRANCH   1  14
ATOM     13  C   UNL     1       0.987  -2.372  -0.696  0.00  0.00    +0.000 C 
ATOM     14  C   UNL     1       1.341  -1.315   0.478  0.00  0.00    +0.000 C 
BRANCH  14  15
ATOM     15  C   UNL     1       2.192  -0.249  -0.505  0.00  0.00    +0.000 C 
ATOM     16  C   UNL     1       3.354  -1.274  -0.934  0.00  0.00    +0.000 C 
ATOM     17  C   UNL     1       4.624  -0.302  -0.858  0.00  0.00    +0.000 C 
ATOM     18  C   UNL     1       3.974   1.103  -1.256  0.00  0.00    +0.000 C 
ATOM     19  C   UNL     1       3.523   1.743  -0.048  0.00  0.00    +0.000 C 
ATOM     20  C   UNL     1       2.938   0.489   0.785  0.00  0.00    +0.000 C 
ATOM     21  C   UNL     1       4.356  -0.223   0.741  0.00  0.00    +0.000 C 
ENDBRANCH  14  15
ENDBRANCH   1  14
TORSDOF 4
