REMARK  Name = 
REMARK  1 active torsions:
REMARK  status: ('A' for Active; 'I' for Inactive)
REMARK    1  A    between atoms: N_2  and  C_3
REMARK                            x       y       z     vdW  Elec       q    Type
REMARK                         _______ _______ _______ _____ _____    ______ ____
ROOT
ATOM      1  C   UNL     1      -3.579  -0.276  -0.643  0.00  0.00    +0.000 A 
ATOM      2  C   UNL     1      -3.290  -1.281   0.257  0.00  0.00    +0.000 A 
ATOM      3  C   UNL     1      -2.006  -1.489   0.742  0.00  0.00    +0.000 A 
ATOM      4  C   UNL     1      -0.973  -0.687   0.331  0.00  0.00    +0.000 A 
ATOM      5  C   UNL     1      -1.250   0.323  -0.571  0.00  0.00    +0.000 A 
ATOM      6  C   UNL     1      -2.536   0.526  -1.052  0.00  0.00    +0.000 A 
ATOM      7  C   UNL     1      -0.115   1.159  -0.986  0.00  0.00    +0.000 C 
ATOM      8  O   UNL     1      -0.293   2.085  -1.794  0.00  0.00    +0.000 OA
ATOM      9  C   UNL     1       1.232   0.947  -0.482  0.00  0.00    +0.000 A 
ATOM     10  C   UNL     1       2.489   1.489  -0.625  0.00  0.00    +0.000 A 
ATOM     11  C   UNL     1       2.792   2.640  -1.501  0.00  0.00    +0.000 C 
ATOM     12  N   UNL     1       3.361   0.803   0.155  0.00  0.00    +0.000 N 
ATOM     13  C   UNL     1       4.780   1.077   0.274  0.00  0.00    +0.000 C 
ATOM     14  C   UNL     1       2.707  -0.185   0.812  0.00  0.00    +0.000 A 
ATOM     15  C   UNL     1       3.046  -1.175   1.713  0.00  0.00    +0.000 A 
ATOM     16  C   UNL     1       2.028  -2.016   2.159  0.00  0.00    +0.000 A 
ATOM     17  C   UNL     1       0.708  -1.897   1.739  0.00  0.00    +0.000 A 
ATOM     18  C   UNL     1       0.387  -0.900   0.838  0.00  0.00    +0.000 A 
ATOM     19  C   UNL     1       1.400  -0.086   0.411  0.00  0.00    +0.000 A 
ENDROOT
BRANCH   1  21
ATOM     20  C   UNL     1      -5.971  -0.967  -0.655  0.00  0.00    +0.000 C 
ATOM     21  N   UNL     1      -4.917  -0.090  -1.123  0.00  0.00    +0.000 NA
ENDBRANCH   1  21
TORSDOF 1
