REMARK  Name = 
REMARK  3 active torsions:
REMARK  status: ('A' for Active; 'I' for Inactive)
REMARK    1  A    between atoms: C_4  and  C_5
REMARK    2  A    between atoms: N_7  and  N_8
REMARK    3  A    between atoms: C_9  and  C_10
REMARK                            x       y       z     vdW  Elec       q    Type
REMARK                         _______ _______ _______ _____ _____    ______ ____
ROOT
ATOM      1  N   UNL     1      -0.059   0.245  -0.603  0.00  0.00    +0.000 NA
ATOM      2  C   UNL     1      -1.133  -0.173  -0.080  0.00  0.00    +0.000 C 
ENDROOT
BRANCH   2   3
ATOM      3  C   UNL     1      -2.454   0.404  -0.337  0.00  0.00    +0.000 A 
ATOM      4  C   UNL     1      -2.766   1.469  -1.163  0.00  0.00    +0.000 A 
ATOM      5  N   UNL     1      -4.100   1.687  -1.121  0.00  0.00    +0.000 NA
ATOM      6  C   UNL     1      -4.669   0.804  -0.299  0.00  0.00    +0.000 A 
ATOM      7  C   UNL     1      -5.981   0.577   0.106  0.00  0.00    +0.000 A 
ATOM      8  C   UNL     1      -6.296  -0.426   0.984  0.00  0.00    +0.000 A 
ATOM      9  C   UNL     1      -5.292  -1.229   1.480  0.00  0.00    +0.000 A 
ATOM     10  C   UNL     1      -3.997  -0.998   1.074  0.00  0.00    +0.000 A 
ATOM     11  C   UNL     1      -3.661   0.003   0.194  0.00  0.00    +0.000 A 
ENDBRANCH   2   3
BRANCH   1  14
ATOM     12  C   UNL     1       2.357   0.493  -0.617  0.00  0.00    +0.000 C 
ATOM     13  O   UNL     1       2.192   1.663  -1.045  0.00  0.00    +0.000 OA
ATOM     14  N   UNL     1       1.213  -0.297  -0.367  0.00  0.00    +0.000 NA
BRANCH  12  18
ATOM     15  C   UNL     1       7.398   0.134  -0.331  0.00  0.00    +0.000 C 
ATOM     16  C   UNL     1       5.942  -0.153  -0.272  0.00  0.00    +0.000 A 
ATOM     17  C   UNL     1       4.880   0.687  -0.609  0.00  0.00    +0.000 A 
ATOM     18  C   UNL     1       3.712  -0.014  -0.392  0.00  0.00    +0.000 A 
ATOM     19  C   UNL     1       4.105  -1.244   0.065  0.00  0.00    +0.000 A 
ATOM     20  C   UNL     1       3.191  -2.355   0.438  0.00  0.00    +0.000 C 
ATOM     21  O   UNL     1       5.420  -1.276   0.118  0.00  0.00    +0.000 OA
ENDBRANCH  12  18
ENDBRANCH   1  14
TORSDOF 3
