REMARK  Name = 
REMARK  3 active torsions:
REMARK  status: ('A' for Active; 'I' for Inactive)
REMARK    1  A    between atoms: C_2  and  C_4
REMARK    2  A    between atoms: C_7  and  C_8
REMARK    3  A    between atoms: C_8  and  N_9
REMARK                            x       y       z     vdW  Elec       q    Type
REMARK                         _______ _______ _______ _____ _____    ______ ____
ROOT
ATOM      1  C   UNL     1      -0.314   1.610   0.548  0.00  0.00    +0.000 C 
ENDROOT
BRANCH   1   2
ATOM      2  N   UNL     1      -1.456   1.054  -0.140  0.00  0.00    +0.000 N 
ATOM      3  C   UNL     1      -1.836   1.402  -1.374  0.00  0.00    +0.000 A 
ATOM      4  O   UNL     1      -1.281   2.241  -2.111  0.00  0.00    +0.000 OA
ATOM      5  N   UNL     1      -2.936   0.709  -1.741  0.00  0.00    +0.000 NA
ATOM      6  C   UNL     1      -3.264  -0.101  -0.714  0.00  0.00    +0.000 A 
ATOM      7  C   UNL     1      -4.279  -1.014  -0.536  0.00  0.00    +0.000 A 
ATOM      8  C   UNL     1      -4.333  -1.691   0.657  0.00  0.00    +0.000 A 
ATOM      9  C   UNL     1      -3.403  -1.460   1.636  0.00  0.00    +0.000 A 
ATOM     10  C   UNL     1      -2.395  -0.553   1.460  0.00  0.00    +0.000 A 
ATOM     11  C   UNL     1      -2.312   0.139   0.281  0.00  0.00    +0.000 A 
ENDBRANCH   1   2
BRANCH   1  15
ATOM     12  C   UNL     1       3.285  -0.545  -0.263  0.00  0.00    +0.000 A 
ATOM     13  C   UNL     1       2.859   0.511  -1.029  0.00  0.00    +0.000 A 
ATOM     14  C   UNL     1       1.705   1.215  -0.782  0.00  0.00    +0.000 A 
ATOM     15  C   UNL     1       0.927   0.842   0.294  0.00  0.00    +0.000 A 
ATOM     16  C   UNL     1       1.321  -0.213   1.087  0.00  0.00    +0.000 A 
ATOM     17  C   UNL     1       2.489  -0.902   0.813  0.00  0.00    +0.000 A 
BRANCH  12  19
ATOM     18  C   UNL     1       5.375  -0.339  -1.461  0.00  0.00    +0.000 C 
ATOM     19  C   UNL     1       4.544  -1.239  -0.610  0.00  0.00    +0.000 C 
ATOM     20  C   UNL     1       5.305  -1.666   0.622  0.00  0.00    +0.000 C 
ENDBRANCH  12  19
ENDBRANCH   1  15
TORSDOF 3
