REMARK  Name = 
REMARK  3 active torsions:
REMARK  status: ('A' for Active; 'I' for Inactive)
REMARK    1  A    between atoms: C_2  and  O_3
REMARK    2  A    between atoms: O_3  and  C_4
REMARK    3  A    between atoms: C_11  and  C_12
REMARK                            x       y       z     vdW  Elec       q    Type
REMARK                         _______ _______ _______ _____ _____    ______ ____
ROOT
ATOM      1  C   UNL     1       2.824  -0.015  -0.589  0.00  0.00    +0.000 A 
ATOM      2  C   UNL     1       3.341  -1.188  -1.096  0.00  0.00    +0.000 A 
ATOM      3  C   UNL     1       2.467  -2.198  -1.429  0.00  0.00    +0.000 A 
ATOM      4  C   UNL     1       1.101  -2.086  -1.277  0.00  0.00    +0.000 A 
ATOM      5  N   UNL     1       0.036  -2.866  -1.504  0.00  0.00    +0.000 NA
ATOM      6  C   UNL     1      -1.090  -2.199  -1.151  0.00  0.00    +0.000 A 
ATOM      7  C   UNL     1      -2.491  -2.694  -1.238  0.00  0.00    +0.000 C 
ATOM      8  C   UNL     1      -0.757  -0.959  -0.684  0.00  0.00    +0.000 A 
ATOM      9  C   UNL     1       0.621  -0.881  -0.761  0.00  0.00    +0.000 A 
ATOM     10  C   UNL     1       1.475   0.127  -0.427  0.00  0.00    +0.000 A 
ENDROOT
BRANCH   8  11
ATOM     11  C   UNL     1      -1.640   0.117  -0.187  0.00  0.00    +0.000 A 
ATOM     12  C   UNL     1      -2.138   1.056  -1.055  0.00  0.00    +0.000 A 
ATOM     13  S   UNL     1      -3.076   2.043   0.012  0.00  0.00    +0.000 S 
ATOM     14  C   UNL     1      -2.761   1.191   1.456  0.00  0.00    +0.000 A 
ATOM     15  N   UNL     1      -3.203   1.408   2.814  0.00  0.00    +0.000 NA
ATOM     16  C   UNL     1      -4.077   2.561   3.003  0.00  0.00    +0.000 C 
ATOM     17  N   UNL     1      -1.978   0.223   1.062  0.00  0.00    +0.000 NA
ENDBRANCH   8  11
BRANCH   1  18
ATOM     18  O   UNL     1       3.691   0.999  -0.254  0.00  0.00    +0.000 OA
BRANCH  18  20
ATOM     19  C   UNL     1       4.429   3.132   0.535  0.00  0.00    +0.000 C 
ATOM     20  C   UNL     1       3.225   2.231   0.272  0.00  0.00    +0.000 C 
ENDBRANCH  18  20
ENDBRANCH   1  18
TORSDOF 3
