REMARK  Name = 
REMARK  5 active torsions:
REMARK  status: ('A' for Active; 'I' for Inactive)
REMARK    1  A    between atoms: N_4  and  C_5
REMARK    2  A    between atoms: C_11  and  N_12
REMARK    3  A    between atoms: N_12  and  C_13
REMARK    4  A    between atoms: C_13  and  C_14
REMARK    5  A    between atoms: C_16  and  N_17
REMARK                            x       y       z     vdW  Elec       q    Type
REMARK                         _______ _______ _______ _____ _____    ______ ____
ROOT
ATOM      1  C   UNL     1      -1.307  -3.056   2.526  0.00  0.00    +0.000 C 
ATOM      2  C   UNL     1      -0.861  -1.980   1.561  0.00  0.00    +0.000 A 
ATOM      3  N   UNL     1       0.276  -1.289   1.582  0.00  0.00    +0.000 NA
ATOM      4  N   UNL     1       0.315  -0.424   0.561  0.00  0.00    +0.000 N 
ATOM      5  C   UNL     1      -0.812  -0.540  -0.150  0.00  0.00    +0.000 A 
ATOM      6  C   UNL     1      -1.569  -1.538   0.489  0.00  0.00    +0.000 A 
ENDROOT
BRANCH   4   7
ATOM      7  C   UNL     1       1.440   0.448   0.322  0.00  0.00    +0.000 A 
ATOM      8  C   UNL     1       1.853   1.401   1.218  0.00  0.00    +0.000 A 
ATOM      9  C   UNL     1       2.937   2.186   0.937  0.00  0.00    +0.000 A 
ATOM     10  C   UNL     1       3.635   2.043  -0.241  0.00  0.00    +0.000 A 
ATOM     11  C   UNL     1       3.226   1.087  -1.149  0.00  0.00    +0.000 A 
ATOM     12  C   UNL     1       2.123   0.288  -0.861  0.00  0.00    +0.000 A 
ENDBRANCH   4   7
BRANCH   6  13
ATOM     13  N   UNL     1      -2.830  -1.949   0.040  0.00  0.00    +0.000 N 
ATOM     14  O   UNL     1      -2.929  -2.658  -0.977  0.00  0.00    +0.000 OA
ATOM     15  O   UNL     1      -3.981  -1.591   0.692  0.00  0.00    +0.000 OA
ENDBRANCH   6  13
BRANCH   5  16
ATOM     16  N   UNL     1      -1.229   0.177  -1.306  0.00  0.00    +0.000 NA
BRANCH  16  17
ATOM     17  C   UNL     1      -0.459   1.241  -1.864  0.00  0.00    +0.000 C 
BRANCH  17  18
ATOM     18  C   UNL     1      -0.412   2.468  -0.996  0.00  0.00    +0.000 C 
ATOM     19 CL   UNL     1       0.586   3.686  -1.851  0.00  0.00    +0.000 Cl
ENDBRANCH  17  18
ENDBRANCH  16  17
ENDBRANCH   5  16
TORSDOF 5
