REMARK  Name = 
REMARK  4 active torsions:
REMARK  status: ('A' for Active; 'I' for Inactive)
REMARK    1  A    between atoms: C_3  and  C_4
REMARK    2  A    between atoms: C_4  and  O_6
REMARK    3  A    between atoms: O_6  and  C_7
REMARK    4  A    between atoms: C_11  and  C_12
REMARK                            x       y       z     vdW  Elec       q    Type
REMARK                         _______ _______ _______ _____ _____    ______ ____
ROOT
ATOM      1  C   UNL     1      -2.326   1.331  -1.371  0.00  0.00    +0.000 C 
ATOM      2  C   UNL     1      -1.119   1.722  -0.572  0.00  0.00    +0.000 C 
ATOM      3  C   UNL     1      -0.659   0.919   0.307  0.00  0.00    +0.000 C 
ATOM      4  C   UNL     1       0.570   1.179   1.204  0.00  0.00    +0.000 C 
ATOM      5  N   UNL     1       1.075   2.518   0.831  0.00  0.00    +0.000 NA
ATOM      6  C   UNL     1       0.580   3.351  -0.098  0.00  0.00    +0.000 C 
ATOM      7  O   UNL     1       1.154   4.508  -0.303  0.00  0.00    +0.000 OA
ATOM      8  N   UNL     1      -0.553   3.004  -0.860  0.00  0.00    +0.000 NA
ENDROOT
BRANCH   4   9
ATOM      9  C   UNL     1       1.586   0.183   0.477  0.00  0.00    +0.000 A 
ATOM     10  C   UNL     1       2.004  -0.850   1.289  0.00  0.00    +0.000 A 
ATOM     11  C   UNL     1       2.904  -1.793   0.754  0.00  0.00    +0.000 A 
ATOM     12  C   UNL     1       3.324  -1.650  -0.538  0.00  0.00    +0.000 A 
ATOM     13  O   UNL     1       4.218  -2.576  -1.088  0.00  0.00    +0.000 OA
ATOM     14  C   UNL     1       2.885  -0.614  -1.302  0.00  0.00    +0.000 A 
ATOM     15  C   UNL     1       2.011   0.286  -0.754  0.00  0.00    +0.000 A 
ENDBRANCH   4   9
BRANCH   3  16
ATOM     16  C   UNL     1      -1.289  -0.359   0.539  0.00  0.00    +0.000 C 
ATOM     17  O   UNL     1      -0.912  -1.219   1.381  0.00  0.00    +0.000 OA
BRANCH  16  18
ATOM     18  O   UNL     1      -2.409  -0.744  -0.189  0.00  0.00    +0.000 OA
BRANCH  18  19
ATOM     19  C   UNL     1      -3.059  -1.962  -0.012  0.00  0.00    +0.000 C 
ATOM     20  C   UNL     1      -4.231  -2.085  -0.943  0.00  0.00    +0.000 C 
ATOM     21  C   UNL     1      -2.155  -3.159  -0.170  0.00  0.00    +0.000 C 
ATOM     22  C   UNL     1      -3.599  -1.990   1.417  0.00  0.00    +0.000 C 
ENDBRANCH  18  19
ENDBRANCH  16  18
ENDBRANCH   3  16
TORSDOF 4
