REMARK  Name = 
REMARK  3 active torsions:
REMARK  status: ('A' for Active; 'I' for Inactive)
REMARK    1  A    between atoms: C_2  and  C_5
REMARK    2  A    between atoms: C_8  and  C_9
REMARK    3  A    between atoms: C_9  and  C_10
REMARK                            x       y       z     vdW  Elec       q    Type
REMARK                         _______ _______ _______ _____ _____    ______ ____
ROOT
ATOM      1  C   UNL     1      -2.858   0.028  -0.113  0.00  0.00    +0.000 A 
ATOM      2  C   UNL     1      -2.062   0.548   0.914  0.00  0.00    +0.000 A 
ATOM      3  C   UNL     1      -0.837   0.007   1.204  0.00  0.00    +0.000 A 
ATOM      4  C   UNL     1      -0.358  -1.077   0.480  0.00  0.00    +0.000 A 
ATOM      5  C   UNL     1      -1.139  -1.592  -0.528  0.00  0.00    +0.000 A 
ATOM      6  C   UNL     1      -2.356  -1.045  -0.807  0.00  0.00    +0.000 A 
ENDROOT
BRANCH   1   8
ATOM      7  C   UNL     1      -4.850  -0.204  -1.546  0.00  0.00    +0.000 C 
ATOM      8  C   UNL     1      -4.174   0.603  -0.443  0.00  0.00    +0.000 C 
ATOM      9  C   UNL     1      -3.921   1.985  -1.032  0.00  0.00    +0.000 C 
ATOM     10  C   UNL     1      -5.110   0.717   0.727  0.00  0.00    +0.000 C 
ENDBRANCH   1   8
BRANCH   4  11
ATOM     11  C   UNL     1       0.991  -1.654   0.834  0.00  0.00    +0.000 C 
BRANCH  11  12
ATOM     12  C   UNL     1       2.032  -0.675   0.482  0.00  0.00    +0.000 A 
ATOM     13  N   UNL     1       1.678   0.570   0.148  0.00  0.00    +0.000 NA
ATOM     14  N   UNL     1       2.590   1.482  -0.127  0.00  0.00    +0.000 NA
ATOM     15  C   UNL     1       3.917   1.225  -0.090  0.00  0.00    +0.000 A 
ATOM     16  S   UNL     1       5.053   2.370  -0.426  0.00  0.00    +0.000 S 
ATOM     17  N   UNL     1       4.262  -0.026   0.246  0.00  0.00    +0.000 NA
ATOM     18  C   UNL     1       3.372  -0.997   0.536  0.00  0.00    +0.000 A 
ATOM     19  O   UNL     1       3.771  -2.266   0.871  0.00  0.00    +0.000 OA
ENDBRANCH  11  12
ENDBRANCH   4  11
TORSDOF 3
