REMARK  Name = 
REMARK  2 active torsions:
REMARK  status: ('A' for Active; 'I' for Inactive)
REMARK    1  A    between atoms: C_6  and  C_7
REMARK    2  A    between atoms: N_11  and  C_12
REMARK                            x       y       z     vdW  Elec       q    Type
REMARK                         _______ _______ _______ _____ _____    ______ ____
ROOT
ATOM      1  C   UNL     1      -1.000   3.530  -0.802  0.00  0.00    +0.000 C 
ATOM      2  C   UNL     1      -1.440   2.107  -0.622  0.00  0.00    +0.000 A 
ATOM      3  C   UNL     1      -2.735   1.709  -0.771  0.00  0.00    +0.000 A 
ATOM      4  C   UNL     1      -3.047   0.395  -0.589  0.00  0.00    +0.000 A 
ATOM      5  C   UNL     1      -4.448  -0.085  -0.742  0.00  0.00    +0.000 C 
ATOM      6  C   UNL     1      -2.060  -0.508  -0.260  0.00  0.00    +0.000 A 
ATOM      7  C   UNL     1      -0.754  -0.093  -0.112  0.00  0.00    +0.000 A 
ATOM      8  N   UNL     1       0.274  -1.013   0.228  0.00  0.00    +0.000 NA
ATOM      9  N   UNL     1      -0.479   1.212  -0.298  0.00  0.00    +0.000 NA
ENDROOT
BRANCH   8  10
ATOM     10  C   UNL     1       1.626  -0.580   0.381  0.00  0.00    +0.000 A 
ATOM     11  C   UNL     1       2.618  -1.481   0.711  0.00  0.00    +0.000 A 
ATOM     12  C   UNL     1       3.943  -1.056   0.860  0.00  0.00    +0.000 A 
ATOM     13  C   UNL     1       4.301   0.255   0.686  0.00  0.00    +0.000 A 
ATOM     14  F   UNL     1       5.563   0.732   0.815  0.00  0.00    +0.000 F 
ATOM     15  C   UNL     1       3.313   1.157   0.357  0.00  0.00    +0.000 A 
ATOM     16  C   UNL     1       1.996   0.738   0.207  0.00  0.00    +0.000 A 
ENDBRANCH   8  10
BRANCH   6  17
ATOM     17  C   UNL     1      -2.408  -1.908  -0.068  0.00  0.00    +0.000 C 
ATOM     18  N   UNL     1      -3.741  -2.356  -0.215  0.00  0.00    +0.000 NA
ATOM     19  O   UNL     1      -1.522  -2.755   0.234  0.00  0.00    +0.000 OA
ENDBRANCH   6  17
TORSDOF 2
