REMARK  Name = 
REMARK  4 active torsions:
REMARK  status: ('A' for Active; 'I' for Inactive)
REMARK    1  A    between atoms: C_2  and  C_3
REMARK    2  A    between atoms: C_6  and  N_7
REMARK    3  A    between atoms: N_7  and  N_8
REMARK    4  A    between atoms: C_9  and  C_11
REMARK                            x       y       z     vdW  Elec       q    Type
REMARK                         _______ _______ _______ _____ _____    ______ ____
ROOT
ATOM      1  N   UNL     1       0.359  -0.288  -0.961  0.00  0.00    +0.000 NA
ATOM      2  C   UNL     1       1.322  -1.129  -0.371  0.00  0.00    +0.000 C 
ATOM      3  O   UNL     1       1.058  -2.322  -0.177  0.00  0.00    +0.000 OA
ENDROOT
BRANCH   2   4
ATOM      4  C   UNL     1       2.603  -0.541  -0.010  0.00  0.00    +0.000 A 
ATOM      5  C   UNL     1       2.772   0.003   1.248  0.00  0.00    +0.000 A 
ATOM      6  C   UNL     1       3.987   0.573   1.626  0.00  0.00    +0.000 A 
ATOM      7  C   UNL     1       5.059   0.614   0.763  0.00  0.00    +0.000 A 
ATOM      8  F   UNL     1       6.252   1.171   1.121  0.00  0.00    +0.000 F 
ATOM      9  C   UNL     1       4.888   0.070  -0.491  0.00  0.00    +0.000 A 
ATOM     10  C   UNL     1       3.678  -0.501  -0.875  0.00  0.00    +0.000 A 
ENDBRANCH   2   4
BRANCH   1  11
ATOM     11  N   UNL     1      -0.883  -0.788  -1.327  0.00  0.00    +0.000 NA
BRANCH  11  15
ATOM     12  C   UNL     1      -4.718   0.175  -0.528  0.00  0.00    +0.000 C 
ATOM     13  C   UNL     1      -4.007  -0.601   0.736  0.00  0.00    +0.000 C 
ATOM     14  C   UNL     1      -2.798  -1.140   0.060  0.00  0.00    +0.000 C 
ATOM     15  C   UNL     1      -2.069  -0.310  -0.651  0.00  0.00    +0.000 C 
ATOM     16  C   UNL     1      -2.392   1.107  -0.806  0.00  0.00    +0.000 C 
ATOM     17  C   UNL     1      -3.769   1.504  -0.395  0.00  0.00    +0.000 C 
BRANCH  12  19
ATOM     18  C   UNL     1      -5.394   1.627   1.442  0.00  0.00    +0.000 C 
ATOM     19  C   UNL     1      -5.946   0.777   0.367  0.00  0.00    +0.000 C 
ENDBRANCH  12  19
ENDBRANCH  11  15
ENDBRANCH   1  11
TORSDOF 4
