REMARK  Name = 
REMARK  5 active torsions:
REMARK  status: ('A' for Active; 'I' for Inactive)
REMARK    1  A    between atoms: C_2  and  N_3
REMARK    2  A    between atoms: C_2  and  C_13
REMARK    3  A    between atoms: N_3  and  N_4
REMARK    4  A    between atoms: C_5  and  C_7
REMARK    5  A    between atoms: C_16  and  C_17
REMARK                            x       y       z     vdW  Elec       q    Type
REMARK                         _______ _______ _______ _____ _____    ______ ____
ROOT
ATOM      1  N   UNL     1       0.014  -0.280   0.746  0.00  0.00    +0.000 NA
ENDROOT
BRANCH   1   2
ATOM      2  N   UNL     1      -1.185  -0.193   0.079  0.00  0.00    +0.000 NA
ATOM      3  C   UNL     1      -2.451  -0.412   0.704  0.00  0.00    +0.000 C 
ATOM      4  O   UNL     1      -2.482  -0.702   1.920  0.00  0.00    +0.000 OA
BRANCH   3   5
ATOM      5  C   UNL     1      -3.695  -0.298  -0.065  0.00  0.00    +0.000 A 
ATOM      6  C   UNL     1      -4.991  -0.408   0.387  0.00  0.00    +0.000 A 
ATOM      7  C   UNL     1      -5.818  -0.222  -0.697  0.00  0.00    +0.000 A 
ATOM      8  O   UNL     1      -5.067  -0.011  -1.751  0.00  0.00    +0.000 OA
ATOM      9  C   UNL     1      -3.796  -0.047  -1.423  0.00  0.00    +0.000 A 
ATOM     10  C   UNL     1      -2.610   0.136  -2.286  0.00  0.00    +0.000 C 
ENDBRANCH   3   5
ENDBRANCH   1   2
BRANCH   1  12
ATOM     11  C   UNL     1       0.604   1.851   1.542  0.00  0.00    +0.000 C 
ATOM     12  C   UNL     1       0.948   0.747   0.955  0.00  0.00    +0.000 C 
BRANCH  12  13
ATOM     13  C   UNL     1       2.343   0.595   0.517  0.00  0.00    +0.000 A 
ATOM     14  C   UNL     1       3.412   1.430   0.669  0.00  0.00    +0.000 A 
ATOM     15  C   UNL     1       4.582   1.059   0.177  0.00  0.00    +0.000 A 
ATOM     16  C   UNL     1       4.660  -0.144  -0.460  0.00  0.00    +0.000 A 
ATOM     17  S   UNL     1       3.063  -0.721  -0.344  0.00  0.00    +0.000 S 
BRANCH  16  18
ATOM     18  C   UNL     1       5.882  -0.764  -1.089  0.00  0.00    +0.000 C 
ATOM     19  C   UNL     1       6.585  -1.617  -0.032  0.00  0.00    +0.000 C 
ENDBRANCH  16  18
ENDBRANCH  12  13
ENDBRANCH   1  12
TORSDOF 5
