REMARK  Name = 
REMARK  4 active torsions:
REMARK  status: ('A' for Active; 'I' for Inactive)
REMARK    1  A    between atoms: C_2  and  C_3
REMARK    2  A    between atoms: C_6  and  N_7
REMARK    3  A    between atoms: N_7  and  N_8
REMARK    4  A    between atoms: C_9  and  C_11
REMARK                            x       y       z     vdW  Elec       q    Type
REMARK                         _______ _______ _______ _____ _____    ______ ____
ROOT
ATOM      1  N   UNL     1      -0.692  -1.242  -1.072  0.00  0.00    +0.000 NA
ATOM      2  C   UNL     1      -1.417  -0.097  -0.699  0.00  0.00    +0.000 C 
ATOM      3  O   UNL     1      -0.923   1.016  -1.014  0.00  0.00    +0.000 OA
ENDROOT
BRANCH   2   4
ATOM      4  C   UNL     1      -2.693  -0.128   0.024  0.00  0.00    +0.000 A 
ATOM      5  C   UNL     1      -3.895  -0.173  -0.687  0.00  0.00    +0.000 A 
ATOM      6  C   UNL     1      -5.109  -0.203  -0.093  0.00  0.00    +0.000 A 
ATOM      7  C   UNL     1      -5.220  -0.189   1.263  0.00  0.00    +0.000 A 
ATOM      8  C   UNL     1      -4.041  -0.145   2.022  0.00  0.00    +0.000 A 
ATOM      9  C   UNL     1      -2.800  -0.116   1.395  0.00  0.00    +0.000 A 
ATOM     10 CL   UNL     1      -1.368  -0.063   2.368  0.00  0.00    +0.000 Cl
ENDBRANCH   2   4
BRANCH   1  11
ATOM     11  N   UNL     1       0.518  -1.155  -1.759  0.00  0.00    +0.000 NA
BRANCH  11  15
ATOM     12  C   UNL     1       3.715  -0.505   0.554  0.00  0.00    +0.000 C 
ATOM     13  C   UNL     1       4.002  -0.161  -1.024  0.00  0.00    +0.000 C 
ATOM     14  C   UNL     1       2.919  -1.038  -1.624  0.00  0.00    +0.000 C 
ATOM     15  C   UNL     1       1.696  -0.544  -1.331  0.00  0.00    +0.000 C 
ATOM     16  C   UNL     1       1.761   0.699  -0.526  0.00  0.00    +0.000 C 
ATOM     17  C   UNL     1       2.541   0.613   0.718  0.00  0.00    +0.000 C 
BRANCH  12  19
ATOM     18  C   UNL     1       6.103  -0.073   0.407  0.00  0.00    +0.000 C 
ATOM     19  C   UNL     1       4.903   0.537   1.079  0.00  0.00    +0.000 C 
ENDBRANCH  12  19
ENDBRANCH  11  15
ENDBRANCH   1  11
TORSDOF 4
