REMARK  Name = 
REMARK  2 active torsions:
REMARK  status: ('A' for Active; 'I' for Inactive)
REMARK    1  A    between atoms: C_6  and  C_7
REMARK    2  A    between atoms: C_11  and  C_12
REMARK                            x       y       z     vdW  Elec       q    Type
REMARK                         _______ _______ _______ _____ _____    ______ ____
ROOT
ATOM      1  C   UNL     1      -1.125  -3.037  -1.259  0.00  0.00    +0.000 C 
ATOM      2  C   UNL     1      -1.099  -1.592  -0.964  0.00  0.00    +0.000 C 
ATOM      3  C   UNL     1      -1.929  -0.800  -1.503  0.00  0.00    +0.000 C 
ATOM      4  C   UNL     1      -1.574   0.611  -0.956  0.00  0.00    +0.000 C 
ATOM      5  C   UNL     1      -2.978   1.316  -1.389  0.00  0.00    +0.000 C 
ATOM      6  C   UNL     1      -1.901   0.432   0.555  0.00  0.00    +0.000 C 
ATOM      7  C   UNL     1      -1.036   1.612   1.071  0.00  0.00    +0.000 C 
ATOM      8  O   UNL     1       0.269   1.070   0.947  0.00  0.00    +0.000 OA
ATOM      9  C   UNL     1       0.350   0.386  -0.382  0.00  0.00    +0.000 C 
ATOM     10  C   UNL     1      -0.022  -1.196   0.101  0.00  0.00    +0.000 C 
ATOM     11  C   UNL     1      -1.136  -0.726   1.333  0.00  0.00    +0.000 C 
ATOM     12  C   UNL     1      -2.229  -1.883   1.132  0.00  0.00    +0.000 C 
ENDROOT
BRANCH   9  13
ATOM     13  C   UNL     1       1.937   0.223  -0.316  0.00  0.00    +0.000 A 
ATOM     14  C   UNL     1       2.544  -0.958  -0.263  0.00  0.00    +0.000 A 
ATOM     15  C   UNL     1       3.926  -1.012  -0.227  0.00  0.00    +0.000 A 
ATOM     16  C   UNL     1       4.709   0.130  -0.244  0.00  0.00    +0.000 A 
ATOM     17  C   UNL     1       4.047   1.333  -0.299  0.00  0.00    +0.000 A 
ATOM     18  C   UNL     1       2.671   1.390  -0.335  0.00  0.00    +0.000 A 
ATOM     19  O   UNL     1       2.025   2.615  -0.389  0.00  0.00    +0.000 OA
ENDBRANCH   9  13
BRANCH   6  20
ATOM     20  C   UNL     1      -3.267   0.472   0.955  0.00  0.00    +0.000 C 
ATOM     21  O   UNL     1      -4.182  -0.385   0.497  0.00  0.00    +0.000 OA
ENDBRANCH   6  20
TORSDOF 2
