REMARK  Name = 
REMARK  4 active torsions:
REMARK  status: ('A' for Active; 'I' for Inactive)
REMARK    1  A    between atoms: N_2  and  C_3
REMARK    2  A    between atoms: C_8  and  C_9
REMARK    3  A    between atoms: N_11  and  N_12
REMARK    4  A    between atoms: N_12  and  C_13
REMARK                            x       y       z     vdW  Elec       q    Type
REMARK                         _______ _______ _______ _____ _____    ______ ____
ROOT
ATOM      1  C   UNL     1      -1.033  -0.326   0.087  0.00  0.00    +0.000 C 
ATOM      2  O   UNL     1      -0.462  -0.898  -0.877  0.00  0.00    +0.000 OA
ATOM      3  N   UNL     1      -0.203  -0.004   1.200  0.00  0.00    +0.000 NA
ENDROOT
BRANCH   1   9
ATOM      4  C   UNL     1      -3.202  -0.342  -1.025  0.00  0.00    +0.000 A 
ATOM      5  C   UNL     1      -4.539  -0.024  -0.996  0.00  0.00    +0.000 A 
ATOM      6  C   UNL     1      -5.090   0.606   0.103  0.00  0.00    +0.000 A 
ATOM      7  C   UNL     1      -4.336   0.944   1.213  0.00  0.00    +0.000 A 
ATOM      8  C   UNL     1      -2.980   0.624   1.189  0.00  0.00    +0.000 A 
ATOM      9  C   UNL     1      -2.453  -0.004   0.082  0.00  0.00    +0.000 A 
BRANCH   4  11
ATOM     10  C   UNL     1      -3.239  -1.384  -3.314  0.00  0.00    +0.000 C 
ATOM     11  N   UNL     1      -2.570  -0.989  -2.122  0.00  0.00    +0.000 NA
ENDBRANCH   4  11
ENDBRANCH   1   9
BRANCH   3  12
ATOM     12  N   UNL     1       1.163  -0.318   1.193  0.00  0.00    +0.000 NA
BRANCH  12  13
ATOM     13  C   UNL     1       2.179   0.661   1.356  0.00  0.00    +0.000 C 
ATOM     14  C   UNL     1       3.425   0.307   1.033  0.00  0.00    +0.000 C 
ATOM     15  C   UNL     1       3.761  -1.049   0.522  0.00  0.00    +0.000 C 
ATOM     16  C   UNL     1       4.966  -0.961  -0.357  0.00  0.00    +0.000 C 
ATOM     17  C   UNL     1       4.970   0.351  -1.116  0.00  0.00    +0.000 C 
ATOM     18  C   UNL     1       5.106   1.530  -0.202  0.00  0.00    +0.000 C 
ATOM     19  C   UNL     1       4.536   1.273   1.176  0.00  0.00    +0.000 C 
ENDBRANCH  12  13
ENDBRANCH   3  12
TORSDOF 4
