REMARK  Name = 
REMARK  4 active torsions:
REMARK  status: ('A' for Active; 'I' for Inactive)
REMARK    1  A    between atoms: C_2  and  C_3
REMARK    2  A    between atoms: C_3  and  C_4
REMARK    3  A    between atoms: C_7  and  C_8
REMARK    4  A    between atoms: C_11  and  N_12
REMARK                            x       y       z     vdW  Elec       q    Type
REMARK                         _______ _______ _______ _____ _____    ______ ____
ROOT
ATOM      1  C   UNL     1      -1.693  -0.610   0.537  0.00  0.00    +0.000 C 
ATOM      2  O   UNL     1      -0.349  -0.659   0.356  0.00  0.00    +0.000 OA
ATOM      3  C   UNL     1       0.140   0.803   0.518  0.00  0.00    +0.000 C 
ATOM      4  N   UNL     1      -0.367   1.183  -0.935  0.00  0.00    +0.000 NA
ATOM      5  C   UNL     1      -1.772   1.385  -0.872  0.00  0.00    +0.000 A 
ATOM      6  C   UNL     1      -2.443   2.411  -1.509  0.00  0.00    +0.000 A 
ATOM      7  C   UNL     1      -3.813   2.566  -1.425  0.00  0.00    +0.000 A 
ATOM      8  C   UNL     1      -4.466   1.622  -0.658  0.00  0.00    +0.000 A 
ATOM      9  C   UNL     1      -3.822   0.594  -0.015  0.00  0.00    +0.000 A 
ATOM     10  C   UNL     1      -2.443   0.461  -0.117  0.00  0.00    +0.000 A 
ENDROOT
BRANCH   3  11
ATOM     11  C   UNL     1       1.619   0.521   0.132  0.00  0.00    +0.000 A 
ATOM     12  C   UNL     1       2.273   1.431  -0.606  0.00  0.00    +0.000 A 
ATOM     13  C   UNL     1       3.567   0.896  -0.783  0.00  0.00    +0.000 A 
ATOM     14  C   UNL     1       3.548  -0.306  -0.117  0.00  0.00    +0.000 A 
ATOM     15  O   UNL     1       2.372  -0.465   0.399  0.00  0.00    +0.000 OA
BRANCH  14  16
ATOM     16  N   UNL     1       4.691  -1.192  -0.047  0.00  0.00    +0.000 N 
ATOM     17  O   UNL     1       4.656  -2.268   0.556  0.00  0.00    +0.000 OA
ATOM     18  O   UNL     1       5.878  -0.864  -0.658  0.00  0.00    +0.000 OA
ENDBRANCH  14  16
ENDBRANCH   3  11
BRANCH   1  20
ATOM     19  C   UNL     1      -1.597  -1.826   2.732  0.00  0.00    +0.000 C 
ATOM     20  C   UNL     1      -2.146  -0.646   1.976  0.00  0.00    +0.000 C 
ENDBRANCH   1  20
BRANCH   1  21
ATOM     21  C   UNL     1      -2.207  -1.921  -0.094  0.00  0.00    +0.000 C 
ATOM     22  C   UNL     1      -1.625  -3.117   0.626  0.00  0.00    +0.000 C 
ENDBRANCH   1  21
TORSDOF 4
