REMARK  Name = 
REMARK  2 active torsions:
REMARK  status: ('A' for Active; 'I' for Inactive)
REMARK    1  A    between atoms: O_2  and  C_3
REMARK    2  A    between atoms: C_7  and  C_8
REMARK                            x       y       z     vdW  Elec       q    Type
REMARK                         _______ _______ _______ _____ _____    ______ ____
ROOT
ATOM      1  C   UNL     1      -0.931  -0.663  -1.125  0.00  0.00    +0.000 C 
ATOM      2  N   UNL     1      -0.314  -1.613   0.002  0.00  0.00    +0.000 NA
ATOM      3  C   UNL     1       1.097  -1.522   0.105  0.00  0.00    +0.000 C 
ATOM      4  O   UNL     1       1.716  -2.596   0.301  0.00  0.00    +0.000 OA
ATOM      5  C   UNL     1       1.788  -0.212  -0.017  0.00  0.00    +0.000 A 
ATOM      6  C   UNL     1       0.924   0.831  -0.230  0.00  0.00    +0.000 A 
ATOM      7  S   UNL     1       2.003   2.172  -0.315  0.00  0.00    +0.000 S 
ATOM      8  C   UNL     1       3.488   1.363  -0.079  0.00  0.00    +0.000 A 
ATOM      9  C   UNL     1       3.091   0.057   0.060  0.00  0.00    +0.000 A 
ATOM     10  C   UNL     1       4.280  -0.865   0.286  0.00  0.00    +0.000 C 
ATOM     11  C   UNL     1       5.021  -0.275   1.449  0.00  0.00    +0.000 C 
ATOM     12  C   UNL     1       5.530   1.104   1.211  0.00  0.00    +0.000 C 
ATOM     13  C   UNL     1       4.943   1.764  -0.006  0.00  0.00    +0.000 C 
ATOM     14  N   UNL     1      -0.501   0.664  -0.326  0.00  0.00    +0.000 NA
ENDROOT
BRANCH   1  19
ATOM     15  C   UNL     1      -4.498   0.408  -0.049  0.00  0.00    +0.000 A 
ATOM     16  C   UNL     1      -5.008  -0.823   0.291  0.00  0.00    +0.000 A 
ATOM     17  C   UNL     1      -4.267  -1.984   0.194  0.00  0.00    +0.000 A 
ATOM     18  C   UNL     1      -2.928  -1.900  -0.275  0.00  0.00    +0.000 A 
ATOM     19  C   UNL     1      -2.423  -0.685  -0.612  0.00  0.00    +0.000 A 
ATOM     20  C   UNL     1      -3.166   0.422  -0.507  0.00  0.00    +0.000 A 
BRANCH  15  22
ATOM     21  C   UNL     1      -4.602   2.776  -0.334  0.00  0.00    +0.000 C 
ATOM     22  O   UNL     1      -5.242   1.574   0.048  0.00  0.00    +0.000 OA
ENDBRANCH  15  22
ENDBRANCH   1  19
TORSDOF 2
