REMARK  Name = 
REMARK  3 active torsions:
REMARK  status: ('A' for Active; 'I' for Inactive)
REMARK    1  A    between atoms: C_7  and  N_8
REMARK    2  A    between atoms: N_8  and  N_9
REMARK    3  A    between atoms: C_10  and  C_12
REMARK                            x       y       z     vdW  Elec       q    Type
REMARK                         _______ _______ _______ _____ _____    ______ ____
ROOT
ATOM      1  N   UNL     1      -0.067  -0.918   0.249  0.00  0.00    +0.000 NA
ATOM      2  C   UNL     1       0.949  -0.595  -0.690  0.00  0.00    +0.000 C 
ATOM      3  O   UNL     1       0.764  -0.972  -1.869  0.00  0.00    +0.000 OA
ENDROOT
BRANCH   2   4
ATOM      4  C   UNL     1       2.139   0.142  -0.275  0.00  0.00    +0.000 A 
ATOM      5  C   UNL     1       3.116   0.465  -1.206  0.00  0.00    +0.000 A 
ATOM      6  C   UNL     1       4.255   1.165  -0.825  0.00  0.00    +0.000 A 
ATOM      7  C   UNL     1       4.467   1.568   0.478  0.00  0.00    +0.000 A 
ATOM      8 BR   UNL     1       6.054   2.529   0.958  0.00  0.00    +0.000 Br
ATOM      9  C   UNL     1       3.500   1.248   1.399  0.00  0.00    +0.000 A 
ATOM     10  C   UNL     1       2.358   0.546   1.019  0.00  0.00    +0.000 A 
ENDBRANCH   2   4
BRANCH   1  11
ATOM     11  N   UNL     1      -1.204  -1.606  -0.080  0.00  0.00    +0.000 NA
BRANCH  11  18
ATOM     12  C   UNL     1      -4.194  -0.685   1.648  0.00  0.00    +0.000 C 
ATOM     13  C   UNL     1      -2.867   0.015   1.022  0.00  0.00    +0.000 C 
ATOM     14  C   UNL     1      -3.638   0.922  -0.076  0.00  0.00    +0.000 C 
ATOM     15  C   UNL     1      -4.815   0.263  -0.604  0.00  0.00    +0.000 C 
ATOM     16  C   UNL     1      -4.849  -1.226  -0.595  0.00  0.00    +0.000 C 
ATOM     17  C   UNL     1      -3.445  -1.697  -0.697  0.00  0.00    +0.000 C 
ATOM     18  C   UNL     1      -2.522  -1.165   0.014  0.00  0.00    +0.000 C 
ENDBRANCH  11  18
ENDBRANCH   1  11
TORSDOF 3
