REMARK  Name = 
REMARK  4 active torsions:
REMARK  status: ('A' for Active; 'I' for Inactive)
REMARK    1  A    between atoms: C_2  and  C_3
REMARK    2  A    between atoms: C_9  and  C_10
REMARK    3  A    between atoms: N_12  and  C_13
REMARK    4  A    between atoms: C_18  and  O_19
REMARK                            x       y       z     vdW  Elec       q    Type
REMARK                         _______ _______ _______ _____ _____    ______ ____
ROOT
ATOM      1  C   UNL     1       0.433   0.940  -0.404  0.00  0.00    +0.000 C 
ATOM      2  O   UNL     1       0.066   2.092  -0.735  0.00  0.00    +0.000 OA
ATOM      3  N   UNL     1      -0.597   0.028  -0.100  0.00  0.00    +0.000 NA
ENDROOT
BRANCH   1  10
ATOM      4  C   UNL     1       2.290  -0.654   0.032  0.00  0.00    +0.000 A 
ATOM      5  C   UNL     1       3.641  -0.867   0.066  0.00  0.00    +0.000 A 
ATOM      6  C   UNL     1       4.353  -2.144   0.448  0.00  0.00    +0.000 C 
ATOM      7  S   UNL     1       4.292   0.631  -0.415  0.00  0.00    +0.000 S 
ATOM      8  C   UNL     1       2.849   1.494  -0.650  0.00  0.00    +0.000 A 
ATOM      9  N   UNL     1       2.648   2.867  -1.075  0.00  0.00    +0.000 NA
ATOM     10  C   UNL     1       1.880   0.578  -0.341  0.00  0.00    +0.000 A 
BRANCH   4  12
ATOM     11  C   UNL     1       1.326  -1.966   1.905  0.00  0.00    +0.000 C 
ATOM     12  C   UNL     1       1.353  -1.798   0.410  0.00  0.00    +0.000 C 
ENDBRANCH   4  12
ENDBRANCH   1  10
BRANCH   3  13
ATOM     13  C   UNL     1      -1.986   0.371  -0.153  0.00  0.00    +0.000 A 
ATOM     14  C   UNL     1      -2.426   1.615  -0.482  0.00  0.00    +0.000 A 
ATOM     15  C   UNL     1      -3.775   1.906  -0.511  0.00  0.00    +0.000 A 
ATOM     16  C   UNL     1      -4.630   0.883  -0.191  0.00  0.00    +0.000 A 
ATOM     17  C   UNL     1      -4.219  -0.353   0.137  0.00  0.00    +0.000 A 
ATOM     18  C   UNL     1      -2.859  -0.692   0.178  0.00  0.00    +0.000 A 
BRANCH  18  19
ATOM     19  O   UNL     1      -2.474  -1.881   0.493  0.00  0.00    +0.000 OA
ATOM     20  C   UNL     1      -2.166  -3.049   0.806  0.00  0.00    +0.000 C 
ENDBRANCH  18  19
ENDBRANCH   3  13
TORSDOF 4
