REMARK  Name = 
REMARK  3 active torsions:
REMARK  status: ('A' for Active; 'I' for Inactive)
REMARK    1  A    between atoms: C_2  and  O_3
REMARK    2  A    between atoms: O_3  and  C_4
REMARK    3  A    between atoms: C_7  and  N_8
REMARK                            x       y       z     vdW  Elec       q    Type
REMARK                         _______ _______ _______ _____ _____    ______ ____
ROOT
ATOM      1  N   UNL     1      -0.223   0.074   0.545  0.00  0.00    +0.000 N 
ATOM      2  C   UNL     1      -1.003   1.275   0.731  0.00  0.00    +0.000 C 
ATOM      3  C   UNL     1      -2.325   0.880   0.155  0.00  0.00    +0.000 A 
ATOM      4  C   UNL     1      -3.385   1.590  -0.367  0.00  0.00    +0.000 A 
ATOM      5  N   UNL     1      -4.457   0.922  -0.808  0.00  0.00    +0.000 NA
ATOM      6  C   UNL     1      -4.577  -0.416  -0.777  0.00  0.00    +0.000 A 
ATOM      7  C   UNL     1      -5.819  -1.033  -1.298  0.00  0.00    +0.000 C 
ATOM      8  C   UNL     1      -3.527  -1.162  -0.258  0.00  0.00    +0.000 A 
ATOM      9  O   UNL     1      -3.652  -2.537  -0.228  0.00  0.00    +0.000 OA
ATOM     10  C   UNL     1      -2.417  -0.490   0.200  0.00  0.00    +0.000 A 
ATOM     11  C   UNL     1      -1.141  -1.027   0.803  0.00  0.00    +0.000 C 
ENDROOT
BRANCH   1  15
ATOM     12  C   UNL     1       3.887  -0.137  -0.531  0.00  0.00    +0.000 A 
ATOM     13  C   UNL     1       3.138  -1.276  -0.316  0.00  0.00    +0.000 A 
ATOM     14  C   UNL     1       1.802  -1.212   0.033  0.00  0.00    +0.000 A 
ATOM     15  C   UNL     1       1.157  -0.002   0.184  0.00  0.00    +0.000 A 
ATOM     16  C   UNL     1       1.913   1.133  -0.032  0.00  0.00    +0.000 A 
ATOM     17  C   UNL     1       3.248   1.079  -0.382  0.00  0.00    +0.000 A 
BRANCH  12  18
ATOM     18  O   UNL     1       5.227  -0.253  -0.880  0.00  0.00    +0.000 OA
BRANCH  18  20
ATOM     19  C   UNL     1       6.115   1.734   0.130  0.00  0.00    +0.000 C 
ATOM     20  C   UNL     1       6.040   0.859  -1.111  0.00  0.00    +0.000 C 
ENDBRANCH  18  20
ENDBRANCH  12  18
ENDBRANCH   1  15
TORSDOF 3
