REMARK  Name = 
REMARK  3 active torsions:
REMARK  status: ('A' for Active; 'I' for Inactive)
REMARK    1  A    between atoms: C_2  and  C_14
REMARK    2  A    between atoms: N_3  and  N_4
REMARK    3  A    between atoms: C_5  and  C_7
REMARK                            x       y       z     vdW  Elec       q    Type
REMARK                         _______ _______ _______ _____ _____    ______ ____
ROOT
ATOM      1  C   UNL     1      -0.690  -0.182   1.951  0.00  0.00    +0.000 C 
ATOM      2  C   UNL     1      -1.306   0.268   0.678  0.00  0.00    +0.000 C 
ATOM      3  N   UNL     1      -0.525   0.649  -0.258  0.00  0.00    +0.000 NA
ENDROOT
BRANCH   2   4
ATOM      4  C   UNL     1      -2.760   0.249   0.570  0.00  0.00    +0.000 A 
ATOM      5  C   UNL     1      -3.413   0.650  -0.579  0.00  0.00    +0.000 A 
ATOM      6  C   UNL     1      -4.790   0.629  -0.672  0.00  0.00    +0.000 A 
ATOM      7  C   UNL     1      -5.573   0.195   0.404  0.00  0.00    +0.000 A 
ATOM      8  N   UNL     1      -6.973   0.152   0.365  0.00  0.00    +0.000 NA
ATOM      9  C   UNL     1      -4.930  -0.204   1.545  0.00  0.00    +0.000 A 
ATOM     10  C   UNL     1      -3.551  -0.174   1.617  0.00  0.00    +0.000 A 
ENDBRANCH   2   4
BRANCH   3  11
ATOM     11  N   UNL     1       0.878   0.664  -0.144  0.00  0.00    +0.000 NA
ATOM     12  C   UNL     1       1.645  -0.489   0.131  0.00  0.00    +0.000 C 
ATOM     13  O   UNL     1       1.037  -1.569   0.278  0.00  0.00    +0.000 OA
BRANCH  12  14
ATOM     14  C   UNL     1       3.090  -0.360   0.227  0.00  0.00    +0.000 A 
ATOM     15  C   UNL     1       3.942  -1.422   0.492  0.00  0.00    +0.000 A 
ATOM     16  C   UNL     1       5.206  -0.856   0.493  0.00  0.00    +0.000 A 
ATOM     17  C   UNL     1       6.511  -1.524   0.724  0.00  0.00    +0.000 C 
ATOM     18  O   UNL     1       5.087   0.427   0.248  0.00  0.00    +0.000 OA
ATOM     19  C   UNL     1       3.842   0.776   0.081  0.00  0.00    +0.000 A 
ATOM     20  C   UNL     1       3.272   2.121  -0.213  0.00  0.00    +0.000 C 
ENDBRANCH  12  14
ENDBRANCH   3  11
TORSDOF 3
