REMARK  Name = 
REMARK  3 active torsions:
REMARK  status: ('A' for Active; 'I' for Inactive)
REMARK    1  A    between atoms: C_4  and  N_5
REMARK    2  A    between atoms: N_5  and  C_6
REMARK    3  A    between atoms: N_12  and  C_13
REMARK                            x       y       z     vdW  Elec       q    Type
REMARK                         _______ _______ _______ _____ _____    ______ ____
ROOT
ATOM      1  C   UNL     1       0.973  -0.246   0.054  0.00  0.00    +0.000 A 
ATOM      2  C   UNL     1       1.277   1.032   0.472  0.00  0.00    +0.000 A 
ATOM      3  C   UNL     1       0.282   1.976   0.710  0.00  0.00    +0.000 A 
ATOM      4  C   UNL     1      -1.047   1.644   0.530  0.00  0.00    +0.000 A 
ATOM      5  C   UNL     1      -2.243   2.325   0.674  0.00  0.00    +0.000 A 
ATOM      6  N   UNL     1      -3.222   1.463   0.348  0.00  0.00    +0.000 NA
ATOM      7  N   UNL     1      -2.676   0.301   0.016  0.00  0.00    +0.000 N 
ATOM      8  C   UNL     1      -1.339   0.363   0.112  0.00  0.00    +0.000 A 
ATOM      9  C   UNL     1      -0.351  -0.585  -0.128  0.00  0.00    +0.000 A 
ENDROOT
BRANCH   7  10
ATOM     10  C   UNL     1      -3.446  -0.854  -0.390  0.00  0.00    +0.000 C 
ATOM     11  C   UNL     1      -4.793  -0.412  -0.922  0.00  0.00    +0.000 C 
ATOM     12  C   UNL     1      -5.594  -0.088   0.325  0.00  0.00    +0.000 C 
ATOM     13  C   UNL     1      -5.203  -1.241   1.234  0.00  0.00    +0.000 C 
ATOM     14  C   UNL     1      -3.836  -1.681   0.813  0.00  0.00    +0.000 C 
ENDBRANCH   7  10
BRANCH   1  15
ATOM     15  N   UNL     1       2.001  -1.203  -0.186  0.00  0.00    +0.000 NA
BRANCH  15  19
ATOM     16  O   UNL     1       6.317   0.987   0.273  0.00  0.00    +0.000 OA
ATOM     17  C   UNL     1       5.435   0.121   0.088  0.00  0.00    +0.000 C 
ATOM     18  C   UNL     1       4.017   0.230  -0.222  0.00  0.00    +0.000 C 
ATOM     19  C   UNL     1       3.379  -0.893  -0.010  0.00  0.00    +0.000 C 
ATOM     20  C   UNL     1       4.354  -1.886   0.484  0.00  0.00    +0.000 C 
ATOM     21  C   UNL     1       5.713  -1.352   0.161  0.00  0.00    +0.000 C 
ENDBRANCH  15  19
ENDBRANCH   1  15
TORSDOF 3
