REMARK  Name = 
REMARK  3 active torsions:
REMARK  status: ('A' for Active; 'I' for Inactive)
REMARK    1  A    between atoms: C_5  and  C_6
REMARK    2  A    between atoms: N_8  and  N_9
REMARK    3  A    between atoms: N_9  and  C_10
REMARK                            x       y       z     vdW  Elec       q    Type
REMARK                         _______ _______ _______ _____ _____    ______ ____
ROOT
ATOM      1  C   UNL     1       0.427  -0.706   0.264  0.00  0.00    +0.000 C 
ATOM      2  O   UNL     1      -0.152  -1.199  -0.736  0.00  0.00    +0.000 OA
ATOM      3  N   UNL     1      -0.315  -0.819   1.500  0.00  0.00    +0.000 NA
ENDROOT
BRANCH   1   8
ATOM      4  C   UNL     1       5.555   1.802  -0.200  0.00  0.00    +0.000 C 
ATOM      5  C   UNL     1       4.210   1.165  -0.001  0.00  0.00    +0.000 A 
ATOM      6  C   UNL     1       3.585   0.630  -1.098  0.00  0.00    +0.000 A 
ATOM      7  C   UNL     1       2.359   0.009  -1.053  0.00  0.00    +0.000 A 
ATOM      8  C   UNL     1       1.725  -0.072   0.196  0.00  0.00    +0.000 A 
ATOM      9  C   UNL     1       2.356   0.465   1.292  0.00  0.00    +0.000 A 
ATOM     10  C   UNL     1       1.644   0.351   2.593  0.00  0.00    +0.000 C 
ATOM     11  C   UNL     1       3.589   1.087   1.225  0.00  0.00    +0.000 A 
ENDBRANCH   1   8
BRANCH   3  12
ATOM     12  N   UNL     1      -1.586  -1.442   1.457  0.00  0.00    +0.000 NA
BRANCH  12  13
ATOM     13  C   UNL     1      -2.505  -1.105   0.393  0.00  0.00    +0.000 C 
ATOM     14  C   UNL     1      -2.600   0.043  -0.214  0.00  0.00    +0.000 C 
ATOM     15  C   UNL     1      -2.768   1.304  -0.945  0.00  0.00    +0.000 C 
ATOM     16  C   UNL     1      -3.938   1.303  -1.544  0.00  0.00    +0.000 C 
ATOM     17  C   UNL     1      -4.637   0.022  -1.245  0.00  0.00    +0.000 C 
ATOM     18  C   UNL     1      -3.325  -0.934  -1.318  0.00  0.00    +0.000 C 
ATOM     19  C   UNL     1      -3.625  -1.906  -0.128  0.00  0.00    +0.000 C 
ENDBRANCH  12  13
ENDBRANCH   3  12
TORSDOF 3
