REMARK  Name = 
REMARK  4 active torsions:
REMARK  status: ('A' for Active; 'I' for Inactive)
REMARK    1  A    between atoms: C_2  and  C_3
REMARK    2  A    between atoms: C_3  and  C_5
REMARK    3  A    between atoms: C_8  and  O_9
REMARK    4  A    between atoms: O_9  and  C_10
REMARK                            x       y       z     vdW  Elec       q    Type
REMARK                         _______ _______ _______ _____ _____    ______ ____
ROOT
ATOM      1  C   UNL     1       2.999  -0.398  -0.268  0.00  0.00    +0.000 A 
ATOM      2  C   UNL     1       2.723  -0.069  -1.571  0.00  0.00    +0.000 A 
ATOM      3  C   UNL     1       1.404   0.155  -1.914  0.00  0.00    +0.000 A 
ATOM      4  C   UNL     1       0.377   0.059  -0.999  0.00  0.00    +0.000 A 
ATOM      5  C   UNL     1       0.709  -0.274   0.293  0.00  0.00    +0.000 A 
ATOM      6  C   UNL     1       2.026  -0.497   0.635  0.00  0.00    +0.000 A 
ENDROOT
BRANCH   1   7
ATOM      7  C   UNL     1       4.510  -0.655   0.126  0.00  0.00    +0.000 C 
ATOM      8  C   UNL     1       4.219  -2.071   0.891  0.00  0.00    +0.000 C 
BRANCH   7  10
ATOM      9  C   UNL     1       4.723   1.646   1.106  0.00  0.00    +0.000 C 
ATOM     10  C   UNL     1       4.474   0.218   1.496  0.00  0.00    +0.000 C 
ENDBRANCH   7  10
ENDBRANCH   1   7
BRANCH   4  11
ATOM     11  O   UNL     1      -0.920   0.300  -1.428  0.00  0.00    +0.000 OA
BRANCH  11  12
ATOM     12  C   UNL     1      -2.036   0.239  -0.635  0.00  0.00    +0.000 A 
ATOM     13  C   UNL     1      -2.368   1.357   0.102  0.00  0.00    +0.000 A 
ATOM     14  C   UNL     1      -3.487   1.319   0.907  0.00  0.00    +0.000 A 
ATOM     15  F   UNL     1      -3.866   2.398   1.661  0.00  0.00    +0.000 F 
ATOM     16  N   UNL     1      -4.199   0.181   0.928  0.00  0.00    +0.000 NA
ATOM     17  C   UNL     1      -3.873  -0.904   0.210  0.00  0.00    +0.000 A 
ATOM     18  N   UNL     1      -4.628  -2.114   0.231  0.00  0.00    +0.000 NA
ATOM     19  N   UNL     1      -2.785  -0.889  -0.582  0.00  0.00    +0.000 NA
ENDBRANCH  11  12
ENDBRANCH   4  11
TORSDOF 4
