REMARK  Name = 
REMARK  4 active torsions:
REMARK  status: ('A' for Active; 'I' for Inactive)
REMARK    1  A    between atoms: C_8  and  N_9
REMARK    2  A    between atoms: C_10  and  C_12
REMARK    3  A    between atoms: C_12  and  C_13
REMARK    4  A    between atoms: C_16  and  N_17
REMARK                            x       y       z     vdW  Elec       q    Type
REMARK                         _______ _______ _______ _____ _____    ______ ____
ROOT
ATOM      1  N   UNL     1       1.990  -1.355  -0.360  0.00  0.00    +0.000 NA
ATOM      2  C   UNL     1       0.667  -0.886  -0.150  0.00  0.00    +0.000 C 
ATOM      3  O   UNL     1       0.532   0.292   0.235  0.00  0.00    +0.000 OA
ENDROOT
BRANCH   1  11
ATOM      4  C   UNL     1       3.050   0.227  -2.479  0.00  0.00    +0.000 C 
ATOM      5  C   UNL     1       3.675   0.236  -1.136  0.00  0.00    +0.000 A 
ATOM      6  C   UNL     1       4.791   1.009  -0.861  0.00  0.00    +0.000 A 
ATOM      7  C   UNL     1       5.388   1.029   0.391  0.00  0.00    +0.000 A 
ATOM      8  C   UNL     1       4.813   0.234   1.363  0.00  0.00    +0.000 A 
ATOM      9  C   UNL     1       3.703  -0.540   1.102  0.00  0.00    +0.000 A 
ATOM     10  C   UNL     1       3.100  -1.386   2.159  0.00  0.00    +0.000 C 
ATOM     11  C   UNL     1       3.133  -0.538  -0.148  0.00  0.00    +0.000 A 
ENDBRANCH   1  11
BRANCH   2  12
ATOM     12  C   UNL     1      -0.531  -1.739  -0.371  0.00  0.00    +0.000 C 
BRANCH  12  13
ATOM     13  C   UNL     1      -1.755  -0.959  -0.066  0.00  0.00    +0.000 A 
ATOM     14  C   UNL     1      -2.341  -0.902   1.172  0.00  0.00    +0.000 A 
ATOM     15  C   UNL     1      -3.474  -0.171   1.430  0.00  0.00    +0.000 A 
ATOM     16  C   UNL     1      -4.080   0.556   0.407  0.00  0.00    +0.000 A 
ATOM     17  C   UNL     1      -3.491   0.499  -0.839  0.00  0.00    +0.000 A 
ATOM     18  C   UNL     1      -2.345  -0.242  -1.089  0.00  0.00    +0.000 A 
BRANCH  16  19
ATOM     19  N   UNL     1      -5.247   1.318   0.636  0.00  0.00    +0.000 N 
ATOM     20  O   UNL     1      -5.749   1.947  -0.301  0.00  0.00    +0.000 OA
ATOM     21  O   UNL     1      -5.827   1.373   1.869  0.00  0.00    +0.000 OA
ENDBRANCH  16  19
ENDBRANCH  12  13
ENDBRANCH   2  12
TORSDOF 4
