REMARK  Name = 
REMARK  4 active torsions:
REMARK  status: ('A' for Active; 'I' for Inactive)
REMARK    1  A    between atoms: C_2  and  C_3
REMARK    2  A    between atoms: C_6  and  N_7
REMARK    3  A    between atoms: C_8  and  C_10
REMARK    4  A    between atoms: C_14  and  N_15
REMARK                            x       y       z     vdW  Elec       q    Type
REMARK                         _______ _______ _______ _____ _____    ______ ____
ROOT
ATOM      1  N   UNL     1       0.563   0.348  -0.708  0.00  0.00    +0.000 NA
ATOM      2  C   UNL     1       0.007   0.081   0.577  0.00  0.00    +0.000 C 
ATOM      3  O   UNL     1       0.797  -0.394   1.467  0.00  0.00    +0.000 OA
ENDROOT
BRANCH   2   4
ATOM      4  C   UNL     1      -1.393   0.316   0.921  0.00  0.00    +0.000 A 
ATOM      5  C   UNL     1      -1.666   1.178   1.991  0.00  0.00    +0.000 A 
ATOM      6  C   UNL     1      -2.992   1.449   2.315  0.00  0.00    +0.000 A 
ATOM      7  C   UNL     1      -4.026   0.886   1.606  0.00  0.00    +0.000 A 
ATOM      8  C   UNL     1      -3.800   0.021   0.542  0.00  0.00    +0.000 A 
ATOM      9  C   UNL     1      -2.464  -0.232   0.237  0.00  0.00    +0.000 A 
ATOM     10  C   UNL     1      -2.094  -1.131  -0.885  0.00  0.00    +0.000 C 
BRANCH   8  11
ATOM     11  N   UNL     1      -4.880  -0.574  -0.158  0.00  0.00    +0.000 N 
ATOM     12  O   UNL     1      -4.854  -0.853  -1.350  0.00  0.00    +0.000 OA
ATOM     13  O   UNL     1      -6.018  -0.823   0.592  0.00  0.00    +0.000 OA
ENDBRANCH   8  11
ENDBRANCH   2   4
BRANCH   1  17
ATOM     14  C   UNL     1       4.705  -0.468  -1.132  0.00  0.00    +0.000 A 
ATOM     15  C   UNL     1       3.757  -1.355  -1.559  0.00  0.00    +0.000 A 
ATOM     16  C   UNL     1       2.403  -1.109  -1.431  0.00  0.00    +0.000 A 
ATOM     17  C   UNL     1       1.935   0.056  -0.862  0.00  0.00    +0.000 A 
ATOM     18  C   UNL     1       2.899   0.957  -0.422  0.00  0.00    +0.000 A 
ATOM     19  C   UNL     1       4.260   0.720  -0.548  0.00  0.00    +0.000 A 
BRANCH  14  21
ATOM     20  C   UNL     1       6.676  -1.332   0.043  0.00  0.00    +0.000 C 
ATOM     21  C   UNL     1       6.184  -0.680  -1.235  0.00  0.00    +0.000 C 
ENDBRANCH  14  21
ENDBRANCH   1  17
TORSDOF 4
