REMARK  Name = 
REMARK  3 active torsions:
REMARK  status: ('A' for Active; 'I' for Inactive)
REMARK    1  A    between atoms: C_6  and  C_7
REMARK    2  A    between atoms: C_9  and  C_10
REMARK    3  A    between atoms: C_13  and  C_14
REMARK                            x       y       z     vdW  Elec       q    Type
REMARK                         _______ _______ _______ _____ _____    ______ ____
ROOT
ATOM      1  C   UNL     1      -1.106  -2.741   1.353  0.00  0.00    +0.000 C 
ATOM      2  C   UNL     1      -1.904  -1.534   0.916  0.00  0.00    +0.000 A 
ATOM      3  S   UNL     1      -3.581  -1.254   1.006  0.00  0.00    +0.000 S 
ATOM      4  C   UNL     1      -3.638   0.301   0.305  0.00  0.00    +0.000 A 
ATOM      5  N   UNL     1      -4.788   1.155   0.066  0.00  0.00    +0.000 NA
ATOM      6  C   UNL     1      -2.333   0.568   0.014  0.00  0.00    +0.000 A 
ATOM      7  C   UNL     1      -1.424  -0.391   0.332  0.00  0.00    +0.000 A 
ENDROOT
BRANCH   7   8
ATOM      8  C   UNL     1       0.046  -0.237   0.081  0.00  0.00    +0.000 A 
ATOM      9  C   UNL     1       0.694  -1.018  -0.855  0.00  0.00    +0.000 A 
ATOM     10  C   UNL     1       2.037  -0.857  -1.087  0.00  0.00    +0.000 A 
ATOM     11  C   UNL     1       2.771   0.089  -0.389  0.00  0.00    +0.000 A 
ATOM     12  C   UNL     1       2.136   0.881   0.551  0.00  0.00    +0.000 A 
ATOM     13  C   UNL     1       0.800   0.698   0.762  0.00  0.00    +0.000 A 
BRANCH  11  14
ATOM     14  C   UNL     1       4.226   0.196  -0.683  0.00  0.00    +0.000 C 
ATOM     15  C   UNL     1       4.706  -1.140  -1.221  0.00  0.00    +0.000 C 
ATOM     16  C   UNL     1       4.989   0.561   0.565  0.00  0.00    +0.000 C 
ENDBRANCH  11  14
ENDBRANCH   7   8
BRANCH   6  17
ATOM     17  C   UNL     1      -1.959   1.847  -0.615  0.00  0.00    +0.000 C 
ATOM     18  N   UNL     1      -1.674   2.875  -1.099  0.00  0.00    +0.000 NA
ENDBRANCH   6  17
TORSDOF 3
