REMARK  Name = 
REMARK  2 active torsions:
REMARK  status: ('A' for Active; 'I' for Inactive)
REMARK    1  A    between atoms: C_7  and  C_8
REMARK    2  A    between atoms: N_10  and  C_11
REMARK                            x       y       z     vdW  Elec       q    Type
REMARK                         _______ _______ _______ _____ _____    ______ ____
ROOT
ATOM      1  C   UNL     1       5.641   1.556  -0.729  0.00  0.00    +0.000 C 
ATOM      2  C   UNL     1       4.357   0.884   0.019  0.00  0.00    +0.000 C 
ATOM      3  C   UNL     1       3.273   1.913  -0.707  0.00  0.00    +0.000 C 
ATOM      4  C   UNL     1       2.027   1.339  -0.132  0.00  0.00    +0.000 C 
ATOM      5  O   UNL     1       1.182   1.990   0.517  0.00  0.00    +0.000 OA
ATOM      6  C   UNL     1       1.766  -0.089  -0.331  0.00  0.00    +0.000 A 
ATOM      7  C   UNL     1       0.730  -0.934  -0.125  0.00  0.00    +0.000 A 
ATOM      8  C   UNL     1       1.124  -2.223  -0.478  0.00  0.00    +0.000 A 
ATOM      9  N   UNL     1       2.395  -2.093  -0.888  0.00  0.00    +0.000 NA
ATOM     10  C   UNL     1       2.834  -0.839  -0.824  0.00  0.00    +0.000 A 
ATOM     11  C   UNL     1       4.151  -0.255  -1.167  0.00  0.00    +0.000 C 
ENDROOT
BRANCH   7  12
ATOM     12  C   UNL     1      -0.617  -0.592   0.315  0.00  0.00    +0.000 C 
ATOM     13  O   UNL     1      -0.901  -0.331   1.513  0.00  0.00    +0.000 OA
ATOM     14  N   UNL     1      -1.734  -0.538  -0.590  0.00  0.00    +0.000 NA
BRANCH  14  15
ATOM     15  C   UNL     1      -3.045  -0.249  -0.230  0.00  0.00    +0.000 A 
ATOM     16  C   UNL     1      -4.064  -0.324  -1.131  0.00  0.00    +0.000 A 
ATOM     17  C   UNL     1      -5.396  -0.048  -0.791  0.00  0.00    +0.000 A 
ATOM     18  C   UNL     1      -5.690   0.319   0.516  0.00  0.00    +0.000 A 
ATOM     19  C   UNL     1      -4.673   0.397   1.414  0.00  0.00    +0.000 A 
ATOM     20  C   UNL     1      -3.362   0.118   1.057  0.00  0.00    +0.000 A 
ENDBRANCH  14  15
ENDBRANCH   7  12
TORSDOF 2
