REMARK  Name = 
REMARK  3 active torsions:
REMARK  status: ('A' for Active; 'I' for Inactive)
REMARK    1  A    between atoms: O_2  and  C_3
REMARK    2  A    between atoms: C_8  and  O_9
REMARK    3  A    between atoms: C_11  and  C_12
REMARK                            x       y       z     vdW  Elec       q    Type
REMARK                         _______ _______ _______ _____ _____    ______ ____
ROOT
ATOM      1  C   UNL     1       3.015   0.134  -0.142  0.00  0.00    +0.000 A 
ATOM      2  C   UNL     1       2.636  -0.805   0.780  0.00  0.00    +0.000 A 
ATOM      3  C   UNL     1       1.273  -1.104   0.991  0.00  0.00    +0.000 A 
ATOM      4  C   UNL     1       0.335  -0.435   0.255  0.00  0.00    +0.000 A 
ATOM      5  C   UNL     1       0.735   0.514  -0.674  0.00  0.00    +0.000 A 
ATOM      6  C   UNL     1       2.065   0.811  -0.886  0.00  0.00    +0.000 A 
ATOM      7  C   UNL     1      -1.107  -0.711   0.439  0.00  0.00    +0.000 C 
ATOM      8  N   UNL     1      -1.448  -1.592   1.304  0.00  0.00    +0.000 NA
ATOM      9  C   UNL     1      -0.545  -2.333   2.109  0.00  0.00    +0.000 C 
ATOM     10  C   UNL     1       0.889  -2.109   1.979  0.00  0.00    +0.000 C 
ENDROOT
BRANCH   7  11
ATOM     11  C   UNL     1      -2.031   0.031  -0.369  0.00  0.00    +0.000 A 
ATOM     12  C   UNL     1      -1.632   0.970  -1.288  0.00  0.00    +0.000 A 
ATOM     13  C   UNL     1      -2.556   1.651  -2.035  0.00  0.00    +0.000 A 
ATOM     14  C   UNL     1      -3.890   1.387  -1.856  0.00  0.00    +0.000 A 
ATOM     15  C   UNL     1      -4.330   0.470  -0.962  0.00  0.00    +0.000 A 
ATOM     16  C   UNL     1      -3.382  -0.212  -0.213  0.00  0.00    +0.000 A 
ATOM     17  N   UNL     1      -3.828  -1.178   0.732  0.00  0.00    +0.000 NA
ENDBRANCH   7  11
BRANCH   1  19
ATOM     18  C   UNL     1       5.415  -0.158   0.309  0.00  0.00    +0.000 C 
ATOM     19  O   UNL     1       4.359   0.452  -0.374  0.00  0.00    +0.000 OA
ENDBRANCH   1  19
BRANCH   6  20
ATOM     20  O   UNL     1       2.489   1.754  -1.808  0.00  0.00    +0.000 OA
ATOM     21  C   UNL     1       1.538   2.461  -2.583  0.00  0.00    +0.000 C 
ENDBRANCH   6  20
TORSDOF 3
