REMARK  Name = 
REMARK  6 active torsions:
REMARK  status: ('A' for Active; 'I' for Inactive)
REMARK    1  A    between atoms: C_2  and  O_3
REMARK    2  A    between atoms: O_3  and  C_4
REMARK    3  A    between atoms: C_4  and  C_6
REMARK    4  A    between atoms: C_15  and  N_16
REMARK    5  A    between atoms: N_16  and  C_17
REMARK    6  A    between atoms: C_17  and  N_19
REMARK                            x       y       z     vdW  Elec       q    Type
REMARK                         _______ _______ _______ _____ _____    ______ ____
ROOT
ATOM      1  C   UNL     1       0.838  -0.974   0.179  0.00  0.00    +0.000 A 
ATOM      2  N   UNL     1       0.285  -2.166  -0.160  0.00  0.00    +0.000 NA
ATOM      3  C   UNL     1      -1.056  -2.042  -0.116  0.00  0.00    +0.000 A 
ATOM      4  C   UNL     1      -2.044  -2.964  -0.374  0.00  0.00    +0.000 A 
ATOM      5  C   UNL     1      -3.359  -2.536  -0.243  0.00  0.00    +0.000 A 
ATOM      6  C   UNL     1      -3.680  -1.250   0.128  0.00  0.00    +0.000 A 
ATOM      7  F   UNL     1      -4.990  -0.924   0.230  0.00  0.00    +0.000 F 
ATOM      8  C   UNL     1      -2.668  -0.353   0.379  0.00  0.00    +0.000 A 
ATOM      9  C   UNL     1      -1.341  -0.723   0.265  0.00  0.00    +0.000 A 
ATOM     10  C   UNL     1      -0.150  -0.062   0.447  0.00  0.00    +0.000 A 
ENDROOT
BRANCH   1  11
ATOM     11  C   UNL     1       2.262  -0.676   0.255  0.00  0.00    +0.000 C 
ATOM     12  O   UNL     1       3.143  -1.556  -0.003  0.00  0.00    +0.000 OA
BRANCH  11  13
ATOM     13  O   UNL     1       2.738   0.573   0.611  0.00  0.00    +0.000 OA
BRANCH  13  15
ATOM     14  C   UNL     1       4.813   0.619  -0.649  0.00  0.00    +0.000 C 
ATOM     15  C   UNL     1       4.125   0.837   0.678  0.00  0.00    +0.000 C 
ENDBRANCH  13  15
ENDBRANCH  11  13
ENDBRANCH   1  11
BRANCH  10  16
ATOM     16  N   UNL     1       0.050   1.278   0.830  0.00  0.00    +0.000 NA
BRANCH  16  17
ATOM     17  C   UNL     1       0.156   2.359  -0.072  0.00  0.00    +0.000 C 
ATOM     18  S   UNL     1       0.043   2.063  -1.662  0.00  0.00    +0.000 S 
BRANCH  17  19
ATOM     19  N   UNL     1       0.359   3.666   0.470  0.00  0.00    +0.000 NA
ATOM     20  C   UNL     1       0.478   4.831  -0.404  0.00  0.00    +0.000 C 
ENDBRANCH  17  19
ENDBRANCH  16  17
ENDBRANCH  10  16
TORSDOF 6
