REMARK  Name = 
REMARK  4 active torsions:
REMARK  status: ('A' for Active; 'I' for Inactive)
REMARK    1  A    between atoms: O_2  and  C_3
REMARK    2  A    between atoms: C_3  and  C_5
REMARK    3  A    between atoms: C_11  and  C_12
REMARK    4  A    between atoms: C_15  and  C_16
REMARK                            x       y       z     vdW  Elec       q    Type
REMARK                         _______ _______ _______ _____ _____    ______ ____
ROOT
ATOM      1  C   UNL     1      -1.210  -0.359  -0.332  0.00  0.00    +0.000 C 
ATOM      2  C   UNL     1      -1.374   0.233  -1.418  0.00  0.00    +0.000 C 
ATOM      3  N   UNL     1      -2.086  -0.468  -2.464  0.00  0.00    +0.000 NA
ATOM      4  O   UNL     1      -0.909   1.505  -1.577  0.00  0.00    +0.000 OA
ATOM      5  C   UNL     1      -0.272   2.185  -0.588  0.00  0.00    +0.000 C 
ATOM      6  C   UNL     1       0.231   3.606  -0.783  0.00  0.00    +0.000 C 
ATOM      7  C   UNL     1      -0.064   1.673   0.545  0.00  0.00    +0.000 C 
ATOM      8  C   UNL     1      -0.347   0.136   0.897  0.00  0.00    +0.000 C 
ENDROOT
BRANCH   8   9
ATOM      9  C   UNL     1       1.059  -0.429   0.513  0.00  0.00    +0.000 A 
ATOM     10  S   UNL     1       2.424   0.265   1.236  0.00  0.00    +0.000 S 
ATOM     11  C   UNL     1       3.653  -0.744   0.543  0.00  0.00    +0.000 A 
ATOM     12  C   UNL     1       2.898  -1.570  -0.222  0.00  0.00    +0.000 A 
ATOM     13  C   UNL     1       1.551  -1.388  -0.223  0.00  0.00    +0.000 A 
ATOM     14  C   UNL     1       0.736  -2.297  -1.114  0.00  0.00    +0.000 C 
ENDBRANCH   8   9
BRANCH   7  15
ATOM     15  C   UNL     1       0.594   2.381   1.621  0.00  0.00    +0.000 C 
ATOM     16  C   UNL     1       0.810   1.812   2.967  0.00  0.00    +0.000 C 
ATOM     17  O   UNL     1       1.029   3.568   1.457  0.00  0.00    +0.000 OA
ENDBRANCH   7  15
BRANCH   1  18
ATOM     18  C   UNL     1      -1.739  -1.724  -0.084  0.00  0.00    +0.000 C 
ATOM     19  O   UNL     1      -1.598  -2.342   0.989  0.00  0.00    +0.000 OA
BRANCH  18  21
ATOM     20  C   UNL     1      -2.943  -3.668  -0.858  0.00  0.00    +0.000 C 
ATOM     21  O   UNL     1      -2.444  -2.375  -1.106  0.00  0.00    +0.000 OA
ENDBRANCH  18  21
ENDBRANCH   1  18
TORSDOF 4
