REMARK  Name = 
REMARK  4 active torsions:
REMARK  status: ('A' for Active; 'I' for Inactive)
REMARK    1  A    between atoms: O_2  and  C_3
REMARK    2  A    between atoms: C_6  and  C_7
REMARK    3  A    between atoms: C_7  and  C_8
REMARK    4  A    between atoms: C_8  and  C_9
REMARK                            x       y       z     vdW  Elec       q    Type
REMARK                         _______ _______ _______ _____ _____    ______ ____
ROOT
ATOM      1  C   UNL     1       0.006  -1.040  -0.403  0.00  0.00    +0.000 C 
ENDROOT
BRANCH   1   2
ATOM      2  C   UNL     1       1.459  -1.292  -0.250  0.00  0.00    +0.000 A 
ATOM      3  N   UNL     1       2.087  -2.445   0.035  0.00  0.00    +0.000 NA
ATOM      4  O   UNL     1       3.383  -2.247   0.081  0.00  0.00    +0.000 OA
ATOM      5  C   UNL     1       3.666  -0.989  -0.165  0.00  0.00    +0.000 A 
ATOM      6  C   UNL     1       2.465  -0.359  -0.379  0.00  0.00    +0.000 A 
ATOM      7  C   UNL     1       2.188   1.077  -0.696  0.00  0.00    +0.000 C 
ATOM      8  C   UNL     1       3.013   1.881   0.302  0.00  0.00    +0.000 C 
ATOM      9  C   UNL     1       4.443   1.989  -0.118  0.00  0.00    +0.000 C 
ATOM     10  C   UNL     1       5.325   0.895   0.384  0.00  0.00    +0.000 C 
ATOM     11  N   UNL     1       4.987  -0.411  -0.197  0.00  0.00    +0.000 NA
ENDBRANCH   1   2
BRANCH   1  12
ATOM     12  C   UNL     1      -0.562  -0.337   0.814  0.00  0.00    +0.000 C 
BRANCH  12  16
ATOM     13  C   UNL     1      -4.684   0.392  -0.156  0.00  0.00    +0.000 A 
ATOM     14  C   UNL     1      -4.322  -0.772   0.488  0.00  0.00    +0.000 A 
ATOM     15  C   UNL     1      -2.994  -1.047   0.822  0.00  0.00    +0.000 A 
ATOM     16  C   UNL     1      -2.022  -0.149   0.508  0.00  0.00    +0.000 A 
ATOM     17  C   UNL     1      -2.383   1.028  -0.143  0.00  0.00    +0.000 A 
ATOM     18  C   UNL     1      -3.698   1.301  -0.473  0.00  0.00    +0.000 A 
BRANCH  13  20
ATOM     19  C   UNL     1      -6.337   1.862  -1.145  0.00  0.00    +0.000 C 
ATOM     20  O   UNL     1      -6.020   0.663  -0.490  0.00  0.00    +0.000 OA
ENDBRANCH  13  20
ENDBRANCH  12  16
ENDBRANCH   1  12
TORSDOF 4
