REMARK  Name = 
REMARK  3 active torsions:
REMARK  status: ('A' for Active; 'I' for Inactive)
REMARK    1  A    between atoms: C_5  and  C_6
REMARK    2  A    between atoms: N_8  and  N_9
REMARK    3  A    between atoms: N_9  and  C_10
REMARK                            x       y       z     vdW  Elec       q    Type
REMARK                         _______ _______ _______ _____ _____    ______ ____
ROOT
ATOM      1  C   UNL     1      -0.351  -0.882  -0.050  0.00  0.00    +0.000 C 
ATOM      2  O   UNL     1       0.067  -1.226  -1.187  0.00  0.00    +0.000 OA
ATOM      3  N   UNL     1       0.494  -1.037   1.055  0.00  0.00    +0.000 NA
ENDROOT
BRANCH   1   8
ATOM      4  C   UNL     1      -5.700   1.244   0.401  0.00  0.00    +0.000 C 
ATOM      5  C   UNL     1      -4.311   0.689   0.271  0.00  0.00    +0.000 A 
ATOM      6  C   UNL     1      -3.356   0.957   1.223  0.00  0.00    +0.000 A 
ATOM      7  C   UNL     1      -2.087   0.456   1.114  0.00  0.00    +0.000 A 
ATOM      8  C   UNL     1      -1.712  -0.338   0.049  0.00  0.00    +0.000 A 
ATOM      9  C   UNL     1      -2.680  -0.603  -0.901  0.00  0.00    +0.000 A 
ATOM     10  C   UNL     1      -3.959  -0.101  -0.800  0.00  0.00    +0.000 A 
ATOM     11  C   UNL     1      -5.004  -0.403  -1.848  0.00  0.00    +0.000 C 
ENDBRANCH   1   8
BRANCH   3  12
ATOM     12  N   UNL     1       1.769  -1.563   0.838  0.00  0.00    +0.000 NA
BRANCH  12  13
ATOM     13  C   UNL     1       2.680  -0.746   0.106  0.00  0.00    +0.000 C 
ATOM     14  C   UNL     1       3.169   0.408   0.465  0.00  0.00    +0.000 C 
ATOM     15  C   UNL     1       3.837   1.762   0.718  0.00  0.00    +0.000 C 
ATOM     16  C   UNL     1       5.202   1.387   0.128  0.00  0.00    +0.000 C 
ATOM     17  C   UNL     1       5.059   0.640  -0.937  0.00  0.00    +0.000 C 
ATOM     18  C   UNL     1       3.504   0.463  -1.145  0.00  0.00    +0.000 C 
ATOM     19  C   UNL     1       3.378  -1.109  -1.147  0.00  0.00    +0.000 C 
ENDBRANCH  12  13
ENDBRANCH   3  12
TORSDOF 3
