REMARK  Name = 
REMARK  2 active torsions:
REMARK  status: ('A' for Active; 'I' for Inactive)
REMARK    1  A    between atoms: C_7  and  N_8
REMARK    2  A    between atoms: C_9  and  C_11
REMARK                            x       y       z     vdW  Elec       q    Type
REMARK                         _______ _______ _______ _____ _____    ______ ____
ROOT
ATOM      1  N   UNL     1      -1.678  -0.262   0.794  0.00  0.00    +0.000 NA
ATOM      2  C   UNL     1      -0.758   0.754   0.649  0.00  0.00    +0.000 C 
ATOM      3  O   UNL     1      -1.129   1.938   0.852  0.00  0.00    +0.000 OA
ENDROOT
BRANCH   2   4
ATOM      4  C   UNL     1       0.610   0.463   0.269  0.00  0.00    +0.000 A 
ATOM      5  N   UNL     1       1.574   1.365   0.097  0.00  0.00    +0.000 NA
ATOM      6  C   UNL     1       2.727   0.779  -0.253  0.00  0.00    +0.000 A 
ATOM      7  C   UNL     1       3.993   1.224  -0.541  0.00  0.00    +0.000 A 
ATOM      8  C   UNL     1       4.987   0.323  -0.876  0.00  0.00    +0.000 A 
ATOM      9  C   UNL     1       4.741  -1.027  -0.930  0.00  0.00    +0.000 A 
ATOM     10  C   UNL     1       3.457  -1.456  -0.635  0.00  0.00    +0.000 A 
ATOM     11  C   UNL     1       2.465  -0.568  -0.302  0.00  0.00    +0.000 A 
ATOM     12  N   UNL     1       1.161  -0.739   0.021  0.00  0.00    +0.000 NA
ENDBRANCH   2   4
BRANCH   1  19
ATOM     13  C   UNL     1      -3.531  -2.178   1.456  0.00  0.00    +0.000 C 
ATOM     14  C   UNL     1      -4.018  -1.029   0.423  0.00  0.00    +0.000 C 
ATOM     15  C   UNL     1      -3.066  -1.508  -0.757  0.00  0.00    +0.000 C 
ATOM     16  C   UNL     1      -2.386  -0.456  -1.446  0.00  0.00    +0.000 C 
ATOM     17  C   UNL     1      -2.704   0.953  -1.197  0.00  0.00    +0.000 C 
ATOM     18  C   UNL     1      -3.345   1.268   0.058  0.00  0.00    +0.000 C 
ATOM     19  C   UNL     1      -3.099   0.155   1.200  0.00  0.00    +0.000 C 
ENDBRANCH   1  19
TORSDOF 2
