REMARK  Name = 
REMARK  3 active torsions:
REMARK  status: ('A' for Active; 'I' for Inactive)
REMARK    1  A    between atoms: O_2  and  C_3
REMARK    2  A    between atoms: C_6  and  N_7
REMARK    3  A    between atoms: C_8  and  C_10
REMARK                            x       y       z     vdW  Elec       q    Type
REMARK                         _______ _______ _______ _____ _____    ______ ____
ROOT
ATOM      1  N   UNL     1       0.096  -0.388  -0.287  0.00  0.00    +0.000 NA
ATOM      2  C   UNL     1      -0.467   0.768   0.319  0.00  0.00    +0.000 C 
ATOM      3  O   UNL     1       0.343   1.511   0.891  0.00  0.00    +0.000 OA
ENDROOT
BRANCH   2   4
ATOM      4  C   UNL     1      -1.935   1.059   0.263  0.00  0.00    +0.000 A 
ATOM      5  C   UNL     1      -2.402   2.194   0.871  0.00  0.00    +0.000 A 
ATOM      6  N   UNL     1      -1.633   3.195   1.592  0.00  0.00    +0.000 NA
ATOM      7  S   UNL     1      -4.075   2.133   0.573  0.00  0.00    +0.000 S 
ATOM      8  C   UNL     1      -4.150   0.681  -0.311  0.00  0.00    +0.000 A 
ATOM      9  C   UNL     1      -2.853   0.270  -0.354  0.00  0.00    +0.000 A 
ATOM     10  C   UNL     1      -2.815  -1.049  -1.139  0.00  0.00    +0.000 C 
ATOM     11  C   UNL     1      -4.219  -1.559  -0.939  0.00  0.00    +0.000 C 
ATOM     12  C   UNL     1      -5.062  -0.288  -1.035  0.00  0.00    +0.000 C 
ENDBRANCH   2   4
BRANCH   1  16
ATOM     13  C   UNL     1       4.192  -1.353  -0.224  0.00  0.00    +0.000 A 
ATOM     14  C   UNL     1       3.778  -0.197   0.405  0.00  0.00    +0.000 A 
ATOM     15  C   UNL     1       2.424   0.129   0.388  0.00  0.00    +0.000 A 
ATOM     16  C   UNL     1       1.488  -0.665  -0.235  0.00  0.00    +0.000 A 
ATOM     17  C   UNL     1       1.946  -1.810  -0.850  0.00  0.00    +0.000 A 
ATOM     18  C   UNL     1       3.291  -2.163  -0.851  0.00  0.00    +0.000 A 
BRANCH  13  20
ATOM     19  C   UNL     1       6.492  -0.825   0.454  0.00  0.00    +0.000 C 
ATOM     20  O   UNL     1       5.560  -1.642  -0.183  0.00  0.00    +0.000 OA
ENDBRANCH  13  20
ENDBRANCH   1  16
TORSDOF 3
