REMARK  Name = 
REMARK  5 active torsions:
REMARK  status: ('A' for Active; 'I' for Inactive)
REMARK    1  A    between atoms: C_2  and  C_3
REMARK    2  A    between atoms: C_3  and  C_4
REMARK    3  A    between atoms: C_4  and  C_5
REMARK    4  A    between atoms: C_5  and  C_6
REMARK    5  A    between atoms: N_12  and  C_13
REMARK                            x       y       z     vdW  Elec       q    Type
REMARK                         _______ _______ _______ _____ _____    ______ ____
ROOT
ATOM      1  C   UNL     1       1.555   0.079  -0.080  0.00  0.00    +0.000 C 
ATOM      2  C   UNL     1       1.527  -1.333   0.588  0.00  0.00    +0.000 C 
ATOM      3  O   UNL     1       2.526  -1.646   1.245  0.00  0.00    +0.000 OA
ATOM      4  N   UNL     1       0.418  -2.135   0.417  0.00  0.00    +0.000 NA
ATOM      5  C   UNL     1      -0.833  -1.611   0.105  0.00  0.00    +0.000 C 
ATOM      6  S   UNL     1      -2.175  -2.572  -0.098  0.00  0.00    +0.000 S 
ATOM      7  N   UNL     1      -1.013  -0.233  -0.050  0.00  0.00    +0.000 N 
ATOM      8  C   UNL     1       0.075   0.590   0.111  0.00  0.00    +0.000 C 
ATOM      9  O   UNL     1      -0.011   1.831   0.426  0.00  0.00    +0.000 OA
ENDROOT
BRANCH   7  10
ATOM     10  C   UNL     1      -2.272   0.386  -0.375  0.00  0.00    +0.000 A 
ATOM     11  C   UNL     1      -2.636   1.500   0.356  0.00  0.00    +0.000 A 
ATOM     12  C   UNL     1      -3.825   2.148   0.097  0.00  0.00    +0.000 A 
ATOM     13  C   UNL     1      -4.656   1.691  -0.888  0.00  0.00    +0.000 A 
ATOM     14  C   UNL     1      -4.260   0.577  -1.595  0.00  0.00    +0.000 A 
ATOM     15  C   UNL     1      -3.080  -0.089  -1.360  0.00  0.00    +0.000 A 
ENDBRANCH   7  10
BRANCH   1  16
ATOM     16  C   UNL     1       2.158   0.858   1.212  0.00  0.00    +0.000 C 
BRANCH  16  17
ATOM     17  C   UNL     1       3.518   0.312   1.471  0.00  0.00    +0.000 C 
BRANCH  17  18
ATOM     18  C   UNL     1       4.457   0.628   0.399  0.00  0.00    +0.000 C 
BRANCH  18  20
ATOM     19  C   UNL     1       4.242  -1.214  -1.347  0.00  0.00    +0.000 C 
ATOM     20  C   UNL     1       4.285   0.234  -0.987  0.00  0.00    +0.000 C 
ENDBRANCH  18  20
ENDBRANCH  17  18
ENDBRANCH  16  17
ENDBRANCH   1  16
TORSDOF 5
