REMARK  Name = 
REMARK  4 active torsions:
REMARK  status: ('A' for Active; 'I' for Inactive)
REMARK    1  A    between atoms: C_2  and  C_4
REMARK    2  A    between atoms: C_4  and  C_5
REMARK    3  A    between atoms: N_7  and  C_8
REMARK    4  A    between atoms: C_13  and  C_14
REMARK                            x       y       z     vdW  Elec       q    Type
REMARK                         _______ _______ _______ _____ _____    ______ ____
ROOT
ATOM      1  C   UNL     1       1.648  -0.289   0.579  0.00  0.00    +0.000 A 
ATOM      2  N   UNL     1       0.452  -0.869   0.446  0.00  0.00    +0.000 NA
ATOM      3  N   UNL     1      -0.416  -0.107  -0.199  0.00  0.00    +0.000 N 
ATOM      4  C   UNL     1       0.247   1.025  -0.500  0.00  0.00    +0.000 A 
ATOM      5  C   UNL     1       1.553   0.941  -0.022  0.00  0.00    +0.000 A 
ATOM      6  C   UNL     1       2.300   2.183  -0.346  0.00  0.00    +0.000 C 
ATOM      7  C   UNL     1       1.220   3.155  -0.757  0.00  0.00    +0.000 C 
ATOM      8  N   UNL     1       0.083   2.307  -1.147  0.00  0.00    +0.000 NA
ENDROOT
BRANCH   3   9
ATOM      9  C   UNL     1      -1.789  -0.432  -0.509  0.00  0.00    +0.000 A 
ATOM     10  C   UNL     1      -2.184  -0.833  -1.760  0.00  0.00    +0.000 A 
ATOM     11  C   UNL     1      -3.526  -1.135  -2.012  0.00  0.00    +0.000 A 
ATOM     12  C   UNL     1      -4.484  -1.041  -1.024  0.00  0.00    +0.000 A 
ATOM     13  C   UNL     1      -4.099  -0.638   0.244  0.00  0.00    +0.000 A 
ATOM     14  C   UNL     1      -2.755  -0.343   0.470  0.00  0.00    +0.000 A 
BRANCH  14  15
ATOM     15  C   UNL     1      -2.364   0.074   1.785  0.00  0.00    +0.000 C 
ATOM     16  N   UNL     1      -2.037   0.419   2.823  0.00  0.00    +0.000 NA
ENDBRANCH  14  15
ENDBRANCH   3   9
BRANCH   1  17
ATOM     17  C   UNL     1       2.875  -0.847   1.246  0.00  0.00    +0.000 C 
BRANCH  17  19
ATOM     18  C   UNL     1       4.370  -0.226  -0.622  0.00  0.00    +0.000 C 
ATOM     19  C   UNL     1       3.897  -1.325   0.273  0.00  0.00    +0.000 C 
ATOM     20  C   UNL     1       5.008  -2.017   1.032  0.00  0.00    +0.000 C 
ENDBRANCH  17  19
ENDBRANCH   1  17
TORSDOF 4
