REMARK  Name = 
REMARK  4 active torsions:
REMARK  status: ('A' for Active; 'I' for Inactive)
REMARK    1  A    between atoms: C_2  and  C_4
REMARK    2  A    between atoms: C_4  and  C_5
REMARK    3  A    between atoms: N_9  and  C_10
REMARK    4  A    between atoms: C_10  and  C_11
REMARK                            x       y       z     vdW  Elec       q    Type
REMARK                         _______ _______ _______ _____ _____    ______ ____
ROOT
ATOM      1  C   UNL     1       2.356   0.344  -1.614  0.00  0.00    +0.000 C 
ATOM      2  N   UNL     1       1.688   1.768  -1.511  0.00  0.00    +0.000 NA
ATOM      3  C   UNL     1       0.955   1.769  -0.315  0.00  0.00    +0.000 C 
ATOM      4  O   UNL     1       0.645   2.798   0.348  0.00  0.00    +0.000 OA
ATOM      5  N   UNL     1       0.625   0.429   0.020  0.00  0.00    +0.000 N 
ATOM      6  C   UNL     1       1.135  -0.430  -0.938  0.00  0.00    +0.000 C 
ATOM      7  O   UNL     1       0.858  -1.552  -1.330  0.00  0.00    +0.000 OA
ENDROOT
BRANCH   1   8
ATOM      8  C   UNL     1       3.232   0.532  -0.241  0.00  0.00    +0.000 C 
BRANCH   8  10
ATOM      9  C   UNL     1       4.880  -0.594   1.204  0.00  0.00    +0.000 C 
ATOM     10  C   UNL     1       4.037  -0.702  -0.040  0.00  0.00    +0.000 C 
ATOM     11  C   UNL     1       3.091  -1.865   0.151  0.00  0.00    +0.000 C 
ENDBRANCH   8  10
ENDBRANCH   1   8
BRANCH   5  12
ATOM     12  C   UNL     1      -0.135  -0.045   1.169  0.00  0.00    +0.000 C 
BRANCH  12  13
ATOM     13  C   UNL     1      -1.576  -0.110   0.853  0.00  0.00    +0.000 A 
ATOM     14  C   UNL     1      -2.460  -0.537   1.822  0.00  0.00    +0.000 A 
ATOM     15  C   UNL     1      -3.797  -0.583   1.486  0.00  0.00    +0.000 A 
ATOM     16  C   UNL     1      -4.252  -0.221   0.242  0.00  0.00    +0.000 A 
ATOM     17 CL   UNL     1      -5.942  -0.272  -0.203  0.00  0.00    +0.000 Cl
ATOM     18  C   UNL     1      -3.343   0.202  -0.705  0.00  0.00    +0.000 A 
ATOM     19  C   UNL     1      -1.998   0.258  -0.397  0.00  0.00    +0.000 A 
ENDBRANCH  12  13
ENDBRANCH   5  12
TORSDOF 4
