REMARK  Name = 
REMARK  1 active torsions:
REMARK  status: ('A' for Active; 'I' for Inactive)
REMARK    1  A    between atoms: C_6  and  N_7
REMARK                            x       y       z     vdW  Elec       q    Type
REMARK                         _______ _______ _______ _____ _____    ______ ____
ROOT
ATOM      1  N   UNL     1       0.692  -0.428  -0.324  0.00  0.00    +0.000 NA
ATOM      2  C   UNL     1      -0.297   0.346   0.317  0.00  0.00    +0.000 A 
ATOM      3  N   UNL     1       0.132   1.404   1.014  0.00  0.00    +0.000 NA
ATOM      4  C   UNL     1      -0.655   2.252   1.686  0.00  0.00    +0.000 A 
ATOM      5  N   UNL     1      -1.973   1.986   1.633  0.00  0.00    +0.000 NA
ATOM      6  C   UNL     1      -2.464   0.920   0.936  0.00  0.00    +0.000 A 
ATOM      7  S   UNL     1      -4.036   0.319   0.673  0.00  0.00    +0.000 S 
ATOM      8  C   UNL     1      -3.651  -1.026  -0.307  0.00  0.00    +0.000 A 
ATOM      9  C   UNL     1      -2.306  -0.967  -0.400  0.00  0.00    +0.000 A 
ATOM     10  C   UNL     1      -1.670   0.048   0.247  0.00  0.00    +0.000 A 
ATOM     11  C   UNL     1      -1.918  -2.158  -1.261  0.00  0.00    +0.000 C 
ATOM     12  C   UNL     1      -3.127  -2.294  -2.153  0.00  0.00    +0.000 C 
ATOM     13  C   UNL     1      -4.224  -2.198  -1.078  0.00  0.00    +0.000 C 
ENDROOT
BRANCH   1  19
ATOM     14  O   UNL     1       4.705   2.031   0.994  0.00  0.00    +0.000 OA
ATOM     15  C   UNL     1       4.058   0.988   0.329  0.00  0.00    +0.000 A 
ATOM     16  C   UNL     1       4.850   0.109  -0.365  0.00  0.00    +0.000 A 
ATOM     17  C   UNL     1       4.251  -0.933  -1.034  0.00  0.00    +0.000 A 
ATOM     18  C   UNL     1       2.892  -1.061  -0.987  0.00  0.00    +0.000 A 
ATOM     19  C   UNL     1       2.062  -0.186  -0.291  0.00  0.00    +0.000 A 
ATOM     20  C   UNL     1       2.681   0.850   0.371  0.00  0.00    +0.000 A 
ENDBRANCH   1  19
TORSDOF 1
