REMARK  Name = 
REMARK  3 active torsions:
REMARK  status: ('A' for Active; 'I' for Inactive)
REMARK    1  A    between atoms: O_2  and  C_3
REMARK    2  A    between atoms: C_3  and  C_5
REMARK    3  A    between atoms: C_14  and  C_15
REMARK                            x       y       z     vdW  Elec       q    Type
REMARK                         _______ _______ _______ _____ _____    ______ ____
ROOT
ATOM      1  C   UNL     1      -1.201  -0.387  -0.260  0.00  0.00    +0.000 C 
ATOM      2  C   UNL     1      -1.526   0.133  -1.377  0.00  0.00    +0.000 C 
ATOM      3  C   UNL     1      -2.278  -0.790  -2.323  0.00  0.00    +0.000 C 
ATOM      4  N   UNL     1      -1.188   1.427  -1.704  0.00  0.00    +0.000 NA
ATOM      5  C   UNL     1      -0.470   2.253  -0.845  0.00  0.00    +0.000 A 
ATOM      6  N   UNL     1       0.019   3.534  -0.917  0.00  0.00    +0.000 NA
ATOM      7  C   UNL     1       0.663   3.770   0.225  0.00  0.00    +0.000 A 
ATOM      8  N   UNL     1       0.589   2.678   1.002  0.00  0.00    +0.000 NA
ATOM      9  N   UNL     1      -0.131   1.778   0.272  0.00  0.00    +0.000 N 
ATOM     10  C   UNL     1      -0.443   0.401   0.898  0.00  0.00    +0.000 C 
ENDROOT
BRANCH  10  11
ATOM     11  C   UNL     1       0.994  -0.244   0.831  0.00  0.00    +0.000 A 
ATOM     12  S   UNL     1       2.055  -0.428   2.145  0.00  0.00    +0.000 S 
ATOM     13  C   UNL     1       3.373  -1.172   1.313  0.00  0.00    +0.000 A 
ATOM     14  C   UNL     1       2.909  -1.232   0.057  0.00  0.00    +0.000 A 
ATOM     15  C   UNL     1       1.665  -0.749  -0.201  0.00  0.00    +0.000 A 
ATOM     16  C   UNL     1       1.141  -0.827  -1.617  0.00  0.00    +0.000 C 
ENDBRANCH  10  11
BRANCH   1  17
ATOM     17  C   UNL     1      -1.524  -1.784   0.094  0.00  0.00    +0.000 C 
ATOM     18  O   UNL     1      -2.131  -2.527  -0.683  0.00  0.00    +0.000 OA
BRANCH  17  20
ATOM     19  C   UNL     1      -1.393  -3.586   1.762  0.00  0.00    +0.000 C 
ATOM     20  O   UNL     1      -1.126  -2.247   1.329  0.00  0.00    +0.000 OA
ENDBRANCH  17  20
ENDBRANCH   1  17
TORSDOF 3
