REMARK  Name = 
REMARK  3 active torsions:
REMARK  status: ('A' for Active; 'I' for Inactive)
REMARK    1  A    between atoms: C_6  and  C_7
REMARK    2  A    between atoms: N_9  and  C_10
REMARK    3  A    between atoms: C_10  and  C_11
REMARK                            x       y       z     vdW  Elec       q    Type
REMARK                         _______ _______ _______ _____ _____    ______ ____
ROOT
ATOM      1  N   UNL     1       0.937  -2.692   2.310  0.00  0.00    +0.000 NA
ATOM      2  C   UNL     1       1.679  -1.608   1.689  0.00  0.00    +0.000 A 
ATOM      3  S   UNL     1       3.232  -1.019   2.079  0.00  0.00    +0.000 S 
ATOM      4  C   UNL     1       3.354   0.214   0.918  0.00  0.00    +0.000 A 
ATOM      5  C   UNL     1       2.172   0.137   0.248  0.00  0.00    +0.000 A 
ATOM      6  C   UNL     1       1.291  -0.809   0.641  0.00  0.00    +0.000 A 
ATOM      7  C   UNL     1       2.028   1.158  -0.867  0.00  0.00    +0.000 C 
ATOM      8  C   UNL     1       3.239   1.032  -1.731  0.00  0.00    +0.000 C 
ATOM      9  C   UNL     1       4.538   1.239  -0.997  0.00  0.00    +0.000 C 
ATOM     10  C   UNL     1       4.358   1.263   0.499  0.00  0.00    +0.000 C 
ENDROOT
BRANCH   6  11
ATOM     11  C   UNL     1      -0.050  -1.038   0.020  0.00  0.00    +0.000 C 
ATOM     12  O   UNL     1      -0.823  -1.919   0.415  0.00  0.00    +0.000 OA
ATOM     13  N   UNL     1      -0.463  -0.225  -1.057  0.00  0.00    +0.000 NA
BRANCH  13  14
ATOM     14  C   UNL     1      -1.702  -0.315  -1.753  0.00  0.00    +0.000 C 
BRANCH  14  15
ATOM     15  C   UNL     1      -2.854   0.243  -1.021  0.00  0.00    +0.000 A 
ATOM     16  C   UNL     1      -4.098   0.233  -1.602  0.00  0.00    +0.000 A 
ATOM     17  C   UNL     1      -5.208   0.749  -0.944  0.00  0.00    +0.000 A 
ATOM     18  C   UNL     1      -5.074   1.286   0.321  0.00  0.00    +0.000 A 
ATOM     19  C   UNL     1      -3.835   1.296   0.900  0.00  0.00    +0.000 A 
ATOM     20  C   UNL     1      -2.720   0.776   0.235  0.00  0.00    +0.000 A 
ENDBRANCH  14  15
ENDBRANCH  13  14
ENDBRANCH   6  11
TORSDOF 3
