REMARK  Name = 
REMARK  5 active torsions:
REMARK  status: ('A' for Active; 'I' for Inactive)
REMARK    1  A    between atoms: N_2  and  C_4
REMARK    2  A    between atoms: C_7  and  N_8
REMARK    3  A    between atoms: C_15  and  N_16
REMARK    4  A    between atoms: N_16  and  C_17
REMARK    5  A    between atoms: C_17  and  C_18
REMARK                            x       y       z     vdW  Elec       q    Type
REMARK                         _______ _______ _______ _____ _____    ______ ____
ROOT
ATOM      1  C   UNL     1      -0.215  -2.072   0.818  0.00  0.00    +0.000 A 
ATOM      2  C   UNL     1       1.077  -2.582   0.982  0.00  0.00    +0.000 A 
ATOM      3  C   UNL     1       2.201  -1.835   0.716  0.00  0.00    +0.000 A 
ATOM      4  C   UNL     1       2.022  -0.537   0.272  0.00  0.00    +0.000 A 
ATOM      5  C   UNL     1       0.747  -0.040   0.112  0.00  0.00    +0.000 A 
ATOM      6  C   UNL     1      -0.384  -0.780   0.377  0.00  0.00    +0.000 A 
ENDROOT
BRANCH   4   7
ATOM      7  N   UNL     1       3.118   0.313  -0.030  0.00  0.00    +0.000 N 
ATOM      8  C   UNL     1       4.445  -0.235   0.144  0.00  0.00    +0.000 C 
ATOM      9  C   UNL     1       5.486   0.810   0.407  0.00  0.00    +0.000 C 
ATOM     10  C   UNL     1       5.241   2.090  -0.352  0.00  0.00    +0.000 C 
ATOM     11  C   UNL     1       3.873   2.650  -0.006  0.00  0.00    +0.000 C 
ATOM     12  C   UNL     1       2.855   1.646  -0.483  0.00  0.00    +0.000 C 
ENDBRANCH   4   7
BRANCH   1  14
ATOM     13  O   UNL     1      -1.280  -3.753   1.942  0.00  0.00    +0.000 OA
ATOM     14  N   UNL     1      -1.376  -2.842   1.093  0.00  0.00    +0.000 N 
ATOM     15  O   UNL     1      -2.575  -2.651   0.495  0.00  0.00    +0.000 OA
ENDBRANCH   1  14
BRANCH   6  16
ATOM     16  N   UNL     1      -1.701  -0.281   0.217  0.00  0.00    +0.000 NA
BRANCH  16  17
ATOM     17  C   UNL     1      -1.832   1.085  -0.251  0.00  0.00    +0.000 C 
BRANCH  17  18
ATOM     18  C   UNL     1      -3.240   1.502  -0.381  0.00  0.00    +0.000 A 
ATOM     19  C   UNL     1      -3.966   1.336  -1.543  0.00  0.00    +0.000 A 
ATOM     20  C   UNL     1      -5.233   1.832  -1.311  0.00  0.00    +0.000 A 
ATOM     21  C   UNL     1      -5.223   2.280  -0.011  0.00  0.00    +0.000 A 
ATOM     22  O   UNL     1      -4.038   2.066   0.492  0.00  0.00    +0.000 OA
ENDBRANCH  17  18
ENDBRANCH  16  17
ENDBRANCH   6  16
TORSDOF 5
