REMARK  Name = 
REMARK  4 active torsions:
REMARK  status: ('A' for Active; 'I' for Inactive)
REMARK    1  A    between atoms: C_2  and  O_3
REMARK    2  A    between atoms: O_3  and  C_4
REMARK    3  A    between atoms: C_4  and  C_6
REMARK    4  A    between atoms: C_17  and  C_18
REMARK                            x       y       z     vdW  Elec       q    Type
REMARK                         _______ _______ _______ _____ _____    ______ ____
ROOT
ATOM      1  C   UNL     1       0.905  -0.501  -0.558  0.00  0.00    +0.000 C 
ATOM      2  C   UNL     1       1.143  -1.554   0.104  0.00  0.00    +0.000 C 
ATOM      3  N   UNL     1       2.523  -1.973   0.398  0.00  0.00    +0.000 NA
ATOM      4  O   UNL     1       0.148  -2.365   0.587  0.00  0.00    +0.000 OA
ATOM      5  C   UNL     1      -1.173  -2.006   0.332  0.00  0.00    +0.000 C 
ATOM      6  C   UNL     1      -1.492  -0.954  -0.331  0.00  0.00    +0.000 C 
ATOM      7  C   UNL     1      -2.895  -0.635  -0.563  0.00  0.00    +0.000 C 
ATOM      8  O   UNL     1      -3.293   0.004  -1.590  0.00  0.00    +0.000 OA
ATOM      9  C   UNL     1      -3.893  -1.078   0.442  0.00  0.00    +0.000 C 
ATOM     10  C   UNL     1      -3.446  -2.199   1.311  0.00  0.00    +0.000 C 
ATOM     11  C   UNL     1      -2.217  -2.913   0.873  0.00  0.00    +0.000 C 
ATOM     12  C   UNL     1      -0.471   0.049  -0.934  0.00  0.00    +0.000 C 
ENDROOT
BRANCH  12  13
ATOM     13  C   UNL     1      -0.533   1.236   0.124  0.00  0.00    +0.000 A 
ATOM     14  C   UNL     1      -0.609   1.107   1.423  0.00  0.00    +0.000 A 
ATOM     15  C   UNL     1      -0.654   2.245   2.207  0.00  0.00    +0.000 A 
ATOM     16  C   UNL     1      -0.621   3.483   1.646  0.00  0.00    +0.000 A 
ATOM     17  C   UNL     1      -0.540   3.638   0.279  0.00  0.00    +0.000 A 
ATOM     18  C   UNL     1      -0.496   2.455  -0.478  0.00  0.00    +0.000 A 
ENDBRANCH  12  13
BRANCH   1  19
ATOM     19  C   UNL     1       2.085   0.283  -1.020  0.00  0.00    +0.000 C 
ATOM     20  O   UNL     1       1.903   1.330  -1.677  0.00  0.00    +0.000 OA
BRANCH  19  21
ATOM     21  O   UNL     1       3.377  -0.094  -0.755  0.00  0.00    +0.000 OA
BRANCH  21  23
ATOM     22  C   UNL     1       5.727  -0.164  -0.656  0.00  0.00    +0.000 C 
ATOM     23  C   UNL     1       4.524   0.607  -1.165  0.00  0.00    +0.000 C 
ENDBRANCH  21  23
ENDBRANCH  19  21
ENDBRANCH   1  19
TORSDOF 4
