REMARK  Name = 
REMARK  4 active torsions:
REMARK  status: ('A' for Active; 'I' for Inactive)
REMARK    1  A    between atoms: S_2  and  C_3
REMARK    2  A    between atoms: C_6  and  C_7
REMARK    3  A    between atoms: N_8  and  N_9
REMARK    4  A    between atoms: C_10  and  C_12
REMARK                            x       y       z     vdW  Elec       q    Type
REMARK                         _______ _______ _______ _____ _____    ______ ____
ROOT
ATOM      1  C   UNL     1       1.135   0.004  -0.314  0.00  0.00    +0.000 C 
ATOM      2  N   UNL     1       0.258   0.946  -0.307  0.00  0.00    +0.000 NA
ENDROOT
BRANCH   1   6
ATOM      3  C   UNL     1       5.316   0.612   0.260  0.00  0.00    +0.000 A 
ATOM      4  C   UNL     1       4.460   1.688   0.287  0.00  0.00    +0.000 A 
ATOM      5  C   UNL     1       3.090   1.498   0.100  0.00  0.00    +0.000 A 
ATOM      6  C   UNL     1       2.567   0.265  -0.111  0.00  0.00    +0.000 A 
ATOM      7  C   UNL     1       3.401  -0.828  -0.142  0.00  0.00    +0.000 A 
ATOM      8  C   UNL     1       4.745  -0.624   0.043  0.00  0.00    +0.000 A 
BRANCH   3  10
ATOM      9  C   UNL     1       7.830  -0.882   0.383  0.00  0.00    +0.000 C 
ATOM     10  S   UNL     1       7.072   0.761   0.489  0.00  0.00    +0.000 S 
ENDBRANCH   3  10
ENDBRANCH   1   6
BRANCH   2  11
ATOM     11  N   UNL     1      -1.117   0.708  -0.500  0.00  0.00    +0.000 NA
ATOM     12  C   UNL     1      -1.889   0.039   0.489  0.00  0.00    +0.000 C 
ATOM     13  O   UNL     1      -1.273  -0.318   1.527  0.00  0.00    +0.000 OA
BRANCH  12  14
ATOM     14  C   UNL     1      -3.318  -0.221   0.312  0.00  0.00    +0.000 A 
ATOM     15  C   UNL     1      -3.971   0.180  -0.833  0.00  0.00    +0.000 A 
ATOM     16  C   UNL     1      -5.332  -0.088  -0.958  0.00  0.00    +0.000 A 
ATOM     17  C   UNL     1      -6.039  -0.740   0.028  0.00  0.00    +0.000 A 
ATOM     18  C   UNL     1      -7.508  -1.014  -0.138  0.00  0.00    +0.000 C 
ATOM     19  N   UNL     1      -5.374  -1.118   1.133  0.00  0.00    +0.000 NA
ATOM     20  C   UNL     1      -4.051  -0.867   1.275  0.00  0.00    +0.000 A 
ENDBRANCH  12  14
ENDBRANCH   2  11
TORSDOF 4
