REMARK  Name = 
REMARK  5 active torsions:
REMARK  status: ('A' for Active; 'I' for Inactive)
REMARK    1  A    between atoms: C_2  and  C_15
REMARK    2  A    between atoms: N_3  and  C_4
REMARK    3  A    between atoms: C_4  and  N_6
REMARK    4  A    between atoms: N_6  and  C_7
REMARK    5  A    between atoms: C_12  and  C_13
REMARK                            x       y       z     vdW  Elec       q    Type
REMARK                         _______ _______ _______ _____ _____    ______ ____
ROOT
ATOM      1  C   UNL     1      -0.154  -0.052   0.030  0.00  0.00    +0.000 C 
ATOM      2  S   UNL     1      -0.091  -1.645  -0.301  0.00  0.00    +0.000 S 
ENDROOT
BRANCH   1   5
ATOM      3  O   UNL     1       2.262  -1.184  -0.554  0.00  0.00    +0.000 OA
ATOM      4  C   UNL     1       2.277   0.063  -0.304  0.00  0.00    +0.000 C 
ATOM      5  N   UNL     1       1.045   0.695   0.005  0.00  0.00    +0.000 NA
BRANCH   4   6
ATOM      6  C   UNL     1       3.545   0.838  -0.333  0.00  0.00    +0.000 C 
ATOM      7  C   UNL     1       3.870   1.481   0.978  0.00  0.00    +0.000 C 
ATOM      8  C   UNL     1       4.490   0.517   1.961  0.00  0.00    +0.000 C 
ATOM      9  C   UNL     1       5.727  -0.094   1.341  0.00  0.00    +0.000 C 
ATOM     10  C   UNL     1       5.418  -0.795   0.040  0.00  0.00    +0.000 C 
ATOM     11  C   UNL     1       4.660   0.049  -0.929  0.00  0.00    +0.000 C 
ENDBRANCH   4   6
ENDBRANCH   1   5
BRANCH   1  12
ATOM     12  N   UNL     1      -1.401   0.540   0.333  0.00  0.00    +0.000 NA
BRANCH  12  13
ATOM     13  C   UNL     1      -2.622  -0.140   0.375  0.00  0.00    +0.000 A 
ATOM     14  C   UNL     1      -2.686  -1.484   0.112  0.00  0.00    +0.000 A 
ATOM     15  C   UNL     1      -3.884  -2.164   0.151  0.00  0.00    +0.000 A 
ATOM     16  C   UNL     1      -5.057  -1.511   0.455  0.00  0.00    +0.000 A 
ATOM     17  C   UNL     1      -4.989  -0.160   0.719  0.00  0.00    +0.000 A 
ATOM     18  C   UNL     1      -3.785   0.532   0.682  0.00  0.00    +0.000 A 
BRANCH  18  19
ATOM     19  C   UNL     1      -3.698   1.976   0.961  0.00  0.00    +0.000 C 
ATOM     20  O   UNL     1      -4.925   2.538   1.255  0.00  0.00    +0.000 OA
ENDBRANCH  18  19
ENDBRANCH  12  13
ENDBRANCH   1  12
TORSDOF 5
