REMARK  Name = 
REMARK  1 active torsions:
REMARK  status: ('A' for Active; 'I' for Inactive)
REMARK    1  A    between atoms: N_6  and  C_7
REMARK                            x       y       z     vdW  Elec       q    Type
REMARK                         _______ _______ _______ _____ _____    ______ ____
ROOT
ATOM      1  O   UNL     1      -1.540  -1.282   2.522  0.00  0.00    +0.000 OA
ATOM      2  C   UNL     1      -0.783  -0.796   1.632  0.00  0.00    +0.000 C 
ATOM      3  N   UNL     1       0.601  -1.019   1.375  0.00  0.00    +0.000 NA
ATOM      4  C   UNL     1       1.015   0.078   0.486  0.00  0.00    +0.000 C 
ATOM      5  N   UNL     1      -0.113   0.986   0.411  0.00  0.00    +0.000 NA
ATOM      6  N   UNL     1      -1.223   0.140   0.649  0.00  0.00    +0.000 N 
ATOM      7  C   UNL     1       2.241   0.674   1.101  0.00  0.00    +0.000 C 
ATOM      8  C   UNL     1       2.764   1.795   0.266  0.00  0.00    +0.000 C 
ATOM      9  C   UNL     1       3.104   1.263  -1.125  0.00  0.00    +0.000 C 
ATOM     10  C   UNL     1       4.070   0.103  -1.032  0.00  0.00    +0.000 C 
ATOM     11  C   UNL     1       3.496  -1.016  -0.177  0.00  0.00    +0.000 C 
ATOM     12  C   UNL     1       3.253  -0.467   1.227  0.00  0.00    +0.000 C 
ATOM     13  C   UNL     1       2.248  -1.572  -0.800  0.00  0.00    +0.000 C 
ATOM     14  C   UNL     1       1.260  -0.431  -0.922  0.00  0.00    +0.000 C 
ATOM     15  C   UNL     1       1.810   0.720  -1.727  0.00  0.00    +0.000 C 
ENDROOT
BRANCH   6  16
ATOM     16  C   UNL     1      -2.493   0.230   0.022  0.00  0.00    +0.000 A 
ATOM     17  C   UNL     1      -3.644  -0.224   0.590  0.00  0.00    +0.000 A 
ATOM     18  C   UNL     1      -4.880  -0.123  -0.056  0.00  0.00    +0.000 A 
ATOM     19  C   UNL     1      -4.901   0.462  -1.308  0.00  0.00    +0.000 A 
ATOM     20  C   UNL     1      -3.749   0.932  -1.907  0.00  0.00    +0.000 A 
ATOM     21  C   UNL     1      -2.537   0.809  -1.226  0.00  0.00    +0.000 A 
ENDBRANCH   6  16
TORSDOF 1
