REMARK  Name = 
REMARK  2 active torsions:
REMARK  status: ('A' for Active; 'I' for Inactive)
REMARK    1  A    between atoms: C_4  and  C_5
REMARK    2  A    between atoms: C_8  and  C_9
REMARK                            x       y       z     vdW  Elec       q    Type
REMARK                         _______ _______ _______ _____ _____    ______ ____
ROOT
ATOM      1  C   UNL     1      -1.246   0.791  -0.181  0.00  0.00    +0.000 A 
ATOM      2  C   UNL     1      -1.092   2.155  -0.140  0.00  0.00    +0.000 A 
ATOM      3  S   UNL     1       0.601   2.316  -0.001  0.00  0.00    +0.000 S 
ATOM      4  C   UNL     1       1.006   0.660  -0.002  0.00  0.00    +0.000 A 
ATOM      5  N   UNL     1      -0.172   0.069  -0.109  0.00  0.00    +0.000 NA
ENDROOT
BRANCH   1   9
ATOM      6  C   UNL     1      -6.268   0.151  -0.597  0.00  0.00    +0.000 C 
ATOM      7  C   UNL     1      -4.796  -0.133  -0.485  0.00  0.00    +0.000 A 
ATOM      8  C   UNL     1      -3.800   0.835  -0.385  0.00  0.00    +0.000 A 
ATOM      9  C   UNL     1      -2.594   0.175  -0.302  0.00  0.00    +0.000 A 
ATOM     10  C   UNL     1      -2.913  -1.171  -0.355  0.00  0.00    +0.000 A 
ATOM     11  C   UNL     1      -1.894  -2.251  -0.295  0.00  0.00    +0.000 C 
ATOM     12  O   UNL     1      -4.212  -1.309  -0.462  0.00  0.00    +0.000 OA
ENDBRANCH   1   9
BRANCH   4  13
ATOM     13  C   UNL     1       2.320   0.031   0.090  0.00  0.00    +0.000 A 
ATOM     14  C   UNL     1       2.457  -1.336   0.074  0.00  0.00    +0.000 A 
ATOM     15  C   UNL     1       3.721  -1.932   0.163  0.00  0.00    +0.000 A 
ATOM     16  C   UNL     1       4.834  -1.131   0.269  0.00  0.00    +0.000 A 
ATOM     17  C   UNL     1       4.713   0.235   0.287  0.00  0.00    +0.000 A 
ATOM     18  N   UNL     1       5.876   1.056   0.397  0.00  0.00    +0.000 NA
ATOM     19  C   UNL     1       3.458   0.788   0.198  0.00  0.00    +0.000 A 
ENDBRANCH   4  13
TORSDOF 2
