REMARK  Name = 
REMARK  2 active torsions:
REMARK  status: ('A' for Active; 'I' for Inactive)
REMARK    1  A    between atoms: C_8  and  C_9
REMARK    2  A    between atoms: C_12  and  C_13
REMARK                            x       y       z     vdW  Elec       q    Type
REMARK                         _______ _______ _______ _____ _____    ______ ____
ROOT
ATOM      1  C   UNL     1      -0.119  -0.497   0.018  0.00  0.00    +0.000 C 
ATOM      2  N   UNL     1       0.247  -1.715  -0.068  0.00  0.00    +0.000 NA
ATOM      3  N   UNL     1       1.671  -1.815  -0.054  0.00  0.00    +0.000 NA
ATOM      4  C   UNL     1       1.879  -0.505  -0.997  0.00  0.00    +0.000 C 
ATOM      5  C   UNL     1       1.064   0.366   0.146  0.00  0.00    +0.000 C 
ENDROOT
BRANCH   1  13
ATOM      6  C   UNL     1      -3.118   3.432   0.263  0.00  0.00    +0.000 C 
ATOM      7  C   UNL     1      -3.002   1.941   0.151  0.00  0.00    +0.000 A 
ATOM      8  C   UNL     1      -4.079   1.114   0.069  0.00  0.00    +0.000 A 
ATOM      9  C   UNL     1      -3.883  -0.255  -0.032  0.00  0.00    +0.000 A 
ATOM     10  C   UNL     1      -5.066  -1.136  -0.121  0.00  0.00    +0.000 C 
ATOM     11  C   UNL     1      -2.588  -0.789  -0.049  0.00  0.00    +0.000 A 
ATOM     12  O   UNL     1      -2.450  -2.147  -0.150  0.00  0.00    +0.000 OA
ATOM     13  C   UNL     1      -1.490   0.049   0.035  0.00  0.00    +0.000 A 
ATOM     14  C   UNL     1      -1.748   1.398   0.133  0.00  0.00    +0.000 A 
ENDBRANCH   1  13
BRANCH   4  15
ATOM     15  C   UNL     1       3.305  -0.177  -0.542  0.00  0.00    +0.000 A 
ATOM     16  C   UNL     1       3.848  -0.134   0.662  0.00  0.00    +0.000 A 
ATOM     17  C   UNL     1       5.145   0.190   0.750  0.00  0.00    +0.000 A 
ATOM     18  C   UNL     1       5.829   0.456  -0.402  0.00  0.00    +0.000 A 
ATOM     19  S   UNL     1       4.553   0.223  -1.572  0.00  0.00    +0.000 S 
ENDBRANCH   4  15
TORSDOF 2
