REMARK  Name = 
REMARK  5 active torsions:
REMARK  status: ('A' for Active; 'I' for Inactive)
REMARK    1  A    between atoms: O_2  and  C_3
REMARK    2  A    between atoms: C_7  and  C_8
REMARK    3  A    between atoms: C_8  and  N_9
REMARK    4  A    between atoms: N_9  and  C_10
REMARK    5  A    between atoms: C_15  and  N_16
REMARK                            x       y       z     vdW  Elec       q    Type
REMARK                         _______ _______ _______ _____ _____    ______ ____
ROOT
ATOM      1  N   UNL     1       0.168  -0.081   0.071  0.00  0.00    +0.000 NA
ENDROOT
BRANCH   1   2
ATOM      2  C   UNL     1       1.436   0.317   0.521  0.00  0.00    +0.000 A 
ATOM      3  C   UNL     1       1.617   1.026   1.684  0.00  0.00    +0.000 A 
ATOM      4  C   UNL     1       2.890   1.380   2.059  0.00  0.00    +0.000 A 
ATOM      5  C   UNL     1       3.995   1.048   1.308  0.00  0.00    +0.000 A 
ATOM      6  C   UNL     1       5.378   1.432   1.716  0.00  0.00    +0.000 C 
ATOM      7  C   UNL     1       3.828   0.333   0.134  0.00  0.00    +0.000 A 
ATOM      8  C   UNL     1       2.543  -0.012  -0.225  0.00  0.00    +0.000 A 
BRANCH   7   9
ATOM      9  N   UNL     1       4.968   0.002  -0.620  0.00  0.00    +0.000 N 
ATOM     10  O   UNL     1       4.995  -0.999  -1.355  0.00  0.00    +0.000 OA
ATOM     11  O   UNL     1       6.084   0.790  -0.555  0.00  0.00    +0.000 OA
ENDBRANCH   7   9
ENDBRANCH   1   2
BRANCH   1  12
ATOM     12  C   UNL     1      -1.064   0.230   0.801  0.00  0.00    +0.000 C 
BRANCH  12  17
ATOM     13  C   UNL     1      -4.626  -0.605   0.018  0.00  0.00    +0.000 A 
ATOM     14  C   UNL     1      -4.526  -1.300  -1.160  0.00  0.00    +0.000 A 
ATOM     15  C   UNL     1      -3.285  -1.497  -1.702  0.00  0.00    +0.000 A 
ATOM     16  C   UNL     1      -2.149  -1.015  -1.092  0.00  0.00    +0.000 A 
ATOM     17  C   UNL     1      -2.245  -0.320   0.086  0.00  0.00    +0.000 A 
ATOM     18  C   UNL     1      -3.491  -0.123   0.627  0.00  0.00    +0.000 A 
ATOM     19  O   UNL     1      -3.596   0.586   1.830  0.00  0.00    +0.000 OA
BRANCH  13  21
ATOM     20  C   UNL     1      -7.069  -0.831   0.060  0.00  0.00    +0.000 C 
ATOM     21  O   UNL     1      -5.852  -0.361   0.635  0.00  0.00    +0.000 OA
ENDBRANCH  13  21
ENDBRANCH  12  17
ENDBRANCH   1  12
TORSDOF 5
