REMARK  Name = 
REMARK  3 active torsions:
REMARK  status: ('A' for Active; 'I' for Inactive)
REMARK    1  A    between atoms: C_2  and  C_4
REMARK    2  A    between atoms: C_2  and  C_13
REMARK    3  A    between atoms: N_6  and  N_7
REMARK                            x       y       z     vdW  Elec       q    Type
REMARK                         _______ _______ _______ _____ _____    ______ ____
ROOT
ATOM      1  C   UNL     1      -1.164   2.063  -0.418  0.00  0.00    +0.000 C 
ATOM      2  C   UNL     1      -1.263   0.738   0.302  0.00  0.00    +0.000 C 
ATOM      3  O   UNL     1      -1.668   1.008   1.623  0.00  0.00    +0.000 OA
ENDROOT
BRANCH   2   4
ATOM      4  C   UNL     1      -2.259  -0.126  -0.360  0.00  0.00    +0.000 A 
ATOM      5  C   UNL     1      -3.124   0.431  -1.285  0.00  0.00    +0.000 A 
ATOM      6  C   UNL     1      -4.083  -0.325  -1.943  0.00  0.00    +0.000 A 
ATOM      7  C   UNL     1      -4.200  -1.676  -1.687  0.00  0.00    +0.000 A 
ATOM      8  C   UNL     1      -3.338  -2.230  -0.765  0.00  0.00    +0.000 A 
ATOM      9  C   UNL     1      -2.374  -1.468  -0.104  0.00  0.00    +0.000 A 
ENDBRANCH   2   4
BRANCH   2  10
ATOM     10  C   UNL     1       0.089   0.123   0.353  0.00  0.00    +0.000 C 
ATOM     11  O   UNL     1       0.645  -0.200  -0.729  0.00  0.00    +0.000 OA
ATOM     12  N   UNL     1       0.792  -0.121   1.563  0.00  0.00    +0.000 NA
BRANCH  12  13
ATOM     13  N   UNL     1       2.065  -0.701   1.610  0.00  0.00    +0.000 NA
ATOM     14  C   UNL     1       3.095  -0.139   1.117  0.00  0.00    +0.000 C 
ATOM     15  C   UNL     1       4.467  -0.675   1.124  0.00  0.00    +0.000 C 
ATOM     16  C   UNL     1       5.042  -0.190  -0.168  0.00  0.00    +0.000 C 
ATOM     17  C   UNL     1       4.142   0.913  -0.671  0.00  0.00    +0.000 C 
ATOM     18  C   UNL     1       3.135   1.167   0.437  0.00  0.00    +0.000 C 
ENDBRANCH  12  13
ENDBRANCH   2  10
TORSDOF 3
