REMARK  Name = 
REMARK  2 active torsions:
REMARK  status: ('A' for Active; 'I' for Inactive)
REMARK    1  A    between atoms: C_2  and  C_4
REMARK    2  A    between atoms: C_4  and  N_5
REMARK                            x       y       z     vdW  Elec       q    Type
REMARK                         _______ _______ _______ _____ _____    ______ ____
ROOT
ATOM      1  N   UNL     1       2.611  -0.062   0.500  0.00  0.00    +0.000 NA
ATOM      2  C   UNL     1       1.483  -0.887   0.324  0.00  0.00    +0.000 A 
ATOM      3  N   UNL     1       1.493  -2.211   0.237  0.00  0.00    +0.000 NA
ATOM      4  C   UNL     1       0.401  -2.978   0.070  0.00  0.00    +0.000 A 
ATOM      5  N   UNL     1      -0.793  -2.365  -0.017  0.00  0.00    +0.000 NA
ATOM      6  C   UNL     1      -0.893  -1.034   0.061  0.00  0.00    +0.000 A 
ATOM      7  C   UNL     1       0.239  -0.261   0.233  0.00  0.00    +0.000 A 
ATOM      8  N   UNL     1      -0.124   1.034   0.281  0.00  0.00    +0.000 NA
ATOM      9  C   UNL     1      -1.454   1.157   0.147  0.00  0.00    +0.000 A 
ATOM     10  C   UNL     1      -2.349   2.205   0.121  0.00  0.00    +0.000 A 
ATOM     11  C   UNL     1      -3.692   1.933  -0.040  0.00  0.00    +0.000 A 
ATOM     12  C   UNL     1      -4.159   0.649  -0.175  0.00  0.00    +0.000 A 
ATOM     13 CL   UNL     1      -5.885   0.343  -0.380  0.00  0.00    +0.000 Cl
ATOM     14  C   UNL     1      -3.282  -0.403  -0.152  0.00  0.00    +0.000 A 
ATOM     15  C   UNL     1      -1.942  -0.124   0.010  0.00  0.00    +0.000 A 
ENDROOT
BRANCH   1  16
ATOM     16  C   UNL     1       3.960  -0.528   0.613  0.00  0.00    +0.000 C 
BRANCH  16  18
ATOM     17  C   UNL     1       4.571   1.408   2.038  0.00  0.00    +0.000 C 
ATOM     18  C   UNL     1       4.901   0.622   0.789  0.00  0.00    +0.000 C 
ATOM     19  C   UNL     1       4.916   1.500  -0.431  0.00  0.00    +0.000 C 
ENDBRANCH  16  18
ENDBRANCH   1  16
TORSDOF 2
