REMARK  Name = 
REMARK  2 active torsions:
REMARK  status: ('A' for Active; 'I' for Inactive)
REMARK    1  A    between atoms: C_7  and  N_8
REMARK    2  A    between atoms: C_9  and  C_11
REMARK                            x       y       z     vdW  Elec       q    Type
REMARK                         _______ _______ _______ _____ _____    ______ ____
ROOT
ATOM      1  C   UNL     1       0.995   0.043   0.495  0.00  0.00    +0.000 A 
ATOM      2  C   UNL     1       1.198   0.171   1.845  0.00  0.00    +0.000 A 
ATOM      3  C   UNL     1       0.151   0.275   2.879  0.00  0.00    +0.000 C 
ATOM      4  O   UNL     1       2.478   0.189   2.099  0.00  0.00    +0.000 OA
ATOM      5  C   UNL     1       3.160   0.077   0.966  0.00  0.00    +0.000 A 
ATOM      6  C   UNL     1       4.510   0.043   0.678  0.00  0.00    +0.000 A 
ATOM      7  C   UNL     1       4.883  -0.085  -0.646  0.00  0.00    +0.000 A 
ATOM      8  C   UNL     1       3.967  -0.179  -1.669  0.00  0.00    +0.000 A 
ATOM      9  O   UNL     1       4.440  -0.304  -2.960  0.00  0.00    +0.000 OA
ATOM     10  C   UNL     1       2.615  -0.145  -1.389  0.00  0.00    +0.000 A 
ATOM     11  C   UNL     1       2.242  -0.018  -0.071  0.00  0.00    +0.000 A 
ENDROOT
BRANCH   1  13
ATOM     12  N   UNL     1      -1.530   0.056   0.513  0.00  0.00    +0.000 NA
ATOM     13  C   UNL     1      -0.309  -0.017  -0.192  0.00  0.00    +0.000 C 
ATOM     14  O   UNL     1      -0.366  -0.136  -1.441  0.00  0.00    +0.000 OA
BRANCH  12  21
ATOM     15  C   UNL     1      -3.679   0.232   2.240  0.00  0.00    +0.000 C 
ATOM     16  C   UNL     1      -3.901   0.093   0.777  0.00  0.00    +0.000 A 
ATOM     17  C   UNL     1      -5.202   0.053   0.296  0.00  0.00    +0.000 A 
ATOM     18  C   UNL     1      -5.444  -0.075  -1.057  0.00  0.00    +0.000 A 
ATOM     19  C   UNL     1      -4.347  -0.160  -1.889  0.00  0.00    +0.000 A 
ATOM     20  C   UNL     1      -3.052  -0.120  -1.413  0.00  0.00    +0.000 A 
ATOM     21  C   UNL     1      -2.809   0.008  -0.061  0.00  0.00    +0.000 A 
ENDBRANCH  12  21
ENDBRANCH   1  13
TORSDOF 2
