REMARK  Name = 
REMARK  3 active torsions:
REMARK  status: ('A' for Active; 'I' for Inactive)
REMARK    1  A    between atoms: O_2  and  C_3
REMARK    2  A    between atoms: C_3  and  C_5
REMARK    3  A    between atoms: C_14  and  C_15
REMARK                            x       y       z     vdW  Elec       q    Type
REMARK                         _______ _______ _______ _____ _____    ______ ____
ROOT
ATOM      1  C   UNL     1      -2.660   0.644   0.123  0.00  0.00    +0.000 A 
ATOM      2  N   UNL     1      -1.503   1.287   0.244  0.00  0.00    +0.000 NA
ATOM      3  C   UNL     1      -0.478   0.419   0.100  0.00  0.00    +0.000 A 
ATOM      4  C   UNL     1      -0.971  -0.832  -0.122  0.00  0.00    +0.000 A 
ATOM      5  C   UNL     1      -2.344  -0.701  -0.110  0.00  0.00    +0.000 A 
ATOM      6  C   UNL     1      -3.307  -1.799  -0.309  0.00  0.00    +0.000 C 
ATOM      7  C   UNL     1      -0.069  -1.960  -0.313  0.00  0.00    +0.000 C 
ATOM      8  O   UNL     1      -0.526  -3.094  -0.615  0.00  0.00    +0.000 OA
ATOM      9  C   UNL     1       1.403  -1.721  -0.138  0.00  0.00    +0.000 C 
ATOM     10  C   UNL     1       1.587  -0.354  -1.046  0.00  0.00    +0.000 C 
ATOM     11  C   UNL     1       0.991   0.623   0.147  0.00  0.00    +0.000 C 
ENDROOT
BRANCH  10  12
ATOM     12  C   UNL     1       3.133  -0.153  -0.637  0.00  0.00    +0.000 A 
ATOM     13  C   UNL     1       3.489  -0.217   0.643  0.00  0.00    +0.000 A 
ATOM     14  C   UNL     1       4.836  -0.036   0.934  0.00  0.00    +0.000 A 
ATOM     15  C   UNL     1       5.769   0.201  -0.055  0.00  0.00    +0.000 A 
ATOM     16  C   UNL     1       5.316   0.252  -1.360  0.00  0.00    +0.000 A 
ATOM     17  C   UNL     1       3.988   0.077  -1.696  0.00  0.00    +0.000 A 
ENDBRANCH  10  12
BRANCH   1  18
ATOM     18  C   UNL     1      -4.014   1.188   0.208  0.00  0.00    +0.000 C 
ATOM     19  O   UNL     1      -5.014   0.479   0.077  0.00  0.00    +0.000 OA
BRANCH  18  21
ATOM     20  C   UNL     1      -5.448   3.161   0.543  0.00  0.00    +0.000 C 
ATOM     21  O   UNL     1      -4.176   2.538   0.444  0.00  0.00    +0.000 OA
ENDBRANCH  18  21
ENDBRANCH   1  18
TORSDOF 3
