REMARK  Name = 
REMARK  5 active torsions:
REMARK  status: ('A' for Active; 'I' for Inactive)
REMARK    1  A    between atoms: C_2  and  N_3
REMARK    2  A    between atoms: C_2  and  C_12
REMARK    3  A    between atoms: N_3  and  N_4
REMARK    4  A    between atoms: C_5  and  O_7
REMARK    5  A    between atoms: O_7  and  C_8
REMARK                            x       y       z     vdW  Elec       q    Type
REMARK                         _______ _______ _______ _____ _____    ______ ____
ROOT
ATOM      1  C   UNL     1       0.324  -0.563   1.752  0.00  0.00    +0.000 C 
ATOM      2  C   UNL     1       0.827  -0.674   0.509  0.00  0.00    +0.000 C 
ENDROOT
BRANCH   2   3
ATOM      3  C   UNL     1       2.157  -0.120   0.261  0.00  0.00    +0.000 A 
ATOM      4  C   UNL     1       2.695   0.026  -0.992  0.00  0.00    +0.000 A 
ATOM      5  C   UNL     1       3.968   0.546  -1.183  0.00  0.00    +0.000 A 
ATOM      6  C   UNL     1       4.765   0.948  -0.116  0.00  0.00    +0.000 A 
ATOM      7 CL   UNL     1       6.371   1.597  -0.374  0.00  0.00    +0.000 Cl
ATOM      8  C   UNL     1       4.228   0.804   1.147  0.00  0.00    +0.000 A 
ATOM      9  C   UNL     1       2.965   0.287   1.333  0.00  0.00    +0.000 A 
ENDBRANCH   2   3
BRANCH   2  10
ATOM     10  N   UNL     1       0.070  -1.324  -0.521  0.00  0.00    +0.000 NA
BRANCH  10  11
ATOM     11  N   UNL     1      -1.269  -1.674  -0.209  0.00  0.00    +0.000 NA
ATOM     12  C   UNL     1      -2.311  -0.727  -0.276  0.00  0.00    +0.000 C 
ATOM     13  O   UNL     1      -1.995   0.436  -0.629  0.00  0.00    +0.000 OA
BRANCH  12  14
ATOM     14  O   UNL     1      -3.648  -1.042   0.032  0.00  0.00    +0.000 OA
BRANCH  14  15
ATOM     15  C   UNL     1      -4.565   0.061  -0.098  0.00  0.00    +0.000 C 
ATOM     16  C   UNL     1      -5.957  -0.292   0.291  0.00  0.00    +0.000 C 
ATOM     17  C   UNL     1      -4.572   0.446  -1.589  0.00  0.00    +0.000 C 
ATOM     18  C   UNL     1      -4.053   1.266   0.664  0.00  0.00    +0.000 C 
ENDBRANCH  14  15
ENDBRANCH  12  14
ENDBRANCH  10  11
ENDBRANCH   2  10
TORSDOF 5
