REMARK  Name = 
REMARK  3 active torsions:
REMARK  status: ('A' for Active; 'I' for Inactive)
REMARK    1  A    between atoms: C_2  and  C_3
REMARK    2  A    between atoms: C_6  and  C_7
REMARK    3  A    between atoms: C_7  and  C_9
REMARK                            x       y       z     vdW  Elec       q    Type
REMARK                         _______ _______ _______ _____ _____    ______ ____
ROOT
ATOM      1  C   UNL     1      -0.030  -1.511   0.257  0.00  0.00    +0.000 C 
ATOM      2  O   UNL     1      -0.124  -1.233  -1.280  0.00  0.00    +0.000 OA
ENDROOT
BRANCH   1   3
ATOM      3  C   UNL     1      -0.901  -0.201   0.633  0.00  0.00    +0.000 A 
ATOM      4  C   UNL     1      -0.505   0.619   1.607  0.00  0.00    +0.000 A 
ATOM      5  C   UNL     1      -1.260   1.715   1.912  0.00  0.00    +0.000 A 
ATOM      6  C   UNL     1      -2.423   1.969   1.214  0.00  0.00    +0.000 A 
ATOM      7  C   UNL     1      -2.818   1.111   0.208  0.00  0.00    +0.000 A 
ATOM      8  C   UNL     1      -3.971   1.335  -0.503  0.00  0.00    +0.000 A 
ATOM      9  C   UNL     1      -4.319   0.453  -1.489  0.00  0.00    +0.000 A 
ATOM     10  C   UNL     1      -3.552  -0.665  -1.801  0.00  0.00    +0.000 A 
ATOM     11  C   UNL     1      -2.394  -0.880  -1.078  0.00  0.00    +0.000 A 
ATOM     12  C   UNL     1      -2.046  -0.001  -0.095  0.00  0.00    +0.000 A 
ENDBRANCH   1   3
BRANCH   1  16
ATOM     13  C   UNL     1       3.462  -0.279   0.182  0.00  0.00    +0.000 A 
ATOM     14  N   UNL     1       3.017   0.244   1.333  0.00  0.00    +0.000 NA
ATOM     15  C   UNL     1       1.711  -0.131   1.500  0.00  0.00    +0.000 A 
ATOM     16  C   UNL     1       1.432  -0.882   0.409  0.00  0.00    +0.000 A 
ATOM     17  N   UNL     1       2.449  -0.966  -0.352  0.00  0.00    +0.000 N 
ATOM     18  C   UNL     1       2.517  -1.686  -1.605  0.00  0.00    +0.000 C 
BRANCH  13  20
ATOM     19  C   UNL     1       4.900   1.109  -1.301  0.00  0.00    +0.000 C 
ATOM     20  C   UNL     1       4.854  -0.121  -0.402  0.00  0.00    +0.000 C 
ENDBRANCH  13  20
ENDBRANCH   1  16
TORSDOF 3
