REMARK  Name = 
REMARK  3 active torsions:
REMARK  status: ('A' for Active; 'I' for Inactive)
REMARK    1  A    between atoms: O_2  and  C_3
REMARK    2  A    between atoms: C_3  and  C_5
REMARK    3  A    between atoms: C_16  and  C_17
REMARK                            x       y       z     vdW  Elec       q    Type
REMARK                         _______ _______ _______ _____ _____    ______ ____
ROOT
ATOM      1  C   UNL     1      -0.341   1.314   0.387  0.00  0.00    +0.000 C 
ATOM      2  C   UNL     1      -0.707   1.190   1.623  0.00  0.00    +0.000 C 
ATOM      3  N   UNL     1      -0.494   2.338   2.500  0.00  0.00    +0.000 NA
ATOM      4  O   UNL     1      -1.284   0.048   2.161  0.00  0.00    +0.000 OA
ATOM      5  C   UNL     1      -1.457  -0.997   1.280  0.00  0.00    +0.000 C 
ATOM      6  C   UNL     1      -1.137  -1.002   0.030  0.00  0.00    +0.000 C 
ATOM      7  C   UNL     1      -1.378  -2.195  -0.812  0.00  0.00    +0.000 C 
ATOM      8  O   UNL     1      -0.547  -2.353  -1.692  0.00  0.00    +0.000 OA
ATOM      9  C   UNL     1      -2.522  -3.049  -0.551  0.00  0.00    +0.000 C 
ATOM     10  C   UNL     1      -3.158  -2.696   0.802  0.00  0.00    +0.000 C 
ATOM     11  C   UNL     1      -2.085  -2.293   1.792  0.00  0.00    +0.000 C 
ATOM     12  C   UNL     1      -0.502   0.193  -0.649  0.00  0.00    +0.000 C 
ENDROOT
BRANCH  12  13
ATOM     13  C   UNL     1       0.942  -0.260  -0.999  0.00  0.00    +0.000 A 
ATOM     14  C   UNL     1       1.599  -0.022  -2.132  0.00  0.00    +0.000 A 
ATOM     15  C   UNL     1       2.910  -0.476  -2.356  0.00  0.00    +0.000 A 
ATOM     16  C   UNL     1       3.494  -1.183  -1.346  0.00  0.00    +0.000 A 
ATOM     17  C   UNL     1       2.838  -1.440  -0.172  0.00  0.00    +0.000 A 
ATOM     18  C   UNL     1       1.542  -0.957  -0.026  0.00  0.00    +0.000 A 
ENDBRANCH  12  13
BRANCH   1  19
ATOM     19  C   UNL     1       0.255   2.584  -0.035  0.00  0.00    +0.000 C 
ATOM     20  O   UNL     1       0.639   2.787  -1.223  0.00  0.00    +0.000 OA
BRANCH  19  22
ATOM     21  C   UNL     1       0.977   4.862   0.551  0.00  0.00    +0.000 C 
ATOM     22  O   UNL     1       0.413   3.603   0.867  0.00  0.00    +0.000 OA
ENDBRANCH  19  22
ENDBRANCH   1  19
TORSDOF 3
