REMARK  Name = 
REMARK  3 active torsions:
REMARK  status: ('A' for Active; 'I' for Inactive)
REMARK    1  A    between atoms: C_2  and  C_12
REMARK    2  A    between atoms: N_3  and  N_4
REMARK    3  A    between atoms: N_4  and  C_5
REMARK                            x       y       z     vdW  Elec       q    Type
REMARK                         _______ _______ _______ _____ _____    ______ ____
ROOT
ATOM      1  O   UNL     1       1.336  -1.626  -1.385  0.00  0.00    +0.000 OA
ATOM      2  C   UNL     1       1.319  -0.711  -0.513  0.00  0.00    +0.000 C 
ATOM      3  N   UNL     1       0.170  -0.737   0.343  0.00  0.00    +0.000 NA
ENDROOT
BRANCH   2   4
ATOM      4  C   UNL     1       2.406   0.228  -0.491  0.00  0.00    +0.000 A 
ATOM      5  C   UNL     1       2.519   1.288  -1.315  0.00  0.00    +0.000 A 
ATOM      6  C   UNL     1       3.545   2.183  -1.202  0.00  0.00    +0.000 A 
ATOM      7  C   UNL     1       4.479   1.982  -0.219  0.00  0.00    +0.000 A 
ATOM      8  C   UNL     1       4.399   0.895   0.662  0.00  0.00    +0.000 A 
ATOM      9  C   UNL     1       3.355   0.012   0.526  0.00  0.00    +0.000 A 
ATOM     10 BR   UNL     1       3.236  -1.550   1.647  0.00  0.00    +0.000 Br
ENDBRANCH   2   4
BRANCH   3  11
ATOM     11  N   UNL     1      -0.830  -1.673   0.252  0.00  0.00    +0.000 NA
BRANCH  11  12
ATOM     12  C   UNL     1      -2.141  -1.647  -0.019  0.00  0.00    +0.000 C 
ATOM     13  C   UNL     1      -3.140  -0.872   0.266  0.00  0.00    +0.000 C 
ATOM     14  C   UNL     1      -2.877   0.320   1.100  0.00  0.00    +0.000 C 
ATOM     15  C   UNL     1      -3.397   1.498   0.357  0.00  0.00    +0.000 C 
ATOM     16  C   UNL     1      -4.526   1.386  -0.323  0.00  0.00    +0.000 C 
ATOM     17  C   UNL     1      -5.316   0.137  -0.385  0.00  0.00    +0.000 C 
ATOM     18  C   UNL     1      -4.536  -1.115  -0.162  0.00  0.00    +0.000 C 
ENDBRANCH  11  12
ENDBRANCH   3  11
TORSDOF 3
