REMARK  Name = 
REMARK  2 active torsions:
REMARK  status: ('A' for Active; 'I' for Inactive)
REMARK    1  A    between atoms: C_6  and  C_7
REMARK    2  A    between atoms: C_7  and  C_9
REMARK                            x       y       z     vdW  Elec       q    Type
REMARK                         _______ _______ _______ _____ _____    ______ ____
ROOT
ATOM      1  C   UNL     1      -4.474   1.903   0.747  0.00  0.00    +0.000 C 
ATOM      2  C   UNL     1      -3.464   0.849   0.554  0.00  0.00    +0.000 A 
ATOM      3  C   UNL     1      -2.241   1.183  -0.037  0.00  0.00    +0.000 A 
ATOM      4  C   UNL     1      -1.284   0.206  -0.224  0.00  0.00    +0.000 A 
ATOM      5  N   UNL     1      -0.031   0.273  -0.768  0.00  0.00    +0.000 NA
ATOM      6  C   UNL     1       0.431  -0.927  -0.697  0.00  0.00    +0.000 A 
ATOM      7  N   UNL     1      -0.398  -1.819  -0.148  0.00  0.00    +0.000 NA
ATOM      8  C   UNL     1      -1.500  -1.109   0.160  0.00  0.00    +0.000 A 
ATOM      9  C   UNL     1      -2.725  -1.388   0.739  0.00  0.00    +0.000 A 
ATOM     10  C   UNL     1      -3.697  -0.450   0.941  0.00  0.00    +0.000 A 
ATOM     11  C   UNL     1      -5.008  -0.815   1.576  0.00  0.00    +0.000 C 
ENDROOT
BRANCH   6  12
ATOM     12  C   UNL     1       1.906  -1.412  -1.208  0.00  0.00    +0.000 C 
ATOM     13  O   UNL     1       1.800  -0.662  -2.562  0.00  0.00    +0.000 OA
BRANCH  12  14
ATOM     14  C   UNL     1       2.756  -0.253  -0.469  0.00  0.00    +0.000 A 
ATOM     15  C   UNL     1       2.388   0.084   0.780  0.00  0.00    +0.000 A 
ATOM     16  C   UNL     1       3.094   1.068   1.449  0.00  0.00    +0.000 A 
ATOM     17  C   UNL     1       4.154   1.665   0.799  0.00  0.00    +0.000 A 
ATOM     18  C   UNL     1       4.518   1.299  -0.501  0.00  0.00    +0.000 A 
ATOM     19  C   UNL     1       3.776   0.304  -1.130  0.00  0.00    +0.000 A 
ENDBRANCH  12  14
ENDBRANCH   6  12
TORSDOF 2
