REMARK  Name = 
REMARK  4 active torsions:
REMARK  status: ('A' for Active; 'I' for Inactive)
REMARK    1  A    between atoms: C_2  and  O_3
REMARK    2  A    between atoms: O_3  and  C_4
REMARK    3  A    between atoms: C_4  and  C_6
REMARK    4  A    between atoms: C_11  and  N_12
REMARK                            x       y       z     vdW  Elec       q    Type
REMARK                         _______ _______ _______ _____ _____    ______ ____
ROOT
ATOM      1  C   UNL     1      -1.881  -0.536   0.737  0.00  0.00    +0.000 C 
ATOM      2  N   UNL     1      -0.855   0.540   1.143  0.00  0.00    +0.000 NA
ATOM      3  C   UNL     1       0.493   0.288   0.859  0.00  0.00    +0.000 A 
ATOM      4  C   UNL     1       1.432   1.115   1.430  0.00  0.00    +0.000 A 
ATOM      5  C   UNL     1       2.800   0.921   1.187  0.00  0.00    +0.000 A 
ATOM      6  C   UNL     1       3.196  -0.109   0.369  0.00  0.00    +0.000 A 
ATOM      7  C   UNL     1       2.215  -0.904  -0.175  0.00  0.00    +0.000 A 
ATOM      8  C   UNL     1       0.849  -0.689   0.083  0.00  0.00    +0.000 A 
ATOM      9  C   UNL     1      -0.121  -1.716  -0.636  0.00  0.00    +0.000 C 
ATOM     10  C   UNL     1       0.382  -1.394  -2.107  0.00  0.00    +0.000 C 
ATOM     11  C   UNL     1       0.079  -0.170  -2.414  0.00  0.00    +0.000 C 
ATOM     12  C   UNL     1      -0.648   0.525  -1.272  0.00  0.00    +0.000 C 
ATOM     13  C   UNL     1      -1.488  -0.787  -0.879  0.00  0.00    +0.000 C 
ENDROOT
BRANCH   6  14
ATOM     14  N   UNL     1       4.580  -0.316   0.115  0.00  0.00    +0.000 N 
ATOM     15  O   UNL     1       5.044  -1.215  -0.607  0.00  0.00    +0.000 OA
ATOM     16  O   UNL     1       5.528   0.499   0.677  0.00  0.00    +0.000 OA
ENDBRANCH   6  14
BRANCH   1  17
ATOM     17  C   UNL     1      -3.078   0.446   0.414  0.00  0.00    +0.000 C 
ATOM     18  O   UNL     1      -2.987   1.654   0.526  0.00  0.00    +0.000 OA
BRANCH  17  19
ATOM     19  O   UNL     1      -4.261  -0.117  -0.008  0.00  0.00    +0.000 OA
BRANCH  19  21
ATOM     20  C   UNL     1      -5.848   1.366   0.900  0.00  0.00    +0.000 C 
ATOM     21  C   UNL     1      -5.431   0.599  -0.340  0.00  0.00    +0.000 C 
ENDBRANCH  19  21
ENDBRANCH  17  19
ENDBRANCH   1  17
TORSDOF 4
