REMARK  Name = 
REMARK  3 active torsions:
REMARK  status: ('A' for Active; 'I' for Inactive)
REMARK    1  A    between atoms: C_4  and  N_5
REMARK    2  A    between atoms: C_8  and  C_9
REMARK    3  A    between atoms: C_9  and  N_10
REMARK                            x       y       z     vdW  Elec       q    Type
REMARK                         _______ _______ _______ _____ _____    ______ ____
ROOT
ATOM      1  N   UNL     1      -0.606   0.771   0.258  0.00  0.00    +0.000 N 
ATOM      2  C   UNL     1       0.037   1.928  -0.016  0.00  0.00    +0.000 A 
ATOM      3  N   UNL     1       1.299   1.794   0.383  0.00  0.00    +0.000 NA
ATOM      4  C   UNL     1       1.513   0.574   0.917  0.00  0.00    +0.000 A 
ATOM      5  C   UNL     1       0.275  -0.061   0.824  0.00  0.00    +0.000 A 
ENDROOT
BRANCH   1   9
ATOM      6  C   UNL     1      -4.564  -2.156   0.576  0.00  0.00    +0.000 C 
ATOM      7  C   UNL     1      -3.892  -0.908   0.138  0.00  0.00    +0.000 A 
ATOM      8  C   UNL     1      -2.548  -0.667   0.415  0.00  0.00    +0.000 A 
ATOM      9  C   UNL     1      -1.990   0.513  -0.023  0.00  0.00    +0.000 A 
ATOM     10  C   UNL     1      -2.736   1.432  -0.715  0.00  0.00    +0.000 A 
ATOM     11  C   UNL     1      -4.085   1.218  -1.007  0.00  0.00    +0.000 A 
ATOM     12  C   UNL     1      -4.621   0.025  -0.556  0.00  0.00    +0.000 A 
ATOM     13 CL   UNL     1      -6.322  -0.272  -0.911  0.00  0.00    +0.000 Cl
ENDBRANCH   1   9
BRANCH   4  14
ATOM     14  C   UNL     1       2.779   0.057   1.467  0.00  0.00    +0.000 C 
BRANCH  14  15
ATOM     15  N   UNL     1       3.538  -0.595   0.417  0.00  0.00    +0.000 N 
ATOM     16  C   UNL     1       3.433  -1.902   0.111  0.00  0.00    +0.000 A 
ATOM     17  C   UNL     1       4.311  -2.140  -0.936  0.00  0.00    +0.000 A 
ATOM     18  N   UNL     1       4.896  -0.975  -1.207  0.00  0.00    +0.000 NA
ATOM     19  C   UNL     1       4.439  -0.006  -0.390  0.00  0.00    +0.000 A 
ATOM     20  N   UNL     1       4.846   1.369  -0.397  0.00  0.00    +0.000 NA
ENDBRANCH  14  15
ENDBRANCH   4  14
TORSDOF 3
