REMARK  Name = 
REMARK  3 active torsions:
REMARK  status: ('A' for Active; 'I' for Inactive)
REMARK    1  A    between atoms: C_8  and  C_9
REMARK    2  A    between atoms: C_16  and  N_17
REMARK    3  A    between atoms: N_17  and  C_18
REMARK                            x       y       z     vdW  Elec       q    Type
REMARK                         _______ _______ _______ _____ _____    ______ ____
ROOT
ATOM      1  C   UNL     1      -3.699   0.096   0.075  0.00  0.00    +0.000 C 
ATOM      2  C   UNL     1      -2.967  -1.196  -0.041  0.00  0.00    +0.000 A 
ATOM      3  C   UNL     1      -3.676  -2.385  -0.128  0.00  0.00    +0.000 A 
ATOM      4  C   UNL     1      -2.991  -3.574  -0.234  0.00  0.00    +0.000 A 
ATOM      5  C   UNL     1      -1.617  -3.626  -0.256  0.00  0.00    +0.000 A 
ATOM      6  C   UNL     1      -0.945  -2.397  -0.165  0.00  0.00    +0.000 A 
ATOM      7  N   UNL     1       0.380  -2.153  -0.162  0.00  0.00    +0.000 NA
ATOM      8  C   UNL     1       0.541  -0.837  -0.057  0.00  0.00    +0.000 A 
ATOM      9  C   UNL     1      -0.720  -0.202   0.011  0.00  0.00    +0.000 A 
ATOM     10  N   UNL     1      -1.616  -1.245  -0.063  0.00  0.00    +0.000 N 
ENDROOT
BRANCH   8  11
ATOM     11  C   UNL     1       1.813  -0.128  -0.016  0.00  0.00    +0.000 A 
ATOM     12  C   UNL     1       2.823  -0.451  -0.908  0.00  0.00    +0.000 A 
ATOM     13  C   UNL     1       4.040   0.198  -0.896  0.00  0.00    +0.000 A 
ATOM     14  C   UNL     1       4.306   1.201   0.010  0.00  0.00    +0.000 A 
ATOM     15  O   UNL     1       5.539   1.868   0.033  0.00  0.00    +0.000 OA
ATOM     16  C   UNL     1       3.309   1.532   0.904  0.00  0.00    +0.000 A 
ATOM     17  C   UNL     1       2.099   0.878   0.882  0.00  0.00    +0.000 A 
ENDBRANCH   8  11
BRANCH   9  18
ATOM     18  N   UNL     1      -0.982   1.084   0.118  0.00  0.00    +0.000 NA
BRANCH  18  19
ATOM     19  C   UNL     1      -1.307   2.363   0.225  0.00  0.00    +0.000 C 
ATOM     20  C   UNL     1      -2.142   2.773   1.448  0.00  0.00    +0.000 C 
ATOM     21  C   UNL     1      -2.067   2.834  -1.043  0.00  0.00    +0.000 C 
ATOM     22  C   UNL     1      -0.120   3.367   0.264  0.00  0.00    +0.000 C 
ENDBRANCH  18  19
ENDBRANCH   9  18
TORSDOF 3
