REMARK  Name = 
REMARK  3 active torsions:
REMARK  status: ('A' for Active; 'I' for Inactive)
REMARK    1  A    between atoms: C_2  and  C_12
REMARK    2  A    between atoms: N_3  and  N_4
REMARK    3  A    between atoms: N_4  and  C_5
REMARK                            x       y       z     vdW  Elec       q    Type
REMARK                         _______ _______ _______ _____ _____    ______ ____
ROOT
ATOM      1  O   UNL     1       1.345  -1.839   2.060  0.00  0.00    +0.000 OA
ATOM      2  C   UNL     1       1.075  -1.157   1.042  0.00  0.00    +0.000 C 
ATOM      3  N   UNL     1      -0.227  -1.249   0.495  0.00  0.00    +0.000 NA
ENDROOT
BRANCH   2   4
ATOM      4  C   UNL     1       2.037  -0.277   0.399  0.00  0.00    +0.000 A 
ATOM      5  C   UNL     1       1.699   0.451  -0.720  0.00  0.00    +0.000 A 
ATOM      6  C   UNL     1       2.577   1.297  -1.364  0.00  0.00    +0.000 A 
ATOM      7  C   UNL     1       3.871   1.444  -0.885  0.00  0.00    +0.000 A 
ATOM      8 BR   UNL     1       5.129   2.604  -1.737  0.00  0.00    +0.000 Br
ATOM      9  C   UNL     1       4.210   0.715   0.235  0.00  0.00    +0.000 A 
ATOM     10  C   UNL     1       3.333  -0.129   0.876  0.00  0.00    +0.000 A 
ENDBRANCH   2   4
BRANCH   3  11
ATOM     11  N   UNL     1      -1.171  -2.071   1.075  0.00  0.00    +0.000 NA
BRANCH  11  12
ATOM     12  C   UNL     1      -2.505  -2.021   0.587  0.00  0.00    +0.000 C 
ATOM     13  C   UNL     1      -2.964  -0.878   0.152  0.00  0.00    +0.000 C 
ATOM     14  C   UNL     1      -2.157   0.348   0.150  0.00  0.00    +0.000 C 
ATOM     15  C   UNL     1      -2.742   1.422  -0.704  0.00  0.00    +0.000 C 
ATOM     16  C   UNL     1      -4.211   1.626  -0.579  0.00  0.00    +0.000 C 
ATOM     17  C   UNL     1      -4.947   0.516   0.132  0.00  0.00    +0.000 C 
ATOM     18  C   UNL     1      -4.351  -0.802  -0.362  0.00  0.00    +0.000 C 
ENDBRANCH  11  12
ENDBRANCH   3  11
TORSDOF 3
