REMARK  Name = 
REMARK  3 active torsions:
REMARK  status: ('A' for Active; 'I' for Inactive)
REMARK    1  A    between atoms: S_2  and  C_3
REMARK    2  A    between atoms: C_7  and  N_8
REMARK    3  A    between atoms: C_12  and  C_13
REMARK                            x       y       z     vdW  Elec       q    Type
REMARK                         _______ _______ _______ _____ _____    ______ ____
ROOT
ATOM      1  N   UNL     1      -0.422  -0.036  -0.536  0.00  0.00    +0.000 N 
ATOM      2  C   UNL     1      -0.681   0.877  -1.496  0.00  0.00    +0.000 A 
ATOM      3  C   UNL     1       0.303   1.405  -2.479  0.00  0.00    +0.000 C 
ATOM      4  C   UNL     1      -2.034   1.216  -1.379  0.00  0.00    +0.000 A 
ATOM      5  C   UNL     1      -2.571   0.492  -0.338  0.00  0.00    +0.000 A 
ATOM      6  C   UNL     1      -1.539  -0.272   0.158  0.00  0.00    +0.000 A 
ATOM      7  C   UNL     1      -1.656  -1.217   1.297  0.00  0.00    +0.000 C 
ENDROOT
BRANCH   1  12
ATOM      8  C   UNL     1       3.265  -0.386  -0.023  0.00  0.00    +0.000 A 
ATOM      9  C   UNL     1       3.411  -1.751   0.078  0.00  0.00    +0.000 A 
ATOM     10  C   UNL     1       2.284  -2.539  -0.027  0.00  0.00    +0.000 A 
ATOM     11  C   UNL     1       1.028  -1.999  -0.226  0.00  0.00    +0.000 A 
ATOM     12  C   UNL     1       0.868  -0.636  -0.328  0.00  0.00    +0.000 A 
ATOM     13  C   UNL     1       2.006   0.140  -0.222  0.00  0.00    +0.000 A 
BRANCH   8  15
ATOM     14  C   UNL     1       4.246   2.378  -0.055  0.00  0.00    +0.000 C 
ATOM     15  S   UNL     1       4.725   0.635   0.112  0.00  0.00    +0.000 S 
ENDBRANCH   8  15
ENDBRANCH   1  12
BRANCH   5  16
ATOM     16  C   UNL     1      -3.963   0.524   0.151  0.00  0.00    +0.000 C 
ATOM     17  N   UNL     1      -4.936   1.358  -0.448  0.00  0.00    +0.000 NA
ATOM     18  O   UNL     1      -4.333  -0.188   1.115  0.00  0.00    +0.000 OA
ENDBRANCH   5  16
TORSDOF 3
