REMARK  Name = 
REMARK  4 active torsions:
REMARK  status: ('A' for Active; 'I' for Inactive)
REMARK    1  A    between atoms: C_7  and  C_8
REMARK    2  A    between atoms: C_8  and  O_9
REMARK    3  A    between atoms: O_9  and  C_10
REMARK    4  A    between atoms: C_13  and  C_14
REMARK                            x       y       z     vdW  Elec       q    Type
REMARK                         _______ _______ _______ _____ _____    ______ ____
ROOT
ATOM      1  O   UNL     1      -0.630  -0.533   0.225  0.00  0.00    +0.000 OA
ENDROOT
BRANCH   1   2
ATOM      2  C   UNL     1       0.647  -0.188   0.611  0.00  0.00    +0.000 A 
ATOM      3  C   UNL     1       1.280   0.852  -0.019  0.00  0.00    +0.000 A 
ATOM      4  C   UNL     1       2.537   1.238   0.317  0.00  0.00    +0.000 A 
ATOM      5  C   UNL     1       3.202   0.566   1.321  0.00  0.00    +0.000 A 
ATOM      6  C   UNL     1       2.576  -0.480   1.960  0.00  0.00    +0.000 A 
ATOM      7  C   UNL     1       1.307  -0.858   1.610  0.00  0.00    +0.000 A 
BRANCH   5   8
ATOM      8  C   UNL     1       4.545   1.003   1.656  0.00  0.00    +0.000 C 
ATOM      9  N   UNL     1       5.148   2.082   0.974  0.00  0.00    +0.000 NA
ATOM     10  O   UNL     1       5.185   0.423   2.561  0.00  0.00    +0.000 OA
ENDBRANCH   5   8
ENDBRANCH   1   2
BRANCH   1  11
ATOM     11  C   UNL     1      -1.259   0.186  -0.804  0.00  0.00    +0.000 C 
BRANCH  11  18
ATOM     12  C   UNL     1      -2.127  -2.020  -2.830  0.00  0.00    +0.000 C 
ATOM     13  N   UNL     1      -2.991  -1.262  -1.966  0.00  0.00    +0.000 N 
ATOM     14  C   UNL     1      -4.337  -1.425  -1.931  0.00  0.00    +0.000 A 
ATOM     15  C   UNL     1      -4.814  -0.546  -1.005  0.00  0.00    +0.000 A 
ATOM     16  N   UNL     1      -3.747   0.125  -0.504  0.00  0.00    +0.000 N 
ATOM     17  C   UNL     1      -3.897   1.149   0.515  0.00  0.00    +0.000 C 
ATOM     18  C   UNL     1      -2.624  -0.312  -1.093  0.00  0.00    +0.000 A 
ENDBRANCH  11  18
ENDBRANCH   1  11
TORSDOF 4
