REMARK  Name = 
REMARK  4 active torsions:
REMARK  status: ('A' for Active; 'I' for Inactive)
REMARK    1  A    between atoms: C_2  and  C_3
REMARK    2  A    between atoms: C_3  and  N_4
REMARK    3  A    between atoms: N_4  and  C_5
REMARK    4  A    between atoms: C_5  and  C_6
REMARK                            x       y       z     vdW  Elec       q    Type
REMARK                         _______ _______ _______ _____ _____    ______ ____
ROOT
ATOM      1  N   UNL     1      -2.273  -0.541   0.397  0.00  0.00    +0.000 N 
ATOM      2  C   UNL     1      -0.926  -0.084   0.393  0.00  0.00    +0.000 A 
ATOM      3  N   UNL     1      -0.615   1.227   0.492  0.00  0.00    +0.000 NA
ATOM      4  C   UNL     1       0.694   1.600   0.481  0.00  0.00    +0.000 A 
ATOM      5  N   UNL     1       1.043   2.976   0.584  0.00  0.00    +0.000 NA
ATOM      6  C   UNL     1       1.694   0.666   0.371  0.00  0.00    +0.000 A 
ATOM      7  C   UNL     1       3.038   0.976   0.354  0.00  0.00    +0.000 A 
ATOM      8  C   UNL     1       4.011  -0.016   0.237  0.00  0.00    +0.000 A 
ATOM      9 CL   UNL     1       5.723   0.370   0.209  0.00  0.00    +0.000 Cl
ATOM     10  C   UNL     1       3.623  -1.337   0.138  0.00  0.00    +0.000 A 
ATOM     11  C   UNL     1       2.285  -1.689   0.151  0.00  0.00    +0.000 A 
ATOM     12  C   UNL     1       1.353  -0.675   0.268  0.00  0.00    +0.000 A 
ATOM     13  N   UNL     1       0.058  -0.991   0.284  0.00  0.00    +0.000 NA
ENDROOT
BRANCH   1  14
ATOM     14  C   UNL     1      -2.571  -1.958   0.303  0.00  0.00    +0.000 C 
BRANCH  14  16
ATOM     15  C   UNL     1      -4.417  -2.882  -1.072  0.00  0.00    +0.000 C 
ATOM     16  C   UNL     1      -3.219  -2.323  -0.967  0.00  0.00    +0.000 C 
ENDBRANCH  14  16
ENDBRANCH   1  14
BRANCH   1  17
ATOM     17  C   UNL     1      -3.404   0.362   0.495  0.00  0.00    +0.000 C 
BRANCH  17  18
ATOM     18  C   UNL     1      -2.857   1.746   0.575  0.00  0.00    +0.000 C 
ATOM     19  C   UNL     1      -3.238   2.573  -0.406  0.00  0.00    +0.000 C 
ENDBRANCH  17  18
ENDBRANCH   1  17
TORSDOF 4
