REMARK  Name = 
REMARK  4 active torsions:
REMARK  status: ('A' for Active; 'I' for Inactive)
REMARK    1  A    between atoms: C_5  and  C_6
REMARK    2  A    between atoms: C_6  and  C_7
REMARK    3  A    between atoms: N_9  and  C_10
REMARK    4  A    between atoms: C_12  and  N_13
REMARK                            x       y       z     vdW  Elec       q    Type
REMARK                         _______ _______ _______ _____ _____    ______ ____
ROOT
ATOM      1  C   UNL     1       0.489  -0.920  -0.474  0.00  0.00    +0.000 C 
ATOM      2  O   UNL     1      -0.006  -1.438   0.559  0.00  0.00    +0.000 OA
ATOM      3  N   UNL     1      -0.269   0.060  -1.147  0.00  0.00    +0.000 NA
ENDROOT
BRANCH   3   4
ATOM      4  C   UNL     1      -1.565   0.507  -0.751  0.00  0.00    +0.000 A 
ATOM      5  C   UNL     1      -2.289  -0.029   0.275  0.00  0.00    +0.000 A 
ATOM      6  C   UNL     1      -3.556   0.462   0.577  0.00  0.00    +0.000 A 
ATOM      7  C   UNL     1      -4.066   1.506  -0.184  0.00  0.00    +0.000 A 
ATOM      8  C   UNL     1      -3.350   2.071  -1.235  0.00  0.00    +0.000 A 
ATOM      9  C   UNL     1      -2.099   1.557  -1.504  0.00  0.00    +0.000 A 
ATOM     10  C   UNL     1      -1.298   2.140  -2.618  0.00  0.00    +0.000 C 
BRANCH   6  11
ATOM     11  N   UNL     1      -4.340  -0.070   1.626  0.00  0.00    +0.000 N 
ATOM     12  O   UNL     1      -3.908  -1.006   2.314  0.00  0.00    +0.000 OA
ATOM     13  O   UNL     1      -5.573   0.437   1.891  0.00  0.00    +0.000 OA
ENDBRANCH   6  11
ENDBRANCH   3   4
BRANCH   1  14
ATOM     14  C   UNL     1       1.822  -1.380  -0.890  0.00  0.00    +0.000 C 
BRANCH  14  19
ATOM     15  C   UNL     1       6.155   0.087   2.573  0.00  0.00    +0.000 C 
ATOM     16  C   UNL     1       5.021  -0.296   1.671  0.00  0.00    +0.000 A 
ATOM     17  C   UNL     1       4.692   0.486   0.617  0.00  0.00    +0.000 A 
ATOM     18  C   UNL     1       3.634   0.124  -0.230  0.00  0.00    +0.000 A 
ATOM     19  C   UNL     1       2.922  -1.032   0.012  0.00  0.00    +0.000 A 
ATOM     20  C   UNL     1       3.264  -1.809   1.078  0.00  0.00    +0.000 A 
ATOM     21  C   UNL     1       4.318  -1.456   1.925  0.00  0.00    +0.000 A 
ENDBRANCH  14  19
ENDBRANCH   1  14
TORSDOF 4
