REMARK  Name = 
REMARK  5 active torsions:
REMARK  status: ('A' for Active; 'I' for Inactive)
REMARK    1  A    between atoms: C_2  and  C_3
REMARK    2  A    between atoms: N_5  and  C_6
REMARK    3  A    between atoms: C_6  and  C_7
REMARK    4  A    between atoms: C_18  and  C_19
REMARK    5  A    between atoms: C_21  and  C_22
REMARK                            x       y       z     vdW  Elec       q    Type
REMARK                         _______ _______ _______ _____ _____    ______ ____
ROOT
ATOM      1  O   UNL     1      -0.552  -0.711   1.007  0.00  0.00    +0.000 OA
ATOM      2  C   UNL     1      -1.067   0.354   0.522  0.00  0.00    +0.000 C 
ATOM      3  N   UNL     1      -0.437   1.565   0.382  0.00  0.00    +0.000 N 
ATOM      4  C   UNL     1      -1.064   2.744  -0.175  0.00  0.00    +0.000 C 
ATOM      5  C   UNL     1      -0.122   3.048  -1.327  0.00  0.00    +0.000 C 
ATOM      6  C   UNL     1       1.219   2.470  -0.953  0.00  0.00    +0.000 C 
ATOM      7  C   UNL     1       0.898   2.185   0.653  0.00  0.00    +0.000 C 
ENDROOT
BRANCH   2   8
ATOM      8  C   UNL     1      -2.470   0.146   0.106  0.00  0.00    +0.000 A 
ATOM      9  C   UNL     1      -3.211  -0.995   0.188  0.00  0.00    +0.000 A 
ATOM     10  N   UNL     1      -4.463  -0.758  -0.305  0.00  0.00    +0.000 N 
ATOM     11  N   UNL     1      -4.476   0.512  -0.681  0.00  0.00    +0.000 NA
ATOM     12  N   UNL     1      -3.283   1.067  -0.438  0.00  0.00    +0.000 NA
BRANCH  10  13
ATOM     13  C   UNL     1      -5.567  -1.655  -0.418  0.00  0.00    +0.000 C 
BRANCH  13  14
ATOM     14  C   UNL     1      -6.399  -1.503   1.003  0.00  0.00    +0.000 C 
ATOM     15  C   UNL     1      -6.684   0.116   0.766  0.00  0.00    +0.000 C 
ATOM     16  C   UNL     1      -7.327   0.077  -0.564  0.00  0.00    +0.000 C 
ATOM     17  O   UNL     1      -7.840  -1.158  -0.798  0.00  0.00    +0.000 OA
ATOM     18  C   UNL     1      -7.841  -1.908   0.329  0.00  0.00    +0.000 C 
ENDBRANCH  13  14
ENDBRANCH  10  13
ENDBRANCH   2   8
BRANCH   7  19
ATOM     19  C   UNL     1       1.842   0.967   0.951  0.00  0.00    +0.000 A 
ATOM     20  N   UNL     1       3.043   0.986   0.352  0.00  0.00    +0.000 NA
ATOM     21  C   UNL     1       3.743  -0.121   0.704  0.00  0.00    +0.000 A 
ATOM     22  N   UNL     1       2.894  -0.758   1.518  0.00  0.00    +0.000 NA
ATOM     23  O   UNL     1       1.796  -0.073   1.625  0.00  0.00    +0.000 OA
BRANCH  21  24
ATOM     24  C   UNL     1       5.097  -0.503   0.283  0.00  0.00    +0.000 A 
ATOM     25  C   UNL     1       5.841   0.280  -0.571  0.00  0.00    +0.000 A 
ATOM     26  C   UNL     1       7.100  -0.027  -0.994  0.00  0.00    +0.000 A 
ATOM     27  C   UNL     1       7.691  -1.179  -0.560  0.00  0.00    +0.000 A 
ATOM     28  F   UNL     1       8.957  -1.502  -0.976  0.00  0.00    +0.000 F 
ATOM     29  C   UNL     1       6.988  -2.000   0.297  0.00  0.00    +0.000 A 
ATOM     30  C   UNL     1       5.695  -1.667   0.720  0.00  0.00    +0.000 A 
ENDBRANCH  21  24
ENDBRANCH   7  19
TORSDOF 5
