REMARK  Name = 
REMARK  4 active torsions:
REMARK  status: ('A' for Active; 'I' for Inactive)
REMARK    1  A    between atoms: C_5  and  N_6
REMARK    2  A    between atoms: C_7  and  O_9
REMARK    3  A    between atoms: O_9  and  N_10
REMARK    4  A    between atoms: N_10  and  C_11
REMARK                            x       y       z     vdW  Elec       q    Type
REMARK                         _______ _______ _______ _____ _____    ______ ____
ROOT
ATOM      1  N   UNL     1      -0.782  -1.384   0.711  0.00  0.00    +0.000 NA
ATOM      2  C   UNL     1       0.555  -1.187   0.246  0.00  0.00    +0.000 C 
ATOM      3  O   UNL     1       0.830  -0.351  -0.667  0.00  0.00    +0.000 OA
ENDROOT
BRANCH   1   8
ATOM      4  C   UNL     1      -5.309   1.444  -1.300  0.00  0.00    +0.000 C 
ATOM      5  C   UNL     1      -4.117   0.717  -0.789  0.00  0.00    +0.000 A 
ATOM      6  C   UNL     1      -2.856   0.963  -1.290  0.00  0.00    +0.000 A 
ATOM      7  C   UNL     1      -1.725   0.296  -0.829  0.00  0.00    +0.000 A 
ATOM      8  C   UNL     1      -1.854  -0.637   0.155  0.00  0.00    +0.000 A 
ATOM      9  C   UNL     1      -3.123  -0.889   0.665  0.00  0.00    +0.000 A 
ATOM     10  C   UNL     1      -4.235  -0.233   0.209  0.00  0.00    +0.000 A 
ATOM     11 CL   UNL     1      -5.790  -0.620   0.914  0.00  0.00    +0.000 Cl
ENDBRANCH   1   8
BRANCH   2  12
ATOM     12  O   UNL     1       1.626  -1.902   0.769  0.00  0.00    +0.000 OA
BRANCH  12  13
ATOM     13  N   UNL     1       2.900  -1.689   0.299  0.00  0.00    +0.000 NA
BRANCH  13  14
ATOM     14  C   UNL     1       3.415  -0.341   0.354  0.00  0.00    +0.000 C 
ATOM     15  C   UNL     1       2.806   0.586   1.066  0.00  0.00    +0.000 C 
ATOM     16  C   UNL     1       3.292   1.984   1.157  0.00  0.00    +0.000 C 
ATOM     17  C   UNL     1       4.781   1.966   0.896  0.00  0.00    +0.000 C 
ATOM     18  C   UNL     1       4.935   1.381  -0.513  0.00  0.00    +0.000 C 
ATOM     19  C   UNL     1       4.649  -0.102  -0.433  0.00  0.00    +0.000 C 
ENDBRANCH  13  14
ENDBRANCH  12  13
ENDBRANCH   2  12
TORSDOF 4
