REMARK  Name = 
REMARK  1 active torsions:
REMARK  status: ('A' for Active; 'I' for Inactive)
REMARK    1  A    between atoms: C_8  and  N_9
REMARK                            x       y       z     vdW  Elec       q    Type
REMARK                         _______ _______ _______ _____ _____    ______ ____
ROOT
ATOM      1  N   UNL     1      -0.399  -0.226   0.009  0.00  0.00    +0.000 N 
ATOM      2  C   UNL     1       0.132  -1.318  -0.792  0.00  0.00    +0.000 C 
ATOM      3  C   UNL     1       1.472  -1.797  -0.282  0.00  0.00    +0.000 C 
ATOM      4  C   UNL     1       2.399  -0.660  -0.057  0.00  0.00    +0.000 A 
ATOM      5  C   UNL     1       3.739  -0.755  -0.370  0.00  0.00    +0.000 A 
ATOM      6  C   UNL     1       4.598   0.321  -0.154  0.00  0.00    +0.000 A 
ATOM      7  O   UNL     1       5.942   0.186  -0.482  0.00  0.00    +0.000 OA
ATOM      8  C   UNL     1       4.070   1.480   0.381  0.00  0.00    +0.000 A 
ATOM      9  C   UNL     1       2.713   1.551   0.689  0.00  0.00    +0.000 A 
ATOM     10  C   UNL     1       1.861   0.500   0.480  0.00  0.00    +0.000 A 
ATOM     11  C   UNL     1       0.432   0.630   0.824  0.00  0.00    +0.000 C 
ENDROOT
BRANCH   1  19
ATOM     12  C   UNL     1      -2.088  -2.258   0.872  0.00  0.00    +0.000 C 
ATOM     13  C   UNL     1      -2.656  -0.957   0.425  0.00  0.00    +0.000 A 
ATOM     14  C   UNL     1      -4.009  -0.704   0.418  0.00  0.00    +0.000 A 
ATOM     15  C   UNL     1      -4.526   0.523  -0.005  0.00  0.00    +0.000 A 
ATOM     16  O   UNL     1      -5.896   0.695   0.019  0.00  0.00    +0.000 OA
ATOM     17  C   UNL     1      -3.659   1.506  -0.425  0.00  0.00    +0.000 A 
ATOM     18  C   UNL     1      -2.322   1.254  -0.417  0.00  0.00    +0.000 A 
ATOM     19  C   UNL     1      -1.800   0.029   0.004  0.00  0.00    +0.000 A 
ENDBRANCH   1  19
TORSDOF 1
