REMARK  Name = 
REMARK  4 active torsions:
REMARK  status: ('A' for Active; 'I' for Inactive)
REMARK    1  A    between atoms: C_2  and  C_5
REMARK    2  A    between atoms: C_7  and  C_8
REMARK    3  A    between atoms: N_11  and  C_12
REMARK    4  A    between atoms: C_12  and  C_13
REMARK                            x       y       z     vdW  Elec       q    Type
REMARK                         _______ _______ _______ _____ _____    ______ ____
ROOT
ATOM      1  C   UNL     1      -1.852  -0.945  -0.152  0.00  0.00    +0.000 A 
ATOM      2  C   UNL     1      -1.973   0.235   0.579  0.00  0.00    +0.000 A 
ATOM      3  C   UNL     1      -1.013   1.129   0.164  0.00  0.00    +0.000 A 
ATOM      4  N   UNL     1      -0.348   0.482  -0.791  0.00  0.00    +0.000 N 
ATOM      5  N   UNL     1      -0.830  -0.724  -0.982  0.00  0.00    +0.000 NA
ENDROOT
BRANCH   1   7
ATOM      6  C   UNL     1      -4.075  -1.919  -0.485  0.00  0.00    +0.000 C 
ATOM      7  C   UNL     1      -2.652  -2.168  -0.051  0.00  0.00    +0.000 C 
ATOM      8  C   UNL     1      -2.614  -2.660   1.381  0.00  0.00    +0.000 C 
ATOM      9  C   UNL     1      -2.031  -3.235  -0.923  0.00  0.00    +0.000 C 
ENDBRANCH   1   7
BRANCH   3  10
ATOM     10  C   UNL     1      -0.716   2.476   0.621  0.00  0.00    +0.000 C 
ATOM     11  N   UNL     1      -1.213   3.056   1.810  0.00  0.00    +0.000 NA
ATOM     12  O   UNL     1       0.057   3.207  -0.081  0.00  0.00    +0.000 OA
ENDBRANCH   3  10
BRANCH   4  13
ATOM     13  C   UNL     1       0.829   0.994  -1.510  0.00  0.00    +0.000 C 
BRANCH  13  14
ATOM     14  C   UNL     1       2.009   0.454  -0.713  0.00  0.00    +0.000 A 
ATOM     15  C   UNL     1       2.344   1.070   0.486  0.00  0.00    +0.000 A 
ATOM     16  C   UNL     1       3.373   0.662   1.269  0.00  0.00    +0.000 A 
ATOM     17  C   UNL     1       4.140  -0.441   0.847  0.00  0.00    +0.000 A 
ATOM     18  C   UNL     1       3.815  -1.065  -0.352  0.00  0.00    +0.000 A 
ATOM     19  C   UNL     1       2.750  -0.609  -1.116  0.00  0.00    +0.000 A 
ENDBRANCH  13  14
ENDBRANCH   4  13
TORSDOF 4
