REMARK  Name = 
REMARK  5 active torsions:
REMARK  status: ('A' for Active; 'I' for Inactive)
REMARK    1  A    between atoms: C_2  and  O_3
REMARK    2  A    between atoms: O_3  and  C_4
REMARK    3  A    between atoms: C_4  and  C_6
REMARK    4  A    between atoms: C_9  and  C_10
REMARK    5  A    between atoms: N_14  and  C_15
REMARK                            x       y       z     vdW  Elec       q    Type
REMARK                         _______ _______ _______ _____ _____    ______ ____
ROOT
ATOM      1  C   UNL     1       1.053  -0.005  -0.261  0.00  0.00    +0.000 A 
ATOM      2  C   UNL     1       2.111  -0.921  -0.220  0.00  0.00    +0.000 A 
ATOM      3  C   UNL     1       3.525  -0.694  -0.579  0.00  0.00    +0.000 C 
ATOM      4  C   UNL     1       1.595  -2.115   0.226  0.00  0.00    +0.000 A 
ATOM      5  C   UNL     1       0.265  -1.909   0.445  0.00  0.00    +0.000 A 
ATOM      6  N   UNL     1      -0.640  -2.912   0.918  0.00  0.00    +0.000 NA
ATOM      7  N   UNL     1      -0.061  -0.628   0.148  0.00  0.00    +0.000 N 
ENDROOT
BRANCH   7   8
ATOM      8  C   UNL     1      -1.370  -0.076   0.264  0.00  0.00    +0.000 A 
ATOM      9  C   UNL     1      -2.432  -0.632  -0.420  0.00  0.00    +0.000 A 
ATOM     10  C   UNL     1      -3.714  -0.149  -0.352  0.00  0.00    +0.000 A 
ATOM     11  C   UNL     1      -3.984   0.944   0.429  0.00  0.00    +0.000 A 
ATOM     12  C   UNL     1      -5.380   1.481   0.511  0.00  0.00    +0.000 C 
ATOM     13  C   UNL     1      -2.951   1.521   1.122  0.00  0.00    +0.000 A 
ATOM     14  C   UNL     1      -1.679   1.014   1.033  0.00  0.00    +0.000 A 
ENDBRANCH   7   8
BRANCH   1  15
ATOM     15  C   UNL     1       1.197   1.375  -0.682  0.00  0.00    +0.000 C 
ATOM     16  O   UNL     1       0.189   2.111  -0.682  0.00  0.00    +0.000 OA
BRANCH  15  17
ATOM     17  O   UNL     1       2.398   1.918  -1.087  0.00  0.00    +0.000 OA
BRANCH  17  19
ATOM     18  C   UNL     1       2.152   4.142  -0.343  0.00  0.00    +0.000 C 
ATOM     19  C   UNL     1       2.558   3.263  -1.502  0.00  0.00    +0.000 C 
ENDBRANCH  17  19
ENDBRANCH  15  17
ENDBRANCH   1  15
BRANCH   4  20
ATOM     20  C   UNL     1       2.304  -3.364   0.434  0.00  0.00    +0.000 C 
ATOM     21  N   UNL     1       2.866  -4.363   0.599  0.00  0.00    +0.000 NA
ENDBRANCH   4  20
TORSDOF 5
