REMARK  Name = 
REMARK  2 active torsions:
REMARK  status: ('A' for Active; 'I' for Inactive)
REMARK    1  A    between atoms: N_4  and  C_5
REMARK    2  A    between atoms: C_13  and  C_14
REMARK                            x       y       z     vdW  Elec       q    Type
REMARK                         _______ _______ _______ _____ _____    ______ ____
ROOT
ATOM      1  C   UNL     1       0.794  -2.632   2.362  0.00  0.00    +0.000 C 
ATOM      2  C   UNL     1       0.097  -1.547   1.631  0.00  0.00    +0.000 A 
ATOM      3  C   UNL     1      -1.266  -1.512   1.434  0.00  0.00    +0.000 A 
ATOM      4  N   UNL     1      -1.575  -0.396   0.735  0.00  0.00    +0.000 N 
ATOM      5  C   UNL     1      -0.411   0.249   0.506  0.00  0.00    +0.000 A 
ATOM      6  C   UNL     1      -0.385   1.554  -0.211  0.00  0.00    +0.000 C 
ATOM      7  C   UNL     1       0.654  -0.426   1.040  0.00  0.00    +0.000 A 
ENDROOT
BRANCH   7   8
ATOM      8  C   UNL     1       2.051  -0.097   1.088  0.00  0.00    +0.000 C 
ATOM      9  C   UNL     1       2.809   0.024   0.017  0.00  0.00    +0.000 C 
ATOM     10  N   UNL     1       4.223   0.364   0.024  0.00  0.00    +0.000 NA
ATOM     11  C   UNL     1       4.669   0.340  -1.299  0.00  0.00    +0.000 C 
ATOM     12  S   UNL     1       6.189   0.653  -1.822  0.00  0.00    +0.000 S 
ATOM     13  N   UNL     1       3.589  -0.004  -2.152  0.00  0.00    +0.000 NA
ATOM     14  C   UNL     1       2.414  -0.209  -1.361  0.00  0.00    +0.000 C 
ATOM     15  O   UNL     1       1.275  -0.528  -1.781  0.00  0.00    +0.000 OA
ENDBRANCH   7   8
BRANCH   4  16
ATOM     16  C   UNL     1      -2.890  -0.022   0.344  0.00  0.00    +0.000 A 
ATOM     17  C   UNL     1      -3.882  -0.990   0.263  0.00  0.00    +0.000 A 
ATOM     18  C   UNL     1      -5.177  -0.701  -0.109  0.00  0.00    +0.000 A 
ATOM     19  C   UNL     1      -5.462   0.629  -0.408  0.00  0.00    +0.000 A 
ATOM     20  C   UNL     1      -4.496   1.613  -0.336  0.00  0.00    +0.000 A 
ATOM     21  C   UNL     1      -3.220   1.293   0.036  0.00  0.00    +0.000 A 
ENDBRANCH   4  16
TORSDOF 2
