REMARK  Name = 
REMARK  3 active torsions:
REMARK  status: ('A' for Active; 'I' for Inactive)
REMARK    1  A    between atoms: C_6  and  C_7
REMARK    2  A    between atoms: C_7  and  N_8
REMARK    3  A    between atoms: N_11  and  C_12
REMARK                            x       y       z     vdW  Elec       q    Type
REMARK                         _______ _______ _______ _____ _____    ______ ____
ROOT
ATOM      1  N   UNL     1      -1.192   0.889   0.177  0.00  0.00    +0.000 N 
ATOM      2  C   UNL     1      -0.666   1.248   1.475  0.00  0.00    +0.000 C 
ATOM      3  C   UNL     1       0.500   0.296   1.629  0.00  0.00    +0.000 C 
ATOM      4  N   UNL     1       1.033   0.203   0.292  0.00  0.00    +0.000 N 
ATOM      5  C   UNL     1      -0.077   0.383  -0.572  0.00  0.00    +0.000 C 
ATOM      6  O   UNL     1      -0.084   0.138  -1.800  0.00  0.00    +0.000 OA
ENDROOT
BRANCH   4   7
ATOM      7  C   UNL     1       2.386  -0.021  -0.033  0.00  0.00    +0.000 A 
ATOM      8  C   UNL     1       2.722  -0.358  -1.326  0.00  0.00    +0.000 A 
ATOM      9  C   UNL     1       4.033  -0.582  -1.686  0.00  0.00    +0.000 A 
ATOM     10  C   UNL     1       5.027  -0.472  -0.755  0.00  0.00    +0.000 A 
ATOM     11  C   UNL     1       4.742  -0.136   0.555  0.00  0.00    +0.000 A 
ATOM     12 CL   UNL     1       6.008   0.011   1.774  0.00  0.00    +0.000 Cl
ATOM     13  C   UNL     1       3.410   0.083   0.880  0.00  0.00    +0.000 A 
ENDBRANCH   4   7
BRANCH   1  14
ATOM     14  C   UNL     1      -2.546   0.997  -0.323  0.00  0.00    +0.000 C 
BRANCH  14  20
ATOM     15  C   UNL     1      -5.592   0.408  -1.088  0.00  0.00    +0.000 C 
ATOM     16  C   UNL     1      -4.639  -0.468  -0.391  0.00  0.00    +0.000 A 
ATOM     17  N   UNL     1      -4.963  -1.718   0.043  0.00  0.00    +0.000 NA
ATOM     18  C   UNL     1      -3.881  -2.247   0.634  0.00  0.00    +0.000 A 
ATOM     19  N   UNL     1      -2.893  -1.333   0.569  0.00  0.00    +0.000 NA
ATOM     20  C   UNL     1      -3.328  -0.230  -0.055  0.00  0.00    +0.000 A 
ENDBRANCH  14  20
ENDBRANCH   1  14
TORSDOF 3
