REMARK  Name = 
REMARK  1 active torsions:
REMARK  status: ('A' for Active; 'I' for Inactive)
REMARK    1  A    between atoms: C_6  and  N_7
REMARK                            x       y       z     vdW  Elec       q    Type
REMARK                         _______ _______ _______ _____ _____    ______ ____
ROOT
ATOM      1  N   UNL     1       0.726   0.633   0.083  0.00  0.00    +0.000 NA
ATOM      2  C   UNL     1       0.012  -0.593   0.037  0.00  0.00    +0.000 A 
ATOM      3  N   UNL     1       0.717  -1.706  -0.096  0.00  0.00    +0.000 NA
ATOM      4  C   UNL     1       0.203  -2.935  -0.155  0.00  0.00    +0.000 A 
ATOM      5  N   UNL     1      -1.134  -3.031  -0.073  0.00  0.00    +0.000 NA
ATOM      6  C   UNL     1      -1.887  -1.908   0.063  0.00  0.00    +0.000 A 
ATOM      7  S   UNL     1      -3.588  -1.649   0.197  0.00  0.00    +0.000 S 
ATOM      8  C   UNL     1      -3.587   0.053   0.327  0.00  0.00    +0.000 A 
ATOM      9  C   UNL     1      -2.262   0.362   0.262  0.00  0.00    +0.000 A 
ATOM     10  C   UNL     1      -1.389  -0.641   0.127  0.00  0.00    +0.000 A 
ATOM     11  C   UNL     1      -2.034   1.862   0.361  0.00  0.00    +0.000 C 
ATOM     12  C   UNL     1      -2.983   2.458  -0.657  0.00  0.00    +0.000 C 
ATOM     13  C   UNL     1      -4.364   2.388  -0.053  0.00  0.00    +0.000 C 
ATOM     14  C   UNL     1      -4.701   1.028   0.475  0.00  0.00    +0.000 C 
ENDROOT
BRANCH   1  20
ATOM     15  O   UNL     1       5.112  -1.397  -0.366  0.00  0.00    +0.000 OA
ATOM     16  C   UNL     1       4.316  -0.262  -0.226  0.00  0.00    +0.000 A 
ATOM     17  C   UNL     1       4.924   0.985  -0.171  0.00  0.00    +0.000 A 
ATOM     18  C   UNL     1       4.109   2.095  -0.032  0.00  0.00    +0.000 A 
ATOM     19  C   UNL     1       2.744   1.941   0.048  0.00  0.00    +0.000 A 
ATOM     20  C   UNL     1       2.123   0.716  -0.004  0.00  0.00    +0.000 A 
ATOM     21  C   UNL     1       2.946  -0.400  -0.145  0.00  0.00    +0.000 A 
ENDBRANCH   1  20
TORSDOF 1
