REMARK  Name = 
REMARK  4 active torsions:
REMARK  status: ('A' for Active; 'I' for Inactive)
REMARK    1  A    between atoms: C_5  and  N_6
REMARK    2  A    between atoms: N_6  and  C_7
REMARK    3  A    between atoms: C_7  and  N_9
REMARK    4  A    between atoms: C_10  and  C_12
REMARK                            x       y       z     vdW  Elec       q    Type
REMARK                         _______ _______ _______ _____ _____    ______ ____
ROOT
ATOM      1  C   UNL     1      -0.334   0.575   0.943  0.00  0.00    +0.000 C 
ATOM      2  S   UNL     1      -0.973   1.583   2.060  0.00  0.00    +0.000 S 
ENDROOT
BRANCH   1   3
ATOM      3  N   UNL     1       1.103   0.546   0.888  0.00  0.00    +0.000 NA
ATOM      4  C   UNL     1       1.818  -0.266  -0.016  0.00  0.00    +0.000 C 
ATOM      5  O   UNL     1       1.155  -0.991  -0.801  0.00  0.00    +0.000 OA
BRANCH   4   6
ATOM      6  C   UNL     1       3.274  -0.307  -0.084  0.00  0.00    +0.000 A 
ATOM      7  C   UNL     1       4.061  -1.061  -0.925  0.00  0.00    +0.000 A 
ATOM      8  C   UNL     1       5.396  -0.783  -0.641  0.00  0.00    +0.000 A 
ATOM      9  N   UNL     1       5.386   0.121   0.353  0.00  0.00    +0.000 N 
ATOM     10  C   UNL     1       6.610   0.681   0.948  0.00  0.00    +0.000 C 
ATOM     11  N   UNL     1       4.139   0.391   0.669  0.00  0.00    +0.000 NA
ENDBRANCH   4   6
ENDBRANCH   1   3
BRANCH   1  12
ATOM     12  N   UNL     1      -1.142  -0.204   0.100  0.00  0.00    +0.000 NA
BRANCH  12  17
ATOM     13  C   UNL     1      -6.810   0.082   0.503  0.00  0.00    +0.000 C 
ATOM     14  C   UNL     1      -5.338  -0.003   0.387  0.00  0.00    +0.000 A 
ATOM     15  C   UNL     1      -4.556   0.764   1.217  0.00  0.00    +0.000 A 
ATOM     16  C   UNL     1      -3.198   0.697   1.122  0.00  0.00    +0.000 A 
ATOM     17  C   UNL     1      -2.541  -0.116   0.219  0.00  0.00    +0.000 A 
ATOM     18  C   UNL     1      -3.343  -0.884  -0.612  0.00  0.00    +0.000 A 
ATOM     19  C   UNL     1      -4.706  -0.824  -0.525  0.00  0.00    +0.000 A 
ENDBRANCH  12  17
ENDBRANCH   1  12
TORSDOF 4
