REMARK  Name = 
REMARK  4 active torsions:
REMARK  status: ('A' for Active; 'I' for Inactive)
REMARK    1  A    between atoms: C_2  and  C_5
REMARK    2  A    between atoms: C_5  and  C_7
REMARK    3  A    between atoms: C_7  and  C_8
REMARK    4  A    between atoms: C_12  and  C_13
REMARK                            x       y       z     vdW  Elec       q    Type
REMARK                         _______ _______ _______ _____ _____    ______ ____
ROOT
ATOM      1  C   UNL     1       1.537  -0.002  -1.454  0.00  0.00    +0.000 C 
ATOM      2  C   UNL     1       2.543  -0.833  -2.169  0.00  0.00    +0.000 C 
ATOM      3  N   UNL     1       0.712   0.809  -2.320  0.00  0.00    +0.000 NA
ATOM      4  N   UNL     1      -0.574   0.965  -1.961  0.00  0.00    +0.000 NA
ATOM      5  C   UNL     1      -1.114   0.133  -1.163  0.00  0.00    +0.000 C 
ATOM      6  S   UNL     1       0.177  -1.049  -0.773  0.00  0.00    +0.000 S 
ENDROOT
BRANCH   5   7
ATOM      7  C   UNL     1      -2.487   0.111  -0.644  0.00  0.00    +0.000 A 
ATOM      8  C   UNL     1      -3.369   1.095  -1.032  0.00  0.00    +0.000 A 
ATOM      9  C   UNL     1      -4.661   1.071  -0.542  0.00  0.00    +0.000 A 
ATOM     10  C   UNL     1      -5.033   0.071   0.316  0.00  0.00    +0.000 A 
ATOM     11  C   UNL     1      -4.163  -0.922   0.714  0.00  0.00    +0.000 A 
ATOM     12  C   UNL     1      -2.860  -0.895   0.218  0.00  0.00    +0.000 A 
ATOM     13  O   UNL     1      -1.925  -1.856   0.569  0.00  0.00    +0.000 OA
ENDBRANCH   5   7
BRANCH   1  14
ATOM     14  C   UNL     1       2.092   0.780  -0.293  0.00  0.00    +0.000 C 
BRANCH  14  15
ATOM     15  C   UNL     1       2.683  -0.078   0.742  0.00  0.00    +0.000 C 
ATOM     16  O   UNL     1       2.661  -1.292   0.554  0.00  0.00    +0.000 OA
BRANCH  15  18
ATOM     17  C   UNL     1       3.810  -0.675   2.838  0.00  0.00    +0.000 C 
ATOM     18  C   UNL     1       3.292   0.436   1.975  0.00  0.00    +0.000 C 
ATOM     19  C   UNL     1       4.434   1.390   1.674  0.00  0.00    +0.000 C 
ATOM     20  C   UNL     1       2.244   1.232   2.751  0.00  0.00    +0.000 C 
ENDBRANCH  15  18
ENDBRANCH  14  15
ENDBRANCH   1  14
TORSDOF 4
