REMARK  Name = 
REMARK  4 active torsions:
REMARK  status: ('A' for Active; 'I' for Inactive)
REMARK    1  A    between atoms: C_2  and  C_4
REMARK    2  A    between atoms: C_4  and  C_5
REMARK    3  A    between atoms: N_9  and  C_10
REMARK    4  A    between atoms: C_10  and  C_11
REMARK                            x       y       z     vdW  Elec       q    Type
REMARK                         _______ _______ _______ _____ _____    ______ ____
ROOT
ATOM      1  C   UNL     1       2.246  -0.110   1.276  0.00  0.00    +0.000 C 
ATOM      2  N   UNL     1       2.248  -0.641  -0.220  0.00  0.00    +0.000 NA
ATOM      3  C   UNL     1       1.041  -1.329  -0.347  0.00  0.00    +0.000 C 
ATOM      4  O   UNL     1       0.827  -2.255  -1.204  0.00  0.00    +0.000 OA
ATOM      5  N   UNL     1       0.094  -0.839   0.641  0.00  0.00    +0.000 N 
ATOM      6  C   UNL     1       0.710   0.157   1.377  0.00  0.00    +0.000 C 
ATOM      7  O   UNL     1       0.201   1.121   2.027  0.00  0.00    +0.000 OA
ENDROOT
BRANCH   1   8
ATOM      8  C   UNL     1       2.634   1.452   0.697  0.00  0.00    +0.000 C 
BRANCH   8  10
ATOM      9  C   UNL     1       3.937   0.359  -1.211  0.00  0.00    +0.000 C 
ATOM     10  C   UNL     1       3.887   1.245  -0.020  0.00  0.00    +0.000 C 
ATOM     11  C   UNL     1       5.128   1.759   0.540  0.00  0.00    +0.000 C 
ENDBRANCH   8  10
ENDBRANCH   1   8
BRANCH   5  12
ATOM     12  C   UNL     1      -1.260  -1.364   0.534  0.00  0.00    +0.000 C 
BRANCH  12  13
ATOM     13  C   UNL     1      -2.193  -0.399  -0.148  0.00  0.00    +0.000 A 
ATOM     14  C   UNL     1      -2.697   0.665   0.617  0.00  0.00    +0.000 A 
ATOM     15  C   UNL     1      -3.721   1.444   0.214  0.00  0.00    +0.000 A 
ATOM     16  C   UNL     1      -4.311   1.174  -1.031  0.00  0.00    +0.000 A 
ATOM     17  C   UNL     1      -3.858   0.125  -1.855  0.00  0.00    +0.000 A 
ATOM     18  C   UNL     1      -2.752  -0.663  -1.355  0.00  0.00    +0.000 A 
ATOM     19 CL   UNL     1      -2.159  -1.902  -2.498  0.00  0.00    +0.000 Cl
ENDBRANCH  12  13
ENDBRANCH   5  12
TORSDOF 4
