REMARK  Name = 
REMARK  4 active torsions:
REMARK  status: ('A' for Active; 'I' for Inactive)
REMARK    1  A    between atoms: C_3  and  C_4
REMARK    2  A    between atoms: C_9  and  C_10
REMARK    3  A    between atoms: C_10  and  S_11
REMARK    4  A    between atoms: S_11  and  C_12
REMARK                            x       y       z     vdW  Elec       q    Type
REMARK                         _______ _______ _______ _____ _____    ______ ____
ROOT
ATOM      1  C   UNL     1      -1.962  -0.126   1.011  0.00  0.00    +0.000 C 
ATOM      2  C   UNL     1      -3.472  -0.528   0.347  0.00  0.00    +0.000 C 
ATOM      3  C   UNL     1      -3.531   0.499  -0.899  0.00  0.00    +0.000 C 
ATOM      4  C   UNL     1      -2.626   0.166  -1.956  0.00  0.00    +0.000 C 
ATOM      5  C   UNL     1      -1.272  -0.094  -1.463  0.00  0.00    +0.000 C 
ATOM      6  C   UNL     1      -0.977  -0.536  -0.178  0.00  0.00    +0.000 C 
ATOM      7  N   UNL     1      -0.865  -1.990   0.057  0.00  0.00    +0.000 NA
ATOM      8  C   UNL     1      -2.130  -2.608  -0.041  0.00  0.00    +0.000 C 
ATOM      9  O   UNL     1      -2.333  -3.808   0.218  0.00  0.00    +0.000 OA
ATOM     10  O   UNL     1      -3.110  -1.756  -0.450  0.00  0.00    +0.000 OA
ENDROOT
BRANCH   1  13
ATOM     11  C   UNL     1      -1.964   4.018   0.382  0.00  0.00    +0.000 C 
ATOM     12  C   UNL     1      -1.940   2.569   0.585  0.00  0.00    +0.000 C 
ATOM     13  C   UNL     1      -1.940   1.403   0.758  0.00  0.00    +0.000 C 
ENDBRANCH   1  13
BRANCH   6  14
ATOM     14  C   UNL     1       0.343   0.026   0.306  0.00  0.00    +0.000 C 
BRANCH  14  15
ATOM     15  S   UNL     1       1.473  -0.449  -1.066  0.00  0.00    +0.000 S 
BRANCH  15  16
ATOM     16  C   UNL     1       3.125   0.115  -0.722  0.00  0.00    +0.000 A 
ATOM     17  C   UNL     1       3.493   1.361  -1.151  0.00  0.00    +0.000 A 
ATOM     18  C   UNL     1       4.788   1.783  -0.872  0.00  0.00    +0.000 A 
ATOM     19  C   UNL     1       5.678   0.967  -0.181  0.00  0.00    +0.000 A 
ATOM     20  C   UNL     1       5.249  -0.280   0.226  0.00  0.00    +0.000 A 
ATOM     21  C   UNL     1       3.972  -0.734  -0.031  0.00  0.00    +0.000 A 
ENDBRANCH  15  16
ENDBRANCH  14  15
ENDBRANCH   6  14
TORSDOF 4
