REMARK  Name = 
REMARK  3 active torsions:
REMARK  status: ('A' for Active; 'I' for Inactive)
REMARK    1  A    between atoms: C_2  and  C_4
REMARK    2  A    between atoms: C_4  and  C_5
REMARK    3  A    between atoms: N_9  and  C_10
REMARK                            x       y       z     vdW  Elec       q    Type
REMARK                         _______ _______ _______ _____ _____    ______ ____
ROOT
ATOM      1  C   UNL     1       2.342  -1.181   1.063  0.00  0.00    +0.000 C 
ATOM      2  N   UNL     1       2.155   0.145   1.865  0.00  0.00    +0.000 NA
ATOM      3  C   UNL     1       1.179   0.854   1.150  0.00  0.00    +0.000 C 
ATOM      4  O   UNL     1       0.992   2.092   1.227  0.00  0.00    +0.000 OA
ATOM      5  N   UNL     1       0.400   0.018   0.307  0.00  0.00    +0.000 N 
ATOM      6  C   UNL     1       0.868  -1.273   0.466  0.00  0.00    +0.000 C 
ATOM      7  O   UNL     1       0.347  -2.352   0.231  0.00  0.00    +0.000 OA
ENDROOT
BRANCH   5   8
ATOM      8  C   UNL     1      -0.670   0.372  -0.558  0.00  0.00    +0.000 A 
ATOM      9  C   UNL     1      -0.471   1.113  -1.718  0.00  0.00    +0.000 A 
ATOM     10  C   UNL     1      -1.524   1.447  -2.544  0.00  0.00    +0.000 A 
ATOM     11  C   UNL     1      -2.817   1.065  -2.261  0.00  0.00    +0.000 A 
ATOM     12  C   UNL     1      -3.026   0.319  -1.095  0.00  0.00    +0.000 A 
ATOM     13  C   UNL     1      -4.284  -0.102  -0.739  0.00  0.00    +0.000 A 
ATOM     14  C   UNL     1      -4.488  -0.828   0.394  0.00  0.00    +0.000 A 
ATOM     15  C   UNL     1      -3.415  -1.144   1.196  0.00  0.00    +0.000 A 
ATOM     16  C   UNL     1      -2.132  -0.746   0.885  0.00  0.00    +0.000 A 
ATOM     17  C   UNL     1      -1.968  -0.010  -0.276  0.00  0.00    +0.000 A 
ENDBRANCH   5   8
BRANCH   1  18
ATOM     18  C   UNL     1       2.981  -0.457  -0.279  0.00  0.00    +0.000 C 
BRANCH  18  20
ATOM     19  C   UNL     1       4.074   1.272   1.196  0.00  0.00    +0.000 C 
ATOM     20  C   UNL     1       4.233   0.218   0.135  0.00  0.00    +0.000 C 
ATOM     21  C   UNL     1       5.225  -0.823   0.587  0.00  0.00    +0.000 C 
ENDBRANCH  18  20
ENDBRANCH   1  18
TORSDOF 3
