REMARK  Name = 
REMARK  2 active torsions:
REMARK  status: ('A' for Active; 'I' for Inactive)
REMARK    1  A    between atoms: C_2  and  C_3
REMARK    2  A    between atoms: C_13  and  C_14
REMARK                            x       y       z     vdW  Elec       q    Type
REMARK                         _______ _______ _______ _____ _____    ______ ____
ROOT
ATOM      1  C   UNL     1       0.600   1.689   0.114  0.00  0.00    +0.000 C 
ATOM      2  C   UNL     1       1.112   1.772  -1.043  0.00  0.00    +0.000 C 
ATOM      3  N   UNL     1       0.981   3.068  -1.693  0.00  0.00    +0.000 NA
ATOM      4  O   UNL     1       1.736   0.723  -1.627  0.00  0.00    +0.000 OA
ATOM      5  C   UNL     1       1.857  -0.487  -1.016  0.00  0.00    +0.000 C 
ATOM      6  C   UNL     1       1.390  -0.680   0.123  0.00  0.00    +0.000 C 
ATOM      7  C   UNL     1       1.451  -1.963   0.913  0.00  0.00    +0.000 C 
ATOM      8  C   UNL     1       2.425  -2.902   0.365  0.00  0.00    +0.000 C 
ATOM      9  C   UNL     1       3.409  -2.236  -0.551  0.00  0.00    +0.000 C 
ATOM     10  C   UNL     1       2.562  -1.653  -1.687  0.00  0.00    +0.000 C 
ATOM     11  C   UNL     1       0.615   0.386   1.020  0.00  0.00    +0.000 C 
ENDROOT
BRANCH  11  12
ATOM     12  C   UNL     1      -0.844  -0.139   0.747  0.00  0.00    +0.000 A 
ATOM     13  C   UNL     1      -1.796   0.810   0.840  0.00  0.00    +0.000 A 
ATOM     14  C   UNL     1      -3.133   0.450   0.621  0.00  0.00    +0.000 A 
ATOM     15  C   UNL     1      -3.419  -0.869   0.318  0.00  0.00    +0.000 A 
ATOM     16  F   UNL     1      -4.720  -1.255   0.098  0.00  0.00    +0.000 F 
ATOM     17  C   UNL     1      -2.418  -1.802   0.234  0.00  0.00    +0.000 A 
ATOM     18  C   UNL     1      -1.109  -1.415   0.455  0.00  0.00    +0.000 A 
ENDBRANCH  11  12
BRANCH   1  20
ATOM     19  N   UNL     1      -0.619   3.689   1.291  0.00  0.00    +0.000 NA
ATOM     20  C   UNL     1      -0.080   2.814   0.762  0.00  0.00    +0.000 C 
ENDBRANCH   1  20
TORSDOF 2
