REMARK  Name = 
REMARK  4 active torsions:
REMARK  status: ('A' for Active; 'I' for Inactive)
REMARK    1  A    between atoms: N_5  and  C_6
REMARK    2  A    between atoms: C_6  and  C_7
REMARK    3  A    between atoms: C_7  and  C_8
REMARK    4  A    between atoms: C_15  and  O_16
REMARK                            x       y       z     vdW  Elec       q    Type
REMARK                         _______ _______ _______ _____ _____    ______ ____
ROOT
ATOM      1  C   UNL     1      -0.124  -1.409   0.179  0.00  0.00    +0.000 A 
ATOM      2  C   UNL     1      -0.273  -2.773   0.156  0.00  0.00    +0.000 A 
ATOM      3  C   UNL     1      -1.516  -3.329  -0.028  0.00  0.00    +0.000 A 
ATOM      4  C   UNL     1      -2.622  -2.508  -0.191  0.00  0.00    +0.000 A 
ATOM      5  C   UNL     1      -2.495  -1.136  -0.171  0.00  0.00    +0.000 A 
ATOM      6  C   UNL     1      -3.548  -0.263  -0.326  0.00  0.00    +0.000 A 
ATOM      7  C   UNL     1      -3.370   1.105  -0.298  0.00  0.00    +0.000 A 
ATOM      8  C   UNL     1      -2.108   1.611  -0.111  0.00  0.00    +0.000 A 
ATOM      9  C   UNL     1      -1.046   0.749   0.045  0.00  0.00    +0.000 A 
ATOM     10  C   UNL     1      -1.238  -0.610   0.015  0.00  0.00    +0.000 A 
ENDROOT
BRANCH   8  11
ATOM     11  O   UNL     1      -1.838   2.965  -0.069  0.00  0.00    +0.000 OA
ATOM     12  C   UNL     1      -2.822   3.967  -0.214  0.00  0.00    +0.000 C 
ENDBRANCH   8  11
BRANCH   1  13
ATOM     13  C   UNL     1       1.246  -0.877   0.378  0.00  0.00    +0.000 C 
BRANCH  13  14
ATOM     14  C   UNL     1       1.844  -0.364  -0.908  0.00  0.00    +0.000 C 
BRANCH  14  19
ATOM     15  C   UNL     1       5.834   0.921  -0.400  0.00  0.00    +0.000 C 
ATOM     16  N   UNL     1       4.913   0.976   0.745  0.00  0.00    +0.000 NA
ATOM     17  C   UNL     1       3.571   0.486   0.535  0.00  0.00    +0.000 C 
ATOM     18  S   UNL     1       2.420   0.355   1.890  0.00  0.00    +0.000 S 
ATOM     19  N   UNL     1       3.173   0.132  -0.638  0.00  0.00    +0.000 NA
ENDBRANCH  14  19
ENDBRANCH  13  14
ENDBRANCH   1  13
TORSDOF 4
