REMARK  Name = 
REMARK  4 active torsions:
REMARK  status: ('A' for Active; 'I' for Inactive)
REMARK    1  A    between atoms: C_2  and  O_3
REMARK    2  A    between atoms: O_3  and  C_4
REMARK    3  A    between atoms: C_8  and  C_9
REMARK    4  A    between atoms: C_9  and  O_11
REMARK                            x       y       z     vdW  Elec       q    Type
REMARK                         _______ _______ _______ _____ _____    ______ ____
ROOT
ATOM      1  C   UNL     1      -2.254   0.027  -0.331  0.00  0.00    +0.000 A 
ATOM      2  C   UNL     1      -1.327   1.022  -0.561  0.00  0.00    +0.000 A 
ATOM      3  C   UNL     1       0.011   0.838  -0.248  0.00  0.00    +0.000 A 
ATOM      4  N   UNL     1       1.110   1.639  -0.370  0.00  0.00    +0.000 NA
ATOM      5  C   UNL     1       2.195   1.005   0.077  0.00  0.00    +0.000 A 
ATOM      6  C   UNL     1       1.771  -0.238   0.496  0.00  0.00    +0.000 A 
ATOM      7  C   UNL     1       0.422  -0.349   0.298  0.00  0.00    +0.000 A 
ATOM      8  C   UNL     1      -0.518  -1.354   0.530  0.00  0.00    +0.000 A 
ATOM      9  C   UNL     1      -0.040  -2.532   1.084  0.00  0.00    +0.000 A 
ATOM     10  C   UNL     1      -0.904  -3.562   1.339  0.00  0.00    +0.000 A 
ATOM     11  C   UNL     1      -2.226  -3.393   1.034  0.00  0.00    +0.000 A 
ATOM     12  C   UNL     1      -2.712  -2.208   0.476  0.00  0.00    +0.000 A 
ATOM     13  C   UNL     1      -1.845  -1.166   0.217  0.00  0.00    +0.000 A 
ENDROOT
BRANCH   5  14
ATOM     14  C   UNL     1       3.574   1.537   0.113  0.00  0.00    +0.000 C 
ATOM     15  O   UNL     1       3.789   2.686  -0.306  0.00  0.00    +0.000 OA
BRANCH  14  16
ATOM     16  O   UNL     1       4.607   0.779   0.599  0.00  0.00    +0.000 OA
ATOM     17  C   UNL     1       5.962   1.245   0.657  0.00  0.00    +0.000 C 
ENDBRANCH  14  16
ENDBRANCH   5  14
BRANCH   1  18
ATOM     18  O   UNL     1      -3.607   0.176  -0.633  0.00  0.00    +0.000 OA
BRANCH  18  20
ATOM     19  C   UNL     1      -3.867   2.496  -0.240  0.00  0.00    +0.000 C 
ATOM     20  C   UNL     1      -4.140   1.351  -1.196  0.00  0.00    +0.000 C 
ENDBRANCH  18  20
ENDBRANCH   1  18
TORSDOF 4
