REMARK  Name = 
REMARK  2 active torsions:
REMARK  status: ('A' for Active; 'I' for Inactive)
REMARK    1  A    between atoms: C_2  and  C_10
REMARK    2  A    between atoms: N_3  and  C_4
REMARK                            x       y       z     vdW  Elec       q    Type
REMARK                         _______ _______ _______ _____ _____    ______ ____
ROOT
ATOM      1  C   UNL     1      -0.218  -0.344   0.595  0.00  0.00    +0.000 A 
ATOM      2  C   UNL     1      -1.007   0.719   0.299  0.00  0.00    +0.000 A 
ATOM      3  C   UNL     1      -2.288   0.711   0.727  0.00  0.00    +0.000 A 
ATOM      4  C   UNL     1      -2.676  -0.397   1.438  0.00  0.00    +0.000 A 
ATOM      5  S   UNL     1      -1.270  -1.353   1.475  0.00  0.00    +0.000 S 
ATOM      6  C   UNL     1      -3.928  -0.847   2.090  0.00  0.00    +0.000 C 
ATOM      7  C   UNL     1      -4.925  -1.145   0.962  0.00  0.00    +0.000 C 
ATOM      8  C   UNL     1      -4.342  -0.871  -0.387  0.00  0.00    +0.000 C 
ATOM      9  C   UNL     1      -4.599   0.502  -0.909  0.00  0.00    +0.000 C 
ATOM     10  C   UNL     1      -4.531   1.584   0.116  0.00  0.00    +0.000 C 
ATOM     11  C   UNL     1      -3.082   1.960   0.335  0.00  0.00    +0.000 C 
ENDROOT
BRANCH   1  13
ATOM     12  O   UNL     1       1.690  -1.671   0.660  0.00  0.00    +0.000 OA
ATOM     13  C   UNL     1       1.186  -0.593   0.261  0.00  0.00    +0.000 C 
ATOM     14  N   UNL     1       1.978   0.296  -0.469  0.00  0.00    +0.000 NA
BRANCH  14  15
ATOM     15  C   UNL     1       3.326   0.113  -0.819  0.00  0.00    +0.000 A 
ATOM     16  C   UNL     1       3.951   1.104  -1.547  0.00  0.00    +0.000 A 
ATOM     17  C   UNL     1       5.276   0.970  -1.916  0.00  0.00    +0.000 A 
ATOM     18  C   UNL     1       5.988  -0.156  -1.560  0.00  0.00    +0.000 A 
ATOM     19  N   UNL     1       5.383  -1.115  -0.856  0.00  0.00    +0.000 NA
ATOM     20  C   UNL     1       4.090  -0.989  -0.493  0.00  0.00    +0.000 A 
ENDBRANCH  14  15
ENDBRANCH   1  13
TORSDOF 2
