REMARK  Name = 
REMARK  4 active torsions:
REMARK  status: ('A' for Active; 'I' for Inactive)
REMARK    1  A    between atoms: C_2  and  O_3
REMARK    2  A    between atoms: O_3  and  C_4
REMARK    3  A    between atoms: C_4  and  C_6
REMARK    4  A    between atoms: C_9  and  C_10
REMARK                            x       y       z     vdW  Elec       q    Type
REMARK                         _______ _______ _______ _____ _____    ______ ____
ROOT
ATOM      1  C   UNL     1       1.401   0.483  -0.501  0.00  0.00    +0.000 C 
ATOM      2  C   UNL     1       0.427   0.080  -1.234  0.00  0.00    +0.000 C 
ATOM      3  C   UNL     1       0.619  -1.256  -1.915  0.00  0.00    +0.000 C 
ATOM      4  C   UNL     1      -0.899   0.801  -1.493  0.00  0.00    +0.000 C 
ATOM      5  N   UNL     1      -0.834   2.083  -0.714  0.00  0.00    +0.000 NA
ATOM      6  C   UNL     1       0.202   2.502   0.061  0.00  0.00    +0.000 C 
ATOM      7  O   UNL     1       0.221   3.611   0.717  0.00  0.00    +0.000 OA
ATOM      8  N   UNL     1       1.356   1.710   0.190  0.00  0.00    +0.000 NA
ENDROOT
BRANCH   4   9
ATOM      9  C   UNL     1      -1.866  -0.015  -0.545  0.00  0.00    +0.000 A 
ATOM     10  C   UNL     1      -1.630  -1.288  -0.202  0.00  0.00    +0.000 A 
ATOM     11  C   UNL     1      -2.529  -1.965   0.647  0.00  0.00    +0.000 A 
ATOM     12  C   UNL     1      -3.650  -1.335   1.130  0.00  0.00    +0.000 A 
ATOM     13  F   UNL     1      -4.530  -1.992   1.959  0.00  0.00    +0.000 F 
ATOM     14  C   UNL     1      -3.879  -0.030   0.770  0.00  0.00    +0.000 A 
ATOM     15  C   UNL     1      -2.973   0.638  -0.079  0.00  0.00    +0.000 A 
ENDBRANCH   4   9
BRANCH   1  16
ATOM     16  C   UNL     1       2.647  -0.323  -0.333  0.00  0.00    +0.000 C 
ATOM     17  O   UNL     1       2.763  -1.427  -0.916  0.00  0.00    +0.000 OA
BRANCH  16  18
ATOM     18  O   UNL     1       3.654   0.163   0.466  0.00  0.00    +0.000 OA
BRANCH  18  20
ATOM     19  C   UNL     1       4.620  -1.895   1.310  0.00  0.00    +0.000 C 
ATOM     20  C   UNL     1       4.880  -0.544   0.681  0.00  0.00    +0.000 C 
ENDBRANCH  18  20
ENDBRANCH  16  18
ENDBRANCH   1  16
TORSDOF 4
