REMARK  Name = 
REMARK  1 active torsions:
REMARK  status: ('A' for Active; 'I' for Inactive)
REMARK    1  A    between atoms: N_2  and  C_3
REMARK                            x       y       z     vdW  Elec       q    Type
REMARK                         _______ _______ _______ _____ _____    ______ ____
ROOT
ATOM      1  C   UNL     1      -2.890  -0.840   0.180  0.00  0.00    +0.000 A 
ATOM      2  C   UNL     1      -2.646  -2.197   0.314  0.00  0.00    +0.000 A 
ATOM      3  C   UNL     1      -1.385  -2.709   0.124  0.00  0.00    +0.000 A 
ATOM      4  C   UNL     1      -0.296  -1.877  -0.212  0.00  0.00    +0.000 A 
ATOM      5  C   UNL     1      -0.559  -0.570  -0.335  0.00  0.00    +0.000 A 
ATOM      6  C   UNL     1      -1.815  -0.063  -0.145  0.00  0.00    +0.000 A 
ATOM      7  C   UNL     1      -1.962   1.489  -0.341  0.00  0.00    +0.000 C 
ATOM      8  C   UNL     1      -3.303   1.668   0.573  0.00  0.00    +0.000 C 
ATOM      9  C   UNL     1      -0.946   1.899   0.861  0.00  0.00    +0.000 C 
ATOM     10  C   UNL     1       0.381   1.338   0.678  0.00  0.00    +0.000 C 
ATOM     11  C   UNL     1       0.680   0.363   1.796  0.00  0.00    +0.000 C 
ATOM     12  C   UNL     1       1.480   2.358   0.551  0.00  0.00    +0.000 C 
ATOM     13  O   UNL     1       1.182   3.524   0.365  0.00  0.00    +0.000 OA
ATOM     14  N   UNL     1       2.766   1.766   0.675  0.00  0.00    +0.000 NA
ATOM     15  C   UNL     1       2.907   0.415   0.180  0.00  0.00    +0.000 A 
ATOM     16  C   UNL     1       4.116  -0.247   0.360  0.00  0.00    +0.000 A 
ATOM     17  C   UNL     1       4.268  -1.560  -0.019  0.00  0.00    +0.000 A 
ATOM     18  C   UNL     1       3.167  -2.173  -0.582  0.00  0.00    +0.000 A 
ATOM     19  C   UNL     1       1.967  -1.558  -0.776  0.00  0.00    +0.000 A 
ATOM     20  C   UNL     1       1.877  -0.252  -0.380  0.00  0.00    +0.000 A 
ATOM     21  C   UNL     1       0.509   0.505  -0.703  0.00  0.00    +0.000 C 
ENDROOT
BRANCH   1  23
ATOM     22  C   UNL     1      -5.336  -1.018   0.706  0.00  0.00    +0.000 C 
ATOM     23  N   UNL     1      -4.163  -0.261   0.363  0.00  0.00    +0.000 NA
ENDBRANCH   1  23
TORSDOF 1
