REMARK  Name = 
REMARK  2 active torsions:
REMARK  status: ('A' for Active; 'I' for Inactive)
REMARK    1  A    between atoms: C_6  and  C_8
REMARK    2  A    between atoms: C_16  and  C_17
REMARK                            x       y       z     vdW  Elec       q    Type
REMARK                         _______ _______ _______ _____ _____    ______ ____
ROOT
ATOM      1  C   UNL     1      -3.655  -0.582  -2.421  0.00  0.00    +0.000 C 
ATOM      2  C   UNL     1      -2.687  -0.186  -1.322  0.00  0.00    +0.000 A 
ATOM      3  N   UNL     1      -1.403  -0.327  -1.480  0.00  0.00    +0.000 NA
ATOM      4  C   UNL     1      -0.577   0.023  -0.514  0.00  0.00    +0.000 A 
ATOM      5  N   UNL     1       0.867  -0.050  -0.484  0.00  0.00    +0.000 NA
ATOM      6  C   UNL     1       1.597   0.371   0.642  0.00  0.00    +0.000 C 
ATOM      7  O   UNL     1       0.944   0.816   1.627  0.00  0.00    +0.000 OA
ATOM      8  S   UNL     1      -1.657   0.580   0.685  0.00  0.00    +0.000 S 
ATOM      9  C   UNL     1      -3.131   0.327  -0.139  0.00  0.00    +0.000 A 
ENDROOT
BRANCH   6  10
ATOM     10  C   UNL     1       3.043   0.282   0.632  0.00  0.00    +0.000 A 
ATOM     11  C   UNL     1       3.804   0.688   1.726  0.00  0.00    +0.000 A 
ATOM     12  C   UNL     1       5.174   0.579   1.657  0.00  0.00    +0.000 A 
ATOM     13  C   UNL     1       5.785   0.079   0.530  0.00  0.00    +0.000 A 
ATOM     14  C   UNL     1       5.046  -0.325  -0.554  0.00  0.00    +0.000 A 
ATOM     15  C   UNL     1       3.670  -0.217  -0.488  0.00  0.00    +0.000 A 
ATOM     16  O   UNL     1       2.887  -0.622  -1.583  0.00  0.00    +0.000 OA
ENDBRANCH   6  10
BRANCH   9  17
ATOM     17  C   UNL     1      -4.558   0.576   0.260  0.00  0.00    +0.000 C 
ATOM     18  C   UNL     1      -4.584   1.161   1.677  0.00  0.00    +0.000 C 
ATOM     19  C   UNL     1      -5.365  -0.702   0.207  0.00  0.00    +0.000 C 
ATOM     20  C   UNL     1      -5.201   1.607  -0.659  0.00  0.00    +0.000 C 
ENDBRANCH   9  17
TORSDOF 2
