REMARK  Name = 
REMARK  2 active torsions:
REMARK  status: ('A' for Active; 'I' for Inactive)
REMARK    1  A    between atoms: C_2  and  C_4
REMARK    2  A    between atoms: C_7  and  N_8
REMARK                            x       y       z     vdW  Elec       q    Type
REMARK                         _______ _______ _______ _____ _____    ______ ____
ROOT
ATOM      1  N   UNL     1      -0.097  -1.826   0.104  0.00  0.00    +0.000 NA
ATOM      2  C   UNL     1      -1.241  -0.941   0.059  0.00  0.00    +0.000 A 
ATOM      3  N   UNL     1      -2.521  -1.234   0.113  0.00  0.00    +0.000 NA
ATOM      4  C   UNL     1      -3.408  -0.288   0.057  0.00  0.00    +0.000 A 
ATOM      5  C   UNL     1      -4.814  -0.437   0.102  0.00  0.00    +0.000 A 
ATOM      6  C   UNL     1      -5.588   0.667   0.031  0.00  0.00    +0.000 A 
ATOM      7  C   UNL     1      -5.144   1.967  -0.084  0.00  0.00    +0.000 A 
ATOM      8  N   UNL     1      -3.789   2.089  -0.125  0.00  0.00    +0.000 NA
ATOM      9  C   UNL     1      -2.965   1.000  -0.057  0.00  0.00    +0.000 A 
ATOM     10  S   UNL     1      -1.268   0.770  -0.077  0.00  0.00    +0.000 S 
ENDROOT
BRANCH   1  14
ATOM     11  C   UNL     1       3.762  -0.198  -0.116  0.00  0.00    +0.000 A 
ATOM     12  C   UNL     1       2.664   0.625  -0.157  0.00  0.00    +0.000 A 
ATOM     13  C   UNL     1       1.397   0.053  -0.081  0.00  0.00    +0.000 A 
ATOM     14  C   UNL     1       1.213  -1.300   0.032  0.00  0.00    +0.000 A 
ATOM     15  C   UNL     1       2.313  -2.111   0.071  0.00  0.00    +0.000 A 
ATOM     16  C   UNL     1       3.602  -1.559  -0.003  0.00  0.00    +0.000 A 
BRANCH  11  18
ATOM     17  C   UNL     1       4.987   1.819  -0.805  0.00  0.00    +0.000 C 
ATOM     18  C   UNL     1       5.091   0.457  -0.199  0.00  0.00    +0.000 C 
ATOM     19  C   UNL     1       5.805   0.447   1.135  0.00  0.00    +0.000 C 
ENDBRANCH  11  18
ENDBRANCH   1  14
TORSDOF 2
