REMARK  Name = 
REMARK  4 active torsions:
REMARK  status: ('A' for Active; 'I' for Inactive)
REMARK    1  A    between atoms: C_2  and  N_3
REMARK    2  A    between atoms: C_6  and  C_7
REMARK    3  A    between atoms: C_13  and  O_14
REMARK    4  A    between atoms: O_14  and  C_15
REMARK                            x       y       z     vdW  Elec       q    Type
REMARK                         _______ _______ _______ _____ _____    ______ ____
ROOT
ATOM      1  C   UNL     1      -0.102  -1.647  -0.365  0.00  0.00    +0.000 A 
ATOM      2  C   UNL     1      -0.654  -2.876  -0.633  0.00  0.00    +0.000 A 
ATOM      3  N   UNL     1      -1.992  -2.753  -0.692  0.00  0.00    +0.000 NA
ATOM      4  C   UNL     1      -2.337  -1.474  -0.468  0.00  0.00    +0.000 A 
ATOM      5  C   UNL     1      -3.520  -0.770  -0.406  0.00  0.00    +0.000 A 
ATOM      6  C   UNL     1      -3.513   0.595  -0.145  0.00  0.00    +0.000 A 
ATOM      7  C   UNL     1      -2.333   1.284   0.059  0.00  0.00    +0.000 A 
ATOM      8  C   UNL     1      -1.169   0.581  -0.004  0.00  0.00    +0.000 A 
ATOM      9  C   UNL     1      -1.172  -0.790  -0.267  0.00  0.00    +0.000 A 
ENDROOT
BRANCH   1  13
ATOM     10  N   UNL     1       3.688   1.398   0.448  0.00  0.00    +0.000 NA
ATOM     11  C   UNL     1       3.044   0.129   0.167  0.00  0.00    +0.000 A 
ATOM     12  N   UNL     1       1.752  -0.112   0.042  0.00  0.00    +0.000 NA
ATOM     13  C   UNL     1       1.342  -1.316  -0.213  0.00  0.00    +0.000 A 
ATOM     14  C   UNL     1       2.305  -2.291  -0.341  0.00  0.00    +0.000 A 
ATOM     15  S   UNL     1       3.740  -1.407  -0.084  0.00  0.00    +0.000 S 
BRANCH  10  17
ATOM     16  C   UNL     1       5.632   0.460   1.630  0.00  0.00    +0.000 C 
ATOM     17  C   UNL     1       5.134   1.384   0.534  0.00  0.00    +0.000 C 
ENDBRANCH  10  17
ENDBRANCH   1  13
BRANCH   7  18
ATOM     18  O   UNL     1      -2.282   2.646   0.322  0.00  0.00    +0.000 OA
BRANCH  18  19
ATOM     19  C   UNL     1      -3.395   3.478   0.412  0.00  0.00    +0.000 C 
ATOM     20  C   UNL     1      -4.168   3.479  -0.869  0.00  0.00    +0.000 C 
ENDBRANCH  18  19
ENDBRANCH   7  18
TORSDOF 4
