REMARK  Name = 
REMARK  5 active torsions:
REMARK  status: ('A' for Active; 'I' for Inactive)
REMARK    1  A    between atoms: C_2  and  N_3
REMARK    2  A    between atoms: C_2  and  C_8
REMARK    3  A    between atoms: N_3  and  N_4
REMARK    4  A    between atoms: C_17  and  O_18
REMARK    5  A    between atoms: O_18  and  C_19
REMARK                            x       y       z     vdW  Elec       q    Type
REMARK                         _______ _______ _______ _____ _____    ______ ____
ROOT
ATOM      1  C   UNL     1       0.551  -0.201  -0.867  0.00  0.00    +0.000 A 
ATOM      2  C   UNL     1       0.940   1.137  -0.692  0.00  0.00    +0.000 A 
ATOM      3  C   UNL     1       0.121   2.051  -0.213  0.00  0.00    +0.000 A 
ATOM      4  C   UNL     1      -1.223   1.798   0.136  0.00  0.00    +0.000 A 
ATOM      5  C   UNL     1      -2.050   2.788   0.567  0.00  0.00    +0.000 A 
ATOM      6  C   UNL     1      -3.395   2.490   0.869  0.00  0.00    +0.000 A 
ATOM      7  C   UNL     1      -3.778   1.193   0.682  0.00  0.00    +0.000 A 
ATOM      8  C   UNL     1      -2.975   0.183   0.234  0.00  0.00    +0.000 A 
ATOM      9  C   UNL     1      -1.625   0.471  -0.039  0.00  0.00    +0.000 A 
ATOM     10  C   UNL     1      -0.725  -0.423  -0.513  0.00  0.00    +0.000 A 
ENDROOT
BRANCH   1  12
ATOM     11  C   UNL     1       1.155  -2.377  -1.782  0.00  0.00    +0.000 C 
ATOM     12  C   UNL     1       1.477  -1.167  -1.385  0.00  0.00    +0.000 C 
BRANCH  12  13
ATOM     13  N   UNL     1       2.899  -0.815  -1.488  0.00  0.00    +0.000 NA
BRANCH  13  14
ATOM     14  N   UNL     1       3.444  -0.755  -0.152  0.00  0.00    +0.000 NA
ATOM     15  C   UNL     1       3.842   0.448   0.404  0.00  0.00    +0.000 C 
ATOM     16  C   UNL     1       4.371   0.437   1.807  0.00  0.00    +0.000 C 
ATOM     17  O   UNL     1       3.827   1.545  -0.147  0.00  0.00    +0.000 OA
ENDBRANCH  13  14
ENDBRANCH  12  13
ENDBRANCH   1  12
BRANCH  10  18
ATOM     18  O   UNL     1      -1.279  -1.780  -0.612  0.00  0.00    +0.000 OA
BRANCH  18  19
ATOM     19  C   UNL     1      -1.705  -2.178   0.720  0.00  0.00    +0.000 C 
ATOM     20  F   UNL     1      -0.839  -2.518   1.619  0.00  0.00    +0.000 F 
ATOM     21  F   UNL     1      -3.031  -2.329   0.853  0.00  0.00    +0.000 F 
ENDBRANCH  18  19
ENDBRANCH  10  18
TORSDOF 5
