REMARK  Name = 
REMARK  2 active torsions:
REMARK  status: ('A' for Active; 'I' for Inactive)
REMARK    1  A    between atoms: C_2  and  N_4
REMARK    2  A    between atoms: C_6  and  C_7
REMARK                            x       y       z     vdW  Elec       q    Type
REMARK                         _______ _______ _______ _____ _____    ______ ____
ROOT
ATOM      1  N   UNL     1      -2.294   1.079   0.583  0.00  0.00    +0.000 N 
ATOM      2  C   UNL     1      -0.976   1.075   0.843  0.00  0.00    +0.000 A 
ATOM      3  C   UNL     1      -0.448  -0.172   0.590  0.00  0.00    +0.000 A 
ATOM      4  C   UNL     1      -1.547  -0.925   0.155  0.00  0.00    +0.000 A 
ATOM      5  C   UNL     1      -1.638  -2.242  -0.255  0.00  0.00    +0.000 A 
ATOM      6  C   UNL     1      -2.840  -2.766  -0.654  0.00  0.00    +0.000 A 
ATOM      7  C   UNL     1      -3.953  -1.978  -0.647  0.00  0.00    +0.000 A 
ATOM      8  C   UNL     1      -3.905  -0.669  -0.250  0.00  0.00    +0.000 A 
ATOM      9  C   UNL     1      -2.688  -0.151   0.151  0.00  0.00    +0.000 A 
ENDROOT
BRANCH   3  10
ATOM     10  C   UNL     1       0.873  -0.707   0.673  0.00  0.00    +0.000 C 
ATOM     11  C   UNL     1       2.009  -0.269   0.240  0.00  0.00    +0.000 C 
ATOM     12  C   UNL     1       3.175  -1.148   0.538  0.00  0.00    +0.000 C 
ATOM     13  O   UNL     1       3.054  -2.222   1.182  0.00  0.00    +0.000 OA
ATOM     14  N   UNL     1       4.450  -0.748   0.072  0.00  0.00    +0.000 NA
ATOM     15  C   UNL     1       4.672   0.441  -0.660  0.00  0.00    +0.000 C 
ATOM     16  S   UNL     1       6.221   0.755  -1.127  0.00  0.00    +0.000 S 
ATOM     17  N   UNL     1       3.588   1.319  -0.973  0.00  0.00    +0.000 NA
ATOM     18  C   UNL     1       2.265   0.944  -0.512  0.00  0.00    +0.000 C 
ATOM     19  O   UNL     1       1.277   1.684  -0.759  0.00  0.00    +0.000 OA
ENDBRANCH   3  10
BRANCH   1  21
ATOM     20  C   UNL     1      -3.868   2.592  -0.572  0.00  0.00    +0.000 C 
ATOM     21  C   UNL     1      -3.211   2.197   0.733  0.00  0.00    +0.000 C 
ATOM     22  C   UNL     1      -4.215   1.911   1.829  0.00  0.00    +0.000 C 
ENDBRANCH   1  21
TORSDOF 2
