REMARK  Name = 
REMARK  4 active torsions:
REMARK  status: ('A' for Active; 'I' for Inactive)
REMARK    1  A    between atoms: C_2  and  C_4
REMARK    2  A    between atoms: C_7  and  C_8
REMARK    3  A    between atoms: N_9  and  C_10
REMARK    4  A    between atoms: C_15  and  C_16
REMARK                            x       y       z     vdW  Elec       q    Type
REMARK                         _______ _______ _______ _____ _____    ______ ____
ROOT
ATOM      1  C   UNL     1      -0.390  -0.170   0.887  0.00  0.00    +0.000 C 
ATOM      2  N   UNL     1      -0.975  -0.752  -0.080  0.00  0.00    +0.000 NA
ENDROOT
BRANCH   1   6
ATOM      3  C   UNL     1       3.824   0.548   0.655  0.00  0.00    +0.000 A 
ATOM      4  C   UNL     1       3.095   0.939   1.762  0.00  0.00    +0.000 A 
ATOM      5  C   UNL     1       1.736   0.709   1.840  0.00  0.00    +0.000 A 
ATOM      6  C   UNL     1       1.049   0.090   0.838  0.00  0.00    +0.000 A 
ATOM      7  C   UNL     1       1.774  -0.306  -0.278  0.00  0.00    +0.000 A 
ATOM      8  C   UNL     1       3.132  -0.078  -0.360  0.00  0.00    +0.000 A 
BRANCH   3  10
ATOM      9  C   UNL     1       6.010  -0.490   0.237  0.00  0.00    +0.000 C 
ATOM     10  C   UNL     1       5.287   0.783   0.545  0.00  0.00    +0.000 C 
ATOM     11  C   UNL     1       5.575   1.881  -0.466  0.00  0.00    +0.000 C 
ENDBRANCH   3  10
ENDBRANCH   1   6
BRANCH   2  12
ATOM     12  C   UNL     1      -2.365  -1.044  -0.119  0.00  0.00    +0.000 A 
ATOM     13  C   UNL     1      -2.920  -2.202   0.373  0.00  0.00    +0.000 A 
ATOM     14  C   UNL     1      -4.270  -2.483   0.334  0.00  0.00    +0.000 A 
ATOM     15  C   UNL     1      -5.091  -1.533  -0.237  0.00  0.00    +0.000 A 
ATOM     16  C   UNL     1      -4.577  -0.363  -0.741  0.00  0.00    +0.000 A 
ATOM     17  C   UNL     1      -3.211  -0.110  -0.686  0.00  0.00    +0.000 A 
BRANCH  17  18
ATOM     18  C   UNL     1      -2.686   1.143  -1.229  0.00  0.00    +0.000 C 
ATOM     19  N   UNL     1      -3.556   2.084  -1.802  0.00  0.00    +0.000 NA
ATOM     20  O   UNL     1      -1.443   1.355  -1.170  0.00  0.00    +0.000 OA
ENDBRANCH  17  18
ENDBRANCH   2  12
TORSDOF 4
