REMARK  Name = 
REMARK  4 active torsions:
REMARK  status: ('A' for Active; 'I' for Inactive)
REMARK    1  A    between atoms: C_2  and  C_4
REMARK    2  A    between atoms: C_4  and  C_5
REMARK    3  A    between atoms: N_7  and  C_8
REMARK    4  A    between atoms: C_11  and  N_12
REMARK                            x       y       z     vdW  Elec       q    Type
REMARK                         _______ _______ _______ _____ _____    ______ ____
ROOT
ATOM      1  C   UNL     1      -2.420  -0.330  -0.918  0.00  0.00    +0.000 A 
ATOM      2  N   UNL     1      -1.238   0.205  -1.220  0.00  0.00    +0.000 NA
ATOM      3  N   UNL     1      -0.343  -0.253  -0.361  0.00  0.00    +0.000 N 
ATOM      4  C   UNL     1      -0.919  -1.091   0.515  0.00  0.00    +0.000 A 
ATOM      5  C   UNL     1      -2.259  -1.154   0.173  0.00  0.00    +0.000 A 
ATOM      6  C   UNL     1      -2.975  -2.060   1.090  0.00  0.00    +0.000 C 
ATOM      7  C   UNL     1      -2.005  -2.273   2.227  0.00  0.00    +0.000 C 
ATOM      8  N   UNL     1      -0.713  -1.938   1.647  0.00  0.00    +0.000 NA
ENDROOT
BRANCH   3   9
ATOM      9  C   UNL     1       1.045   0.084  -0.352  0.00  0.00    +0.000 A 
ATOM     10  C   UNL     1       1.692   0.437   0.816  0.00  0.00    +0.000 A 
ATOM     11  C   UNL     1       3.027   0.767   0.842  0.00  0.00    +0.000 A 
ATOM     12  C   UNL     1       3.782   0.758  -0.315  0.00  0.00    +0.000 A 
ATOM     13  C   UNL     1       3.144   0.409  -1.473  0.00  0.00    +0.000 A 
ATOM     14  C   UNL     1       1.807   0.077  -1.504  0.00  0.00    +0.000 A 
BRANCH  12  15
ATOM     15  N   UNL     1       5.175   1.087  -0.328  0.00  0.00    +0.000 N 
ATOM     16  O   UNL     1       5.740   1.409   0.727  0.00  0.00    +0.000 OA
ATOM     17  O   UNL     1       5.851   1.040  -1.501  0.00  0.00    +0.000 OA
ENDBRANCH  12  15
ENDBRANCH   3   9
BRANCH   1  18
ATOM     18  C   UNL     1      -3.728  -0.088  -1.620  0.00  0.00    +0.000 C 
BRANCH  18  20
ATOM     19  C   UNL     1      -5.850   1.245  -1.274  0.00  0.00    +0.000 C 
ATOM     20  C   UNL     1      -4.506   0.856  -0.786  0.00  0.00    +0.000 C 
ATOM     21  C   UNL     1      -4.307   0.811   0.678  0.00  0.00    +0.000 C 
ENDBRANCH  18  20
ENDBRANCH   1  18
TORSDOF 4
