REMARK  Name = 
REMARK  4 active torsions:
REMARK  status: ('A' for Active; 'I' for Inactive)
REMARK    1  A    between atoms: C_2  and  C_3
REMARK    2  A    between atoms: C_3  and  C_4
REMARK    3  A    between atoms: C_4  and  C_5
REMARK    4  A    between atoms: C_7  and  C_8
REMARK                            x       y       z     vdW  Elec       q    Type
REMARK                         _______ _______ _______ _____ _____    ______ ____
ROOT
ATOM      1  C   UNL     1      -0.306   0.322   0.086  0.00  0.00    +0.000 C 
ATOM      2  C   UNL     1      -1.494  -0.171   0.046  0.00  0.00    +0.000 C 
ATOM      3  C   UNL     1      -1.943  -1.547  -0.118  0.00  0.00    +0.000 C 
ATOM      4  O   UNL     1      -1.186  -2.547  -0.254  0.00  0.00    +0.000 OA
ATOM      5  N   UNL     1      -3.386  -1.505  -0.090  0.00  0.00    +0.000 NA
ATOM      6  C   UNL     1      -3.801  -0.136   0.087  0.00  0.00    +0.000 A 
ATOM      7  C   UNL     1      -5.083   0.428   0.179  0.00  0.00    +0.000 A 
ATOM      8  C   UNL     1      -5.194   1.794   0.355  0.00  0.00    +0.000 A 
ATOM      9  C   UNL     1      -4.098   2.625   0.443  0.00  0.00    +0.000 A 
ATOM     10  C   UNL     1      -2.849   2.053   0.349  0.00  0.00    +0.000 A 
ATOM     11  C   UNL     1      -2.701   0.679   0.172  0.00  0.00    +0.000 A 
ENDROOT
BRANCH   1  14
ATOM     12  C   UNL     1       3.075  -0.497  -0.751  0.00  0.00    +0.000 A 
ATOM     13  N   UNL     1       1.950   0.219  -0.810  0.00  0.00    +0.000 NA
ATOM     14  C   UNL     1       0.975  -0.310  -0.016  0.00  0.00    +0.000 A 
ATOM     15  C   UNL     1       1.547  -1.403   0.548  0.00  0.00    +0.000 A 
ATOM     16  N   UNL     1       2.811  -1.506   0.099  0.00  0.00    +0.000 NA
BRANCH  12  17
ATOM     17  C   UNL     1       4.358  -0.234  -1.500  0.00  0.00    +0.000 C 
BRANCH  17  18
ATOM     18  C   UNL     1       5.258   0.705  -0.736  0.00  0.00    +0.000 C 
BRANCH  18  20
ATOM     19  C   UNL     1       6.486   0.948   1.455  0.00  0.00    +0.000 C 
ATOM     20  C   UNL     1       5.582   0.081   0.600  0.00  0.00    +0.000 C 
ENDBRANCH  18  20
ENDBRANCH  17  18
ENDBRANCH  12  17
ENDBRANCH   1  14
TORSDOF 4
