REMARK  Name = 
REMARK  3 active torsions:
REMARK  status: ('A' for Active; 'I' for Inactive)
REMARK    1  A    between atoms: C_2  and  C_14
REMARK    2  A    between atoms: N_3  and  C_4
REMARK    3  A    between atoms: C_9  and  N_10
REMARK                            x       y       z     vdW  Elec       q    Type
REMARK                         _______ _______ _______ _____ _____    ______ ____
ROOT
ATOM      1  C   UNL     1       0.593  -0.056   0.354  0.00  0.00    +0.000 A 
ATOM      2  C   UNL     1       0.636   1.287   0.632  0.00  0.00    +0.000 A 
ATOM      3  C   UNL     1       1.819   2.007   0.493  0.00  0.00    +0.000 A 
ATOM      4  C   UNL     1       2.986   1.404   0.073  0.00  0.00    +0.000 A 
ATOM      5 CL   UNL     1       4.486   2.318  -0.104  0.00  0.00    +0.000 Cl
ATOM      6  C   UNL     1       2.940   0.055  -0.206  0.00  0.00    +0.000 A 
ATOM      7  C   UNL     1       1.760  -0.658  -0.066  0.00  0.00    +0.000 A 
ENDROOT
BRANCH   1  10
ATOM      8  O   UNL     1      -1.872   0.859   1.171  0.00  0.00    +0.000 OA
ATOM      9  C   UNL     1      -1.823  -0.367   0.892  0.00  0.00    +0.000 C 
ATOM     10  N   UNL     1      -0.565  -0.872   0.467  0.00  0.00    +0.000 NA
BRANCH   9  11
ATOM     11  C   UNL     1      -3.022  -1.266   0.996  0.00  0.00    +0.000 C 
ATOM     12  C   UNL     1      -4.181  -0.384   1.478  0.00  0.00    +0.000 C 
ATOM     13  C   UNL     1      -4.237   0.772   0.470  0.00  0.00    +0.000 C 
ATOM     14  C   UNL     1      -4.870   0.183  -0.783  0.00  0.00    +0.000 C 
ATOM     15  C   UNL     1      -4.802  -1.339  -0.774  0.00  0.00    +0.000 C 
ATOM     16  C   UNL     1      -3.392  -1.716  -0.398  0.00  0.00    +0.000 C 
ENDBRANCH   9  11
ENDBRANCH   1  10
BRANCH   6  17
ATOM     17  N   UNL     1       4.127  -0.590  -0.639  0.00  0.00    +0.000 N 
ATOM     18  O   UNL     1       4.347  -1.800  -0.447  0.00  0.00    +0.000 OA
ATOM     19  O   UNL     1       5.067   0.161  -1.297  0.00  0.00    +0.000 OA
ENDBRANCH   6  17
TORSDOF 3
