REMARK  Name = 
REMARK  2 active torsions:
REMARK  status: ('A' for Active; 'I' for Inactive)
REMARK    1  A    between atoms: C_2  and  C_17
REMARK    2  A    between atoms: N_3  and  C_4
REMARK                            x       y       z     vdW  Elec       q    Type
REMARK                         _______ _______ _______ _____ _____    ______ ____
ROOT
ATOM      1  C   UNL     1       0.660  -1.201   0.221  0.00  0.00    +0.000 A 
ATOM      2  C   UNL     1       0.164  -2.479   0.367  0.00  0.00    +0.000 A 
ATOM      3  C   UNL     1      -1.164  -2.788   0.158  0.00  0.00    +0.000 A 
ATOM      4  C   UNL     1      -2.064  -1.811  -0.212  0.00  0.00    +0.000 A 
ATOM      5  N   UNL     1      -3.392  -1.809  -0.480  0.00  0.00    +0.000 NA
ATOM      6  C   UNL     1      -3.802  -0.570  -0.801  0.00  0.00    +0.000 A 
ATOM      7  C   UNL     1      -2.688   0.234  -0.731  0.00  0.00    +0.000 A 
ATOM      8  C   UNL     1      -1.588  -0.526  -0.363  0.00  0.00    +0.000 A 
ATOM      9  C   UNL     1      -0.246  -0.228  -0.149  0.00  0.00    +0.000 A 
ATOM     10  C   UNL     1      -2.736   1.707  -1.024  0.00  0.00    +0.000 C 
ATOM     11  C   UNL     1      -4.180   2.139  -0.885  0.00  0.00    +0.000 C 
ATOM     12  C   UNL     1      -4.997   1.265  -1.847  0.00  0.00    +0.000 C 
ATOM     13  C   UNL     1      -5.155  -0.070  -1.171  0.00  0.00    +0.000 C 
ENDROOT
BRANCH   1  16
ATOM     14  O   UNL     1       1.666   1.293  -0.055  0.00  0.00    +0.000 OA
ATOM     15  C   UNL     1       2.507   0.422   0.282  0.00  0.00    +0.000 C 
ATOM     16  N   UNL     1       2.040  -0.909   0.444  0.00  0.00    +0.000 NA
BRANCH  15  17
ATOM     17  C   UNL     1       3.894   0.799   0.490  0.00  0.00    +0.000 A 
ATOM     18  C   UNL     1       4.458   2.039   0.366  0.00  0.00    +0.000 A 
ATOM     19  C   UNL     1       5.804   1.932   0.658  0.00  0.00    +0.000 A 
ATOM     20  C   UNL     1       5.980   0.588   0.952  0.00  0.00    +0.000 A 
ATOM     21  O   UNL     1       4.838  -0.029   0.840  0.00  0.00    +0.000 OA
ENDBRANCH  15  17
ENDBRANCH   1  16
TORSDOF 2
