REMARK  Name = 
REMARK  3 active torsions:
REMARK  status: ('A' for Active; 'I' for Inactive)
REMARK    1  A    between atoms: C_2  and  C_11
REMARK    2  A    between atoms: N_3  and  N_4
REMARK    3  A    between atoms: N_4  and  C_5
REMARK                            x       y       z     vdW  Elec       q    Type
REMARK                         _______ _______ _______ _____ _____    ______ ____
ROOT
ATOM      1  O   UNL     1       0.081   1.538   0.301  0.00  0.00    +0.000 OA
ATOM      2  C   UNL     1      -0.656   0.545   0.028  0.00  0.00    +0.000 C 
ATOM      3  N   UNL     1      -0.159  -0.564  -0.648  0.00  0.00    +0.000 NA
ENDROOT
BRANCH   2   4
ATOM      4  C   UNL     1      -2.054   0.619   0.457  0.00  0.00    +0.000 A 
ATOM      5  C   UNL     1      -2.582   1.757   1.018  0.00  0.00    +0.000 A 
ATOM      6  C   UNL     1      -3.906   1.799   1.409  0.00  0.00    +0.000 A 
ATOM      7  C   UNL     1      -4.693   0.682   1.222  0.00  0.00    +0.000 A 
ATOM      8  C   UNL     1      -4.153  -0.464   0.653  0.00  0.00    +0.000 A 
ATOM      9  C   UNL     1      -2.836  -0.506   0.266  0.00  0.00    +0.000 A 
ATOM     10 BR   UNL     1      -2.066  -2.086  -0.524  0.00  0.00    +0.000 Br
ENDBRANCH   2   4
BRANCH   3  11
ATOM     11  N   UNL     1       1.092  -0.762  -1.089  0.00  0.00    +0.000 NA
BRANCH  11  12
ATOM     12  C   UNL     1       2.314  -0.142  -0.836  0.00  0.00    +0.000 C 
ATOM     13  C   UNL     1       3.176   0.194  -1.803  0.00  0.00    +0.000 C 
ATOM     14  C   UNL     1       4.463   0.850  -1.410  0.00  0.00    +0.000 C 
ATOM     15  C   UNL     1       5.086  -0.060  -0.359  0.00  0.00    +0.000 C 
ATOM     16  C   UNL     1       4.158  -0.362   0.772  0.00  0.00    +0.000 C 
ATOM     17  C   UNL     1       2.735   0.176   0.543  0.00  0.00    +0.000 C 
ENDBRANCH  11  12
ENDBRANCH   3  11
TORSDOF 3
