REMARK  Name = 
REMARK  2 active torsions:
REMARK  status: ('A' for Active; 'I' for Inactive)
REMARK    1  A    between atoms: C_4  and  C_5
REMARK    2  A    between atoms: C_5  and  C_6
REMARK                            x       y       z     vdW  Elec       q    Type
REMARK                         _______ _______ _______ _____ _____    ______ ____
ROOT
ATOM      1  C   UNL     1      -0.009  -1.186   1.069  0.00  0.00    +0.000 C 
ENDROOT
BRANCH   1   5
ATOM      2  C   UNL     1      -4.389   1.191   0.994  0.00  0.00    +0.000 C 
ATOM      3  C   UNL     1      -3.331   0.368   0.311  0.00  0.00    +0.000 A 
ATOM      4  C   UNL     1      -2.185  -0.019   0.969  0.00  0.00    +0.000 A 
ATOM      5  C   UNL     1      -1.212  -0.787   0.319  0.00  0.00    +0.000 A 
ATOM      6  C   UNL     1      -1.435  -1.144  -0.996  0.00  0.00    +0.000 A 
ATOM      7  C   UNL     1      -0.369  -1.961  -1.643  0.00  0.00    +0.000 C 
ATOM      8  C   UNL     1      -2.575  -0.751  -1.631  0.00  0.00    +0.000 A 
ATOM      9  C   UNL     1      -3.546   0.007  -1.006  0.00  0.00    +0.000 A 
ATOM     10  N   UNL     1      -4.738   0.427  -1.646  0.00  0.00    +0.000 NA
ENDBRANCH   1   5
BRANCH   1  11
ATOM     11  C   UNL     1       1.208  -0.410   0.718  0.00  0.00    +0.000 A 
ATOM     12  C   UNL     1       2.194  -0.978  -0.077  0.00  0.00    +0.000 A 
ATOM     13  C   UNL     1       3.337  -0.343  -0.439  0.00  0.00    +0.000 A 
ATOM     14  C   UNL     1       4.391  -0.973  -1.297  0.00  0.00    +0.000 C 
ATOM     15  C   UNL     1       3.525   0.952   0.013  0.00  0.00    +0.000 A 
ATOM     16  N   UNL     1       4.738   1.625  -0.378  0.00  0.00    +0.000 NA
ATOM     17  C   UNL     1       2.584   1.577   0.805  0.00  0.00    +0.000 A 
ATOM     18  C   UNL     1       1.433   0.887   1.152  0.00  0.00    +0.000 A 
ATOM     19  C   UNL     1       0.380   1.519   2.004  0.00  0.00    +0.000 C 
ENDBRANCH   1  11
TORSDOF 2
