REMARK  Name = 
REMARK  2 active torsions:
REMARK  status: ('A' for Active; 'I' for Inactive)
REMARK    1  A    between atoms: C_7  and  N_8
REMARK    2  A    between atoms: C_9  and  C_11
REMARK                            x       y       z     vdW  Elec       q    Type
REMARK                         _______ _______ _______ _____ _____    ______ ____
ROOT
ATOM      1  N   UNL     1      -0.130  -0.317  -0.129  0.00  0.00    +0.000 NA
ATOM      2  C   UNL     1       0.837   0.699   0.068  0.00  0.00    +0.000 C 
ATOM      3  O   UNL     1       0.430   1.853   0.336  0.00  0.00    +0.000 OA
ENDROOT
BRANCH   1  10
ATOM      4  C   UNL     1      -4.771  -1.867  -0.335  0.00  0.00    +0.000 C 
ATOM      5  C   UNL     1      -3.818  -0.775  -0.121  0.00  0.00    +0.000 A 
ATOM      6  C   UNL     1      -4.282   0.483   0.172  0.00  0.00    +0.000 A 
ATOM      7  O   UNL     1      -5.653   0.678   0.257  0.00  0.00    +0.000 OA
ATOM      8  C   UNL     1      -3.359   1.484   0.367  0.00  0.00    +0.000 A 
ATOM      9  C   UNL     1      -2.003   1.228   0.270  0.00  0.00    +0.000 A 
ATOM     10  C   UNL     1      -1.544  -0.039  -0.025  0.00  0.00    +0.000 A 
ATOM     11  C   UNL     1      -2.466  -1.031  -0.218  0.00  0.00    +0.000 A 
ATOM     12  C   UNL     1      -1.992  -2.415  -0.540  0.00  0.00    +0.000 C 
ENDBRANCH   1  10
BRANCH   2  13
ATOM     13  C   UNL     1       2.260   0.399  -0.042  0.00  0.00    +0.000 A 
ATOM     14  C   UNL     1       3.236   1.357   0.142  0.00  0.00    +0.000 A 
ATOM     15  C   UNL     1       4.584   1.081   0.041  0.00  0.00    +0.000 A 
ATOM     16  C   UNL     1       5.019  -0.194  -0.256  0.00  0.00    +0.000 A 
ATOM     17 BR   UNL     1       6.886  -0.591  -0.400  0.00  0.00    +0.000 Br
ATOM     18  C   UNL     1       4.055  -1.163  -0.443  0.00  0.00    +0.000 A 
ATOM     19  C   UNL     1       2.711  -0.871  -0.338  0.00  0.00    +0.000 A 
ENDBRANCH   2  13
TORSDOF 2
