REMARK  Name = 
REMARK  4 active torsions:
REMARK  status: ('A' for Active; 'I' for Inactive)
REMARK    1  A    between atoms: C_3  and  C_4
REMARK    2  A    between atoms: N_6  and  C_7
REMARK    3  A    between atoms: C_12  and  C_13
REMARK    4  A    between atoms: C_19  and  N_20
REMARK                            x       y       z     vdW  Elec       q    Type
REMARK                         _______ _______ _______ _____ _____    ______ ____
ROOT
ATOM      1  C   UNL     1       0.072   0.581   0.613  0.00  0.00    +0.000 C 
ATOM      2  O   UNL     1       0.159   1.808   0.814  0.00  0.00    +0.000 OA
ATOM      3  N   UNL     1      -1.084  -0.024   0.069  0.00  0.00    +0.000 NA
ENDROOT
BRANCH   1   6
ATOM      4  C   UNL     1       2.520   1.188  -0.534  0.00  0.00    +0.000 C 
ATOM      5  C   UNL     1       2.448  -0.002   0.349  0.00  0.00    +0.000 A 
ATOM      6  C   UNL     1       1.215  -0.284   0.938  0.00  0.00    +0.000 A 
ATOM      7  C   UNL     1       1.106  -1.378   1.754  0.00  0.00    +0.000 A 
ATOM      8  C   UNL     1       2.220  -2.169   1.952  0.00  0.00    +0.000 A 
ATOM      9  C   UNL     1       3.438  -1.907   1.368  0.00  0.00    +0.000 A 
ATOM     10  C   UNL     1       3.551  -0.818   0.567  0.00  0.00    +0.000 A 
BRANCH  10  11
ATOM     11  N   UNL     1       4.795  -0.538  -0.073  0.00  0.00    +0.000 N 
ATOM     12  O   UNL     1       5.818  -0.930   0.447  0.00  0.00    +0.000 OA
ATOM     13  O   UNL     1       4.785   0.162  -1.239  0.00  0.00    +0.000 OA
ENDBRANCH  10  11
ENDBRANCH   1   6
BRANCH   3  14
ATOM     14  C   UNL     1      -2.189   0.821  -0.296  0.00  0.00    +0.000 A 
ATOM     15  C   UNL     1      -2.212   2.184  -0.109  0.00  0.00    +0.000 A 
ATOM     16  C   UNL     1      -3.334   2.893  -0.586  0.00  0.00    +0.000 A 
ATOM     17  C   UNL     1      -4.361   2.236  -1.216  0.00  0.00    +0.000 A 
ATOM     18  C   UNL     1      -4.370   0.846  -1.424  0.00  0.00    +0.000 A 
ATOM     19  C   UNL     1      -3.229   0.205  -0.923  0.00  0.00    +0.000 A 
BRANCH  19  20
ATOM     20  C   UNL     1      -3.230  -1.295  -0.979  0.00  0.00    +0.000 C 
ATOM     21  C   UNL     1      -3.921  -1.800  -2.256  0.00  0.00    +0.000 C 
ATOM     22  C   UNL     1      -4.197  -1.776   0.160  0.00  0.00    +0.000 C 
ENDBRANCH  19  20
ENDBRANCH   3  14
TORSDOF 4
