REMARK  Name = 
REMARK  3 active torsions:
REMARK  status: ('A' for Active; 'I' for Inactive)
REMARK    1  A    between atoms: C_2  and  N_5
REMARK    2  A    between atoms: C_7  and  C_8
REMARK    3  A    between atoms: C_15  and  C_16
REMARK                            x       y       z     vdW  Elec       q    Type
REMARK                         _______ _______ _______ _____ _____    ______ ____
ROOT
ATOM      1  N   UNL     1      -2.127  -0.305   0.311  0.00  0.00    +0.000 N 
ATOM      2  N   UNL     1      -0.939  -0.768   0.628  0.00  0.00    +0.000 NA
ATOM      3  C   UNL     1       0.015  -0.041   0.018  0.00  0.00    +0.000 A 
ATOM      4  C   UNL     1      -0.621   0.948  -0.734  0.00  0.00    +0.000 A 
ATOM      5  C   UNL     1      -1.971   0.753  -0.526  0.00  0.00    +0.000 A 
ATOM      6  N   UNL     1      -2.994   1.560  -1.120  0.00  0.00    +0.000 NA
ENDROOT
BRANCH   3   7
ATOM      7  C   UNL     1       1.454  -0.196   0.082  0.00  0.00    +0.000 A 
ATOM      8  C   UNL     1       2.279  -0.147  -1.022  0.00  0.00    +0.000 A 
ATOM      9  C   UNL     1       3.645  -0.301  -0.905  0.00  0.00    +0.000 A 
ATOM     10  C   UNL     1       4.242  -0.513   0.334  0.00  0.00    +0.000 A 
ATOM     11 CL   UNL     1       5.974  -0.705   0.452  0.00  0.00    +0.000 Cl
ATOM     12  C   UNL     1       3.429  -0.564   1.444  0.00  0.00    +0.000 A 
ATOM     13  C   UNL     1       2.059  -0.406   1.302  0.00  0.00    +0.000 A 
ENDBRANCH   3   7
BRANCH   1  15
ATOM     14  C   UNL     1      -4.483   0.183   0.802  0.00  0.00    +0.000 C 
ATOM     15  C   UNL     1      -3.386  -0.841   0.783  0.00  0.00    +0.000 C 
ATOM     16  C   UNL     1      -3.797  -1.923  -0.205  0.00  0.00    +0.000 C 
ATOM     17  C   UNL     1      -3.165  -1.484   2.141  0.00  0.00    +0.000 C 
ENDBRANCH   1  15
BRANCH   4  18
ATOM     18  C   UNL     1      -0.037   1.963  -1.554  0.00  0.00    +0.000 C 
ATOM     19  N   UNL     1       0.424   2.787  -2.232  0.00  0.00    +0.000 NA
ENDBRANCH   4  18
TORSDOF 3
