REMARK  Name = 
REMARK  3 active torsions:
REMARK  status: ('A' for Active; 'I' for Inactive)
REMARK    1  A    between atoms: C_4  and  C_5
REMARK    2  A    between atoms: N_7  and  C_8
REMARK    3  A    between atoms: C_18  and  N_19
REMARK                            x       y       z     vdW  Elec       q    Type
REMARK                         _______ _______ _______ _____ _____    ______ ____
ROOT
ATOM      1  C   UNL     1      -0.503   0.353   0.703  0.00  0.00    +0.000 C 
ATOM      2  O   UNL     1      -0.887   1.099   1.637  0.00  0.00    +0.000 OA
ATOM      3  N   UNL     1      -1.447  -0.465   0.080  0.00  0.00    +0.000 NA
ENDROOT
BRANCH   3   4
ATOM      4  C   UNL     1      -2.816  -0.549   0.390  0.00  0.00    +0.000 A 
ATOM      5  C   UNL     1      -3.321  -1.428   1.314  0.00  0.00    +0.000 A 
ATOM      6  C   UNL     1      -2.365  -2.321   2.006  0.00  0.00    +0.000 C 
ATOM      7  C   UNL     1      -4.673  -1.437   1.550  0.00  0.00    +0.000 A 
ATOM      8  C   UNL     1      -5.574  -0.612   0.915  0.00  0.00    +0.000 A 
ATOM      9  C   UNL     1      -5.052   0.270  -0.015  0.00  0.00    +0.000 A 
ATOM     10  C   UNL     1      -3.686   0.296  -0.270  0.00  0.00    +0.000 A 
ATOM     11  C   UNL     1      -3.171   1.259  -1.276  0.00  0.00    +0.000 C 
ENDBRANCH   3   4
BRANCH   1  15
ATOM     12  C   UNL     1       3.373  -1.151  -2.087  0.00  0.00    +0.000 C 
ATOM     13  C   UNL     1       2.773  -0.318  -0.995  0.00  0.00    +0.000 A 
ATOM     14  C   UNL     1       1.434  -0.378  -0.669  0.00  0.00    +0.000 A 
ATOM     15  C   UNL     1       0.911   0.408   0.350  0.00  0.00    +0.000 A 
ATOM     16  C   UNL     1       1.802   1.235   0.998  0.00  0.00    +0.000 A 
ATOM     17  C   UNL     1       3.138   1.301   0.678  0.00  0.00    +0.000 A 
ATOM     18  C   UNL     1       3.645   0.523  -0.326  0.00  0.00    +0.000 A 
BRANCH  18  19
ATOM     19  N   UNL     1       5.032   0.601  -0.647  0.00  0.00    +0.000 N 
ATOM     20  O   UNL     1       5.613  -0.419  -1.073  0.00  0.00    +0.000 OA
ATOM     21  O   UNL     1       5.774   1.734  -0.517  0.00  0.00    +0.000 OA
ENDBRANCH  18  19
ENDBRANCH   1  15
TORSDOF 3
