REMARK  Name = 
REMARK  4 active torsions:
REMARK  status: ('A' for Active; 'I' for Inactive)
REMARK    1  A    between atoms: C_2  and  C_3
REMARK    2  A    between atoms: C_3  and  N_4
REMARK    3  A    between atoms: N_4  and  C_5
REMARK    4  A    between atoms: N_12  and  N_13
REMARK                            x       y       z     vdW  Elec       q    Type
REMARK                         _______ _______ _______ _____ _____    ______ ____
ROOT
ATOM      1  O   UNL     1      -0.456  -0.700   0.893  0.00  0.00    +0.000 OA
ATOM      2  C   UNL     1       0.065  -1.297  -0.082  0.00  0.00    +0.000 C 
ATOM      3  N   UNL     1       1.436  -1.047  -0.337  0.00  0.00    +0.000 NA
ENDROOT
BRANCH   3   4
ATOM      4  N   UNL     1       2.140  -0.166   0.487  0.00  0.00    +0.000 NA
ATOM      5  C   UNL     1       3.228   0.407   0.106  0.00  0.00    +0.000 C 
ATOM      6  C   UNL     1       3.848   0.201  -1.227  0.00  0.00    +0.000 C 
ATOM      7  C   UNL     1       5.324   0.026  -1.022  0.00  0.00    +0.000 C 
ATOM      8  C   UNL     1       5.970   1.208  -0.373  0.00  0.00    +0.000 C 
ATOM      9  C   UNL     1       5.027   2.088   0.383  0.00  0.00    +0.000 C 
ATOM     10  C   UNL     1       3.905   1.328   1.052  0.00  0.00    +0.000 C 
ENDBRANCH   3   4
BRANCH   2  11
ATOM     11  C   UNL     1      -0.734  -2.240  -0.944  0.00  0.00    +0.000 C 
BRANCH  11  12
ATOM     12  N   UNL     1      -2.067  -2.276  -0.436  0.00  0.00    +0.000 NA
BRANCH  12  13
ATOM     13  C   UNL     1      -2.896  -1.114  -0.372  0.00  0.00    +0.000 A 
ATOM     14  C   UNL     1      -2.460   0.118  -0.812  0.00  0.00    +0.000 A 
ATOM     15  C   UNL     1      -3.266   1.237  -0.748  0.00  0.00    +0.000 A 
ATOM     16  C   UNL     1      -4.547   1.181  -0.242  0.00  0.00    +0.000 A 
ATOM     17  F   UNL     1      -5.356   2.266  -0.169  0.00  0.00    +0.000 F 
ATOM     18  C   UNL     1      -4.983  -0.051   0.198  0.00  0.00    +0.000 A 
ATOM     19  C   UNL     1      -4.178  -1.170   0.135  0.00  0.00    +0.000 A 
ENDBRANCH  12  13
ENDBRANCH  11  12
ENDBRANCH   2  11
TORSDOF 4
