REMARK  Name = 
REMARK  1 active torsions:
REMARK  status: ('A' for Active; 'I' for Inactive)
REMARK    1  A    between atoms: N_6  and  C_7
REMARK                            x       y       z     vdW  Elec       q    Type
REMARK                         _______ _______ _______ _____ _____    ______ ____
ROOT
ATOM      1  C   UNL     1      -1.096  -3.041   0.859  0.00  0.00    +0.000 C 
ATOM      2  C   UNL     1      -0.064  -1.997   0.657  0.00  0.00    +0.000 A 
ATOM      3  C   UNL     1       1.292  -2.217   0.769  0.00  0.00    +0.000 A 
ATOM      4  C   UNL     1       1.896  -1.022   0.512  0.00  0.00    +0.000 A 
ATOM      5  C   UNL     1       0.876  -0.117   0.252  0.00  0.00    +0.000 A 
ATOM      6  N   UNL     1      -0.315  -0.711   0.340  0.00  0.00    +0.000 N 
ATOM      7  C   UNL     1       1.250   1.265  -0.060  0.00  0.00    +0.000 C 
ATOM      8  C   UNL     1       2.530   1.338  -0.832  0.00  0.00    +0.000 C 
ATOM      9  C   UNL     1       2.373   0.847  -2.252  0.00  0.00    +0.000 C 
ATOM     10  C   UNL     1       2.913   2.816  -0.926  0.00  0.00    +0.000 C 
ATOM     11  C   UNL     1       3.675   0.622  -0.203  0.00  0.00    +0.000 C 
ATOM     12  C   UNL     1       3.299  -0.628   0.479  0.00  0.00    +0.000 C 
ATOM     13  O   UNL     1       4.213  -1.304   1.009  0.00  0.00    +0.000 OA
ENDROOT
BRANCH   6  14
ATOM     14  C   UNL     1      -1.616  -0.137   0.147  0.00  0.00    +0.000 A 
ATOM     15  C   UNL     1      -2.049   0.964   0.856  0.00  0.00    +0.000 A 
ATOM     16  C   UNL     1      -3.295   1.537   0.691  0.00  0.00    +0.000 A 
ATOM     17  C   UNL     1      -4.157   0.980  -0.233  0.00  0.00    +0.000 A 
ATOM     18  N   UNL     1      -5.441   1.585  -0.391  0.00  0.00    +0.000 NA
ATOM     19  C   UNL     1      -3.772  -0.124  -0.969  0.00  0.00    +0.000 A 
ATOM     20  C   UNL     1      -2.513  -0.657  -0.763  0.00  0.00    +0.000 A 
ENDBRANCH   6  14
TORSDOF 1
