REMARK  Name = 
REMARK  3 active torsions:
REMARK  status: ('A' for Active; 'I' for Inactive)
REMARK    1  A    between atoms: C_10  and  C_11
REMARK    2  A    between atoms: C_11  and  C_12
REMARK    3  A    between atoms: C_12  and  N_13
REMARK                            x       y       z     vdW  Elec       q    Type
REMARK                         _______ _______ _______ _____ _____    ______ ____
ROOT
ATOM      1  C   UNL     1      -0.743   0.527  -2.003  0.00  0.00    +0.000 C 
ENDROOT
BRANCH   1  11
ATOM      2  C   UNL     1      -0.172  -2.510  -1.372  0.00  0.00    +0.000 C 
ATOM      3  C   UNL     1      -1.203  -1.651  -0.717  0.00  0.00    +0.000 A 
ATOM      4  N   UNL     1      -2.079  -1.991   0.244  0.00  0.00    +0.000 NA
ATOM      5  C   UNL     1      -2.866  -0.933   0.533  0.00  0.00    +0.000 A 
ATOM      6  C   UNL     1      -3.910  -0.751   1.429  0.00  0.00    +0.000 A 
ATOM      7  C   UNL     1      -4.536   0.475   1.493  0.00  0.00    +0.000 A 
ATOM      8  C   UNL     1      -4.174   1.539   0.707  0.00  0.00    +0.000 A 
ATOM      9  C   UNL     1      -3.136   1.371  -0.189  0.00  0.00    +0.000 A 
ATOM     10  C   UNL     1      -2.513   0.141  -0.250  0.00  0.00    +0.000 A 
ATOM     11  C   UNL     1      -1.452  -0.322  -1.043  0.00  0.00    +0.000 A 
ENDBRANCH   1  11
BRANCH   1  12
ATOM     12  C   UNL     1       0.438   1.194  -1.491  0.00  0.00    +0.000 C 
BRANCH  12  13
ATOM     13  N   UNL     1       1.525   0.498  -0.939  0.00  0.00    +0.000 N 
ATOM     14  C   UNL     1       2.663  -0.050  -1.638  0.00  0.00    +0.000 C 
ATOM     15  O   UNL     1       2.594  -0.468  -2.829  0.00  0.00    +0.000 OA
ATOM     16  O   UNL     1       3.763  -0.018  -0.776  0.00  0.00    +0.000 OA
ATOM     17  C   UNL     1       3.348   0.690   0.403  0.00  0.00    +0.000 C 
ATOM     18  C   UNL     1       3.356   2.171   0.222  0.00  0.00    +0.000 C 
ATOM     19  C   UNL     1       4.107   0.225   1.612  0.00  0.00    +0.000 C 
ATOM     20  C   UNL     1       1.877   0.197   0.465  0.00  0.00    +0.000 C 
ATOM     21  C   UNL     1       1.976  -1.262   0.757  0.00  0.00    +0.000 C 
ATOM     22  O   UNL     1       1.137   0.928   1.358  0.00  0.00    +0.000 OA
ENDBRANCH  12  13
ENDBRANCH   1  12
TORSDOF 3
