REMARK  Name = 
REMARK  4 active torsions:
REMARK  status: ('A' for Active; 'I' for Inactive)
REMARK    1  A    between atoms: S_2  and  C_3
REMARK    2  A    between atoms: C_3  and  C_4
REMARK    3  A    between atoms: N_6  and  C_7
REMARK    4  A    between atoms: C_10  and  N_11
REMARK                            x       y       z     vdW  Elec       q    Type
REMARK                         _______ _______ _______ _____ _____    ______ ____
ROOT
ATOM      1  C   UNL     1      -2.955   0.072  -0.458  0.00  0.00    +0.000 A 
ATOM      2  N   UNL     1      -1.755   0.677  -0.454  0.00  0.00    +0.000 NA
ATOM      3  N   UNL     1      -0.770  -0.202  -0.372  0.00  0.00    +0.000 N 
ATOM      4  C   UNL     1      -1.322  -1.427  -0.320  0.00  0.00    +0.000 A 
ATOM      5  C   UNL     1      -2.688  -1.274  -0.373  0.00  0.00    +0.000 A 
ATOM      6  C   UNL     1      -3.348  -2.594  -0.319  0.00  0.00    +0.000 C 
ATOM      7  C   UNL     1      -2.257  -3.503   0.250  0.00  0.00    +0.000 C 
ATOM      8  N   UNL     1      -1.073  -2.845  -0.230  0.00  0.00    +0.000 NA
ENDROOT
BRANCH   3   9
ATOM      9  C   UNL     1       0.627   0.067  -0.342  0.00  0.00    +0.000 A 
ATOM     10  C   UNL     1       1.553  -0.851  -0.822  0.00  0.00    +0.000 A 
ATOM     11  C   UNL     1       2.907  -0.598  -0.797  0.00  0.00    +0.000 A 
ATOM     12  C   UNL     1       3.413   0.580  -0.294  0.00  0.00    +0.000 A 
ATOM     13  C   UNL     1       2.494   1.509   0.189  0.00  0.00    +0.000 A 
ATOM     14  C   UNL     1       1.137   1.245   0.160  0.00  0.00    +0.000 A 
BRANCH  12  15
ATOM     15  N   UNL     1       4.804   0.873  -0.254  0.00  0.00    +0.000 N 
ATOM     16  O   UNL     1       5.196   1.957   0.215  0.00  0.00    +0.000 OA
ATOM     17  O   UNL     1       5.733  -0.011  -0.722  0.00  0.00    +0.000 OA
ENDBRANCH  12  15
ENDBRANCH   3   9
BRANCH   1  18
ATOM     18  C   UNL     1      -4.309   0.701  -0.538  0.00  0.00    +0.000 C 
BRANCH  18  20
ATOM     19  C   UNL     1      -3.333   3.128   0.911  0.00  0.00    +0.000 C 
ATOM     20  S   UNL     1      -4.053   2.498  -0.632  0.00  0.00    +0.000 S 
ENDBRANCH  18  20
ENDBRANCH   1  18
TORSDOF 4
