REMARK  Name = 
REMARK  4 active torsions:
REMARK  status: ('A' for Active; 'I' for Inactive)
REMARK    1  A    between atoms: O_2  and  C_3
REMARK    2  A    between atoms: C_6  and  C_7
REMARK    3  A    between atoms: C_7  and  N_8
REMARK    4  A    between atoms: C_18  and  O_19
REMARK                            x       y       z     vdW  Elec       q    Type
REMARK                         _______ _______ _______ _____ _____    ______ ____
ROOT
ATOM      1  C   UNL     1       0.559   1.659  -1.849  0.00  0.00    +0.000 C 
ENDROOT
BRANCH   1   2
ATOM      2  N   UNL     1      -0.741   1.140  -2.224  0.00  0.00    +0.000 NA
ATOM      3  C   UNL     1      -1.664   0.743  -1.189  0.00  0.00    +0.000 A 
ATOM      4  N   UNL     1      -2.899   0.246  -1.377  0.00  0.00    +0.000 NA
ATOM      5  C   UNL     1      -3.459  -0.007  -0.180  0.00  0.00    +0.000 A 
ATOM      6  C   UNL     1      -4.691  -0.516   0.227  0.00  0.00    +0.000 A 
ATOM      7  C   UNL     1      -5.021  -0.678   1.555  0.00  0.00    +0.000 A 
ATOM      8  C   UNL     1      -4.104  -0.327   2.531  0.00  0.00    +0.000 A 
ATOM      9  C   UNL     1      -2.870   0.182   2.132  0.00  0.00    +0.000 A 
ATOM     10  C   UNL     1      -2.551   0.340   0.798  0.00  0.00    +0.000 A 
ATOM     11  N   UNL     1      -1.472   0.792   0.138  0.00  0.00    +0.000 NA
ENDBRANCH   1   2
BRANCH   1  15
ATOM     12  C   UNL     1       2.876  -1.127   0.415  0.00  0.00    +0.000 A 
ATOM     13  C   UNL     1       1.614  -1.488  -0.011  0.00  0.00    +0.000 A 
ATOM     14  C   UNL     1       0.882  -0.586  -0.736  0.00  0.00    +0.000 A 
ATOM     15  C   UNL     1       1.340   0.670  -1.064  0.00  0.00    +0.000 A 
ATOM     16  C   UNL     1       2.611   1.035  -0.635  0.00  0.00    +0.000 A 
ATOM     17  C   UNL     1       3.335   0.116   0.092  0.00  0.00    +0.000 A 
BRANCH  12  19
ATOM     18  C   UNL     1       4.956  -1.593   1.573  0.00  0.00    +0.000 C 
ATOM     19  O   UNL     1       3.681  -1.990   1.156  0.00  0.00    +0.000 OA
ENDBRANCH  12  19
BRANCH  16  20
ATOM     20  O   UNL     1       3.162   2.258  -0.907  0.00  0.00    +0.000 OA
ATOM     21  C   UNL     1       4.458   2.571  -0.445  0.00  0.00    +0.000 C 
ENDBRANCH  16  20
ENDBRANCH   1  15
TORSDOF 4
