REMARK  Name = 
REMARK  4 active torsions:
REMARK  status: ('A' for Active; 'I' for Inactive)
REMARK    1  A    between atoms: C_2  and  C_5
REMARK    2  A    between atoms: C_8  and  C_9
REMARK    3  A    between atoms: C_9  and  S_10
REMARK    4  A    between atoms: S_10  and  C_11
REMARK                            x       y       z     vdW  Elec       q    Type
REMARK                         _______ _______ _______ _____ _____    ______ ____
ROOT
ATOM      1  C   UNL     1      -3.713   0.286   0.129  0.00  0.00    +0.000 A 
ATOM      2  C   UNL     1      -3.213   0.147  -1.172  0.00  0.00    +0.000 A 
ATOM      3  C   UNL     1      -1.874   0.131  -1.433  0.00  0.00    +0.000 A 
ATOM      4  C   UNL     1      -0.993   0.258  -0.346  0.00  0.00    +0.000 A 
ATOM      5  C   UNL     1      -1.493   0.397   0.924  0.00  0.00    +0.000 A 
ATOM      6  C   UNL     1      -2.840   0.412   1.166  0.00  0.00    +0.000 A 
ENDROOT
BRANCH   1   8
ATOM      7  C   UNL     1      -5.596  -0.544   1.490  0.00  0.00    +0.000 C 
ATOM      8  C   UNL     1      -5.177   0.333   0.344  0.00  0.00    +0.000 C 
ATOM      9  C   UNL     1      -5.561   1.781   0.533  0.00  0.00    +0.000 C 
ATOM     10  C   UNL     1      -5.802  -0.170  -0.969  0.00  0.00    +0.000 C 
ENDBRANCH   1   8
BRANCH   4  11
ATOM     11  C   UNL     1       0.416   0.364  -0.618  0.00  0.00    +0.000 C 
BRANCH  11  12
ATOM     12  S   UNL     1       1.331  -1.177  -0.828  0.00  0.00    +0.000 S 
BRANCH  12  13
ATOM     13  C   UNL     1       3.016  -0.660  -0.365  0.00  0.00    +0.000 A 
ATOM     14  N   UNL     1       3.844  -0.089  -1.226  0.00  0.00    +0.000 NA
ATOM     15  N   UNL     1       5.057   0.331  -0.791  0.00  0.00    +0.000 NA
ATOM     16  C   UNL     1       5.446   0.185   0.478  0.00  0.00    +0.000 A 
ATOM     17  O   UNL     1       6.598   0.598   0.838  0.00  0.00    +0.000 OA
ATOM     18  N   UNL     1       4.609  -0.396   1.347  0.00  0.00    +0.000 NA
ATOM     19  C   UNL     1       3.395  -0.818   0.953  0.00  0.00    +0.000 A 
ATOM     20  O   UNL     1       2.550  -1.371   1.722  0.00  0.00    +0.000 OA
ENDBRANCH  12  13
ENDBRANCH  11  12
ENDBRANCH   4  11
TORSDOF 4
