REMARK  Name = 
REMARK  0 active torsions:
REMARK  status: ('A' for Active; 'I' for Inactive)
REMARK                            x       y       z     vdW  Elec       q    Type
REMARK                         _______ _______ _______ _____ _____    ______ ____
ROOT
ATOM      1  C   UNL     1       2.023   1.938   0.052  0.00  0.00    +0.000 C 
ATOM      2  C   UNL     1       2.421   0.557   0.447  0.00  0.00    +0.000 C 
ATOM      3  C   UNL     1       2.003   0.056   1.715  0.00  0.00    +0.000 C 
ATOM      4  C   UNL     1       0.474   0.249   1.684  0.00  0.00    +0.000 C 
ATOM      5  C   UNL     1      -0.053  -0.805   0.587  0.00  0.00    +0.000 C 
ATOM      6  C   UNL     1      -1.517  -0.278   0.519  0.00  0.00    +0.000 A 
ATOM      7  C   UNL     1      -2.141  -0.076   1.705  0.00  0.00    +0.000 A 
ATOM      8  C   UNL     1      -3.462   0.386   1.703  0.00  0.00    +0.000 A 
ATOM      9  C   UNL     1      -4.106   0.629   0.509  0.00  0.00    +0.000 A 
ATOM     10  N   UNL     1      -5.439   1.095   0.570  0.00  0.00    +0.000 NA
ATOM     11  C   UNL     1      -3.432   0.409  -0.652  0.00  0.00    +0.000 A 
ATOM     12  C   UNL     1      -2.114  -0.053  -0.658  0.00  0.00    +0.000 A 
ATOM     13  C   UNL     1      -1.514  -0.252  -2.008  0.00  0.00    +0.000 C 
ATOM     14  C   UNL     1      -0.132  -0.890  -1.782  0.00  0.00    +0.000 C 
ATOM     15  C   UNL     1       0.423   0.166  -0.725  0.00  0.00    +0.000 C 
ATOM     16  C   UNL     1       1.966  -0.470  -0.711  0.00  0.00    +0.000 C 
ATOM     17  C   UNL     1       2.563   0.536  -1.805  0.00  0.00    +0.000 C 
ATOM     18  C   UNL     1       3.903   0.858  -1.366  0.00  0.00    +0.000 C 
ATOM     19  C   UNL     1       4.015   0.502   0.220  0.00  0.00    +0.000 C 
ATOM     20  O   UNL     1       4.119  -0.985  -0.003  0.00  0.00    +0.000 OA
ENDROOT
TORSDOF 0
