REMARK  Name = 
REMARK  3 active torsions:
REMARK  status: ('A' for Active; 'I' for Inactive)
REMARK    1  A    between atoms: C_2  and  C_14
REMARK    2  A    between atoms: N_3  and  C_4
REMARK    3  A    between atoms: C_6  and  N_7
REMARK                            x       y       z     vdW  Elec       q    Type
REMARK                         _______ _______ _______ _____ _____    ______ ____
ROOT
ATOM      1  O   UNL     1       0.609   0.964   1.310  0.00  0.00    +0.000 OA
ATOM      2  C   UNL     1       1.075   0.486   0.268  0.00  0.00    +0.000 C 
ATOM      3  N   UNL     1       0.301  -0.212  -0.581  0.00  0.00    +0.000 NA
ENDROOT
BRANCH   3   4
ATOM      4  C   UNL     1      -1.078  -0.443  -0.341  0.00  0.00    +0.000 A 
ATOM      5  C   UNL     1      -1.653   0.058   0.793  0.00  0.00    +0.000 A 
ATOM      6  C   UNL     1      -2.987  -0.113   1.116  0.00  0.00    +0.000 A 
ATOM      7  C   UNL     1      -3.741  -0.835   0.217  0.00  0.00    +0.000 A 
ATOM      8  C   UNL     1      -3.211  -1.368  -0.951  0.00  0.00    +0.000 A 
ATOM      9  C   UNL     1      -1.859  -1.161  -1.220  0.00  0.00    +0.000 A 
ATOM     10 CL   UNL     1      -1.158  -1.812  -2.671  0.00  0.00    +0.000 Cl
BRANCH   6  11
ATOM     11  N   UNL     1      -3.565   0.420   2.306  0.00  0.00    +0.000 N 
ATOM     12  O   UNL     1      -2.941   1.069   3.139  0.00  0.00    +0.000 OA
ATOM     13  O   UNL     1      -4.901   0.198   2.542  0.00  0.00    +0.000 OA
ENDBRANCH   6  11
ENDBRANCH   3   4
BRANCH   2  14
ATOM     14  C   UNL     1       2.590   0.820   0.143  0.00  0.00    +0.000 C 
ATOM     15  C   UNL     1       3.128  -0.679   0.106  0.00  0.00    +0.000 C 
ATOM     16  C   UNL     1       4.443  -0.432  -0.808  0.00  0.00    +0.000 C 
ATOM     17  C   UNL     1       4.800   1.107  -0.456  0.00  0.00    +0.000 C 
ATOM     18  C   UNL     1       4.054   1.934  -1.385  0.00  0.00    +0.000 C 
ATOM     19  C   UNL     1       2.661   1.137  -1.508  0.00  0.00    +0.000 C 
ATOM     20  C   UNL     1       3.432  -0.148  -2.021  0.00  0.00    +0.000 C 
ENDBRANCH   2  14
TORSDOF 3
