REMARK  Name = 
REMARK  3 active torsions:
REMARK  status: ('A' for Active; 'I' for Inactive)
REMARK    1  A    between atoms: C_4  and  N_5
REMARK    2  A    between atoms: C_6  and  C_8
REMARK    3  A    between atoms: C_15  and  C_16
REMARK                            x       y       z     vdW  Elec       q    Type
REMARK                         _______ _______ _______ _____ _____    ______ ____
ROOT
ATOM      1  C   UNL     1      -3.936  -2.548  -0.130  0.00  0.00    +0.000 C 
ATOM      2  C   UNL     1      -3.196  -1.243  -0.070  0.00  0.00    +0.000 A 
ATOM      3  C   UNL     1      -1.819  -1.189  -0.164  0.00  0.00    +0.000 A 
ATOM      4  C   UNL     1      -1.166   0.043  -0.104  0.00  0.00    +0.000 A 
ATOM      5  C   UNL     1      -1.927   1.181   0.049  0.00  0.00    +0.000 A 
ATOM      6  C   UNL     1      -3.321   1.113   0.143  0.00  0.00    +0.000 A 
ATOM      7  C   UNL     1      -3.962  -0.107   0.084  0.00  0.00    +0.000 A 
ATOM      8  O   UNL     1      -5.355  -0.206   0.175  0.00  0.00    +0.000 OA
ENDROOT
BRANCH   4   9
ATOM      9  N   UNL     1       0.234   0.165  -0.194  0.00  0.00    +0.000 NA
ATOM     10  C   UNL     1       1.138  -0.892  -0.350  0.00  0.00    +0.000 C 
ATOM     11  O   UNL     1       0.666  -2.068  -0.417  0.00  0.00    +0.000 OA
BRANCH  10  12
ATOM     12  C   UNL     1       2.553  -0.606  -0.426  0.00  0.00    +0.000 A 
ATOM     13  C   UNL     1       3.185  -0.362  -1.622  0.00  0.00    +0.000 A 
ATOM     14  C   UNL     1       4.559  -0.089  -1.653  0.00  0.00    +0.000 A 
ATOM     15  C   UNL     1       5.290  -0.062  -0.490  0.00  0.00    +0.000 A 
ATOM     16  C   UNL     1       4.667  -0.304   0.705  0.00  0.00    +0.000 A 
ATOM     17  C   UNL     1       3.319  -0.569   0.708  0.00  0.00    +0.000 A 
ATOM     18 CL   UNL     1       2.548  -0.876   2.257  0.00  0.00    +0.000 Cl
ENDBRANCH  10  12
ENDBRANCH   4   9
BRANCH   5  19
ATOM     19  C   UNL     1      -1.222   2.498   0.113  0.00  0.00    +0.000 C 
ATOM     20  C   UNL     1      -2.162   3.641   0.279  0.00  0.00    +0.000 C 
ATOM     21  C   UNL     1      -0.095   2.481   1.104  0.00  0.00    +0.000 C 
ENDBRANCH   5  19
TORSDOF 3
