REMARK  Name = 
REMARK  2 active torsions:
REMARK  status: ('A' for Active; 'I' for Inactive)
REMARK    1  A    between atoms: O_2  and  C_3
REMARK    2  A    between atoms: C_12  and  O_13
REMARK                            x       y       z     vdW  Elec       q    Type
REMARK                         _______ _______ _______ _____ _____    ______ ____
ROOT
ATOM      1  C   UNL     1       4.116  -0.641   0.143  0.00  0.00    +0.000 A 
ATOM      2  C   UNL     1       3.528  -1.886   0.193  0.00  0.00    +0.000 A 
ATOM      3  C   UNL     1       2.144  -2.014   0.155  0.00  0.00    +0.000 A 
ATOM      4  C   UNL     1       1.327  -0.888   0.067  0.00  0.00    +0.000 A 
ATOM      5  C   UNL     1      -0.052  -1.031   0.030  0.00  0.00    +0.000 A 
ATOM      6  C   UNL     1      -0.792   0.138  -0.058  0.00  0.00    +0.000 A 
ATOM      7  N   UNL     1      -0.220   1.355  -0.106  0.00  0.00    +0.000 N 
ATOM      8  C   UNL     1       1.138   1.503  -0.070  0.00  0.00    +0.000 A 
ATOM      9  C   UNL     1       1.897   0.357   0.017  0.00  0.00    +0.000 A 
ATOM     10  C   UNL     1       3.292   0.453   0.057  0.00  0.00    +0.000 A 
ATOM     11  C   UNL     1      -0.994   2.561  -0.197  0.00  0.00    +0.000 C 
ATOM     12  C   UNL     1      -2.445   2.421  -0.236  0.00  0.00    +0.000 C 
ATOM     13  C   UNL     1      -3.039   1.082  -0.182  0.00  0.00    +0.000 A 
ATOM     14  C   UNL     1      -4.440   0.959  -0.220  0.00  0.00    +0.000 A 
ATOM     15  C   UNL     1      -5.000  -0.296  -0.169  0.00  0.00    +0.000 A 
ATOM     16  O   UNL     1      -6.384  -0.413  -0.207  0.00  0.00    +0.000 OA
ATOM     17  C   UNL     1      -4.208  -1.417  -0.082  0.00  0.00    +0.000 A 
ATOM     18  O   UNL     1      -4.728  -2.698  -0.029  0.00  0.00    +0.000 OA
ATOM     19  C   UNL     1      -2.839  -1.276  -0.046  0.00  0.00    +0.000 A 
ATOM     20  C   UNL     1      -2.242  -0.030  -0.095  0.00  0.00    +0.000 A 
ENDROOT
BRANCH   1  22
ATOM     21  C   UNL     1       6.355  -1.633   0.270  0.00  0.00    +0.000 C 
ATOM     22  O   UNL     1       5.490  -0.540   0.182  0.00  0.00    +0.000 OA
ENDBRANCH   1  22
BRANCH  10  23
ATOM     23  O   UNL     1       3.893   1.718   0.006  0.00  0.00    +0.000 OA
ATOM     24  C   UNL     1       4.204   2.217  -1.296  0.00  0.00    +0.000 C 
ENDBRANCH  10  23
TORSDOF 2
