REMARK  Name = 
REMARK  3 active torsions:
REMARK  status: ('A' for Active; 'I' for Inactive)
REMARK    1  A    between atoms: C_7  and  N_8
REMARK    2  A    between atoms: C_9  and  C_11
REMARK    3  A    between atoms: C_14  and  N_15
REMARK                            x       y       z     vdW  Elec       q    Type
REMARK                         _______ _______ _______ _____ _____    ______ ____
ROOT
ATOM      1  N   UNL     1       1.331  -0.581  -0.425  0.00  0.00    +0.000 NA
ATOM      2  C   UNL     1       0.434   0.393   0.107  0.00  0.00    +0.000 C 
ATOM      3  O   UNL     1       0.927   1.368   0.712  0.00  0.00    +0.000 OA
ENDROOT
BRANCH   1  10
ATOM      4  C   UNL     1       5.141   1.959   1.280  0.00  0.00    +0.000 C 
ATOM      5  C   UNL     1       4.666   0.760   0.543  0.00  0.00    +0.000 A 
ATOM      6  C   UNL     1       5.484  -0.200   0.013  0.00  0.00    +0.000 A 
ATOM      7  C   UNL     1       4.950  -1.286  -0.661  0.00  0.00    +0.000 A 
ATOM      8  C   UNL     1       3.563  -1.408  -0.804  0.00  0.00    +0.000 A 
ATOM      9  C   UNL     1       2.969  -2.556  -1.518  0.00  0.00    +0.000 C 
ATOM     10  C   UNL     1       2.735  -0.445  -0.272  0.00  0.00    +0.000 A 
ATOM     11  C   UNL     1       3.299   0.612   0.385  0.00  0.00    +0.000 A 
ENDBRANCH   1  10
BRANCH   2  12
ATOM     12  C   UNL     1      -1.004   0.212  -0.073  0.00  0.00    +0.000 A 
ATOM     13  C   UNL     1      -1.529  -0.874  -0.739  0.00  0.00    +0.000 A 
ATOM     14  C   UNL     1      -2.891  -1.029  -0.902  0.00  0.00    +0.000 A 
ATOM     15  C   UNL     1      -3.787  -0.105  -0.405  0.00  0.00    +0.000 A 
ATOM     16  C   UNL     1      -3.271   0.986   0.263  0.00  0.00    +0.000 A 
ATOM     17  C   UNL     1      -4.178   2.022   0.825  0.00  0.00    +0.000 C 
ATOM     18  C   UNL     1      -1.897   1.137   0.424  0.00  0.00    +0.000 A 
BRANCH  15  19
ATOM     19  N   UNL     1      -5.189  -0.288  -0.587  0.00  0.00    +0.000 N 
ATOM     20  O   UNL     1      -5.673  -0.922  -1.541  0.00  0.00    +0.000 OA
ATOM     21  O   UNL     1      -6.080   0.246   0.314  0.00  0.00    +0.000 OA
ENDBRANCH  15  19
ENDBRANCH   2  12
TORSDOF 3
