REMARK  Name = 
REMARK  5 active torsions:
REMARK  status: ('A' for Active; 'I' for Inactive)
REMARK    1  A    between atoms: O_2  and  C_3
REMARK    2  A    between atoms: C_6  and  C_7
REMARK    3  A    between atoms: C_7  and  C_8
REMARK    4  A    between atoms: C_7  and  C_12
REMARK    5  A    between atoms: C_8  and  N_9
REMARK                            x       y       z     vdW  Elec       q    Type
REMARK                         _______ _______ _______ _____ _____    ______ ____
ROOT
ATOM      1  C   UNL     1      -0.589   0.677  -1.067  0.00  0.00    +0.000 C 
ENDROOT
BRANCH   1   2
ATOM      2  C   UNL     1      -1.395   0.153   0.205  0.00  0.00    +0.000 A 
ATOM      3  C   UNL     1      -1.417   0.627   1.445  0.00  0.00    +0.000 A 
ATOM      4  C   UNL     1      -0.650   1.822   1.920  0.00  0.00    +0.000 C 
ATOM      5  N   UNL     1      -2.243  -0.153   2.167  0.00  0.00    +0.000 NA
ATOM      6  C   UNL     1      -2.755  -1.131   1.397  0.00  0.00    +0.000 A 
ATOM      7  C   UNL     1      -3.632  -2.170   1.647  0.00  0.00    +0.000 A 
ATOM      8  C   UNL     1      -3.993  -3.042   0.654  0.00  0.00    +0.000 A 
ATOM      9  C   UNL     1      -3.445  -2.846  -0.616  0.00  0.00    +0.000 A 
ATOM     10  C   UNL     1      -2.578  -1.817  -0.861  0.00  0.00    +0.000 A 
ATOM     11  C   UNL     1      -2.219  -0.947   0.132  0.00  0.00    +0.000 A 
ENDBRANCH   1   2
BRANCH   1  15
ATOM     12  C   UNL     1       3.454  -0.371   0.054  0.00  0.00    +0.000 A 
ATOM     13  C   UNL     1       2.864   0.769   0.600  0.00  0.00    +0.000 A 
ATOM     14  C   UNL     1       1.541   1.082   0.210  0.00  0.00    +0.000 A 
ATOM     15  C   UNL     1       0.867   0.303  -0.663  0.00  0.00    +0.000 A 
ATOM     16  C   UNL     1       1.484  -0.802  -1.172  0.00  0.00    +0.000 A 
ATOM     17  C   UNL     1       2.781  -1.153  -0.822  0.00  0.00    +0.000 A 
BRANCH  12  19
ATOM     18  C   UNL     1       5.367  -1.794  -0.081  0.00  0.00    +0.000 C 
ATOM     19  O   UNL     1       4.750  -0.643   0.460  0.00  0.00    +0.000 OA
ENDBRANCH  12  19
ENDBRANCH   1  15
BRANCH   1  20
ATOM     20  C   UNL     1      -0.566   2.244  -0.636  0.00  0.00    +0.000 C 
BRANCH  20  21
ATOM     21  N   UNL     1       0.480   2.825  -1.438  0.00  0.00    +0.000 N 
ATOM     22  O   UNL     1       1.168   2.213  -2.270  0.00  0.00    +0.000 OA
ATOM     23  O   UNL     1       0.726   4.158  -1.266  0.00  0.00    +0.000 OA
ENDBRANCH  20  21
ENDBRANCH   1  20
TORSDOF 5
