REMARK  Name = 
REMARK  3 active torsions:
REMARK  status: ('A' for Active; 'I' for Inactive)
REMARK    1  A    between atoms: C_5  and  C_6
REMARK    2  A    between atoms: N_8  and  C_9
REMARK    3  A    between atoms: C_13  and  N_14
REMARK                            x       y       z     vdW  Elec       q    Type
REMARK                         _______ _______ _______ _____ _____    ______ ____
ROOT
ATOM      1  C   UNL     1       0.994  -0.506   0.375  0.00  0.00    +0.000 C 
ATOM      2  O   UNL     1       0.939  -1.449   1.203  0.00  0.00    +0.000 OA
ATOM      3  N   UNL     1      -0.232  -0.015  -0.135  0.00  0.00    +0.000 NA
ENDROOT
BRANCH   1   8
ATOM      4  C   UNL     1       6.114   1.624  -1.171  0.00  0.00    +0.000 C 
ATOM      5  C   UNL     1       4.761   1.107  -0.804  0.00  0.00    +0.000 A 
ATOM      6  C   UNL     1       3.601   1.612  -1.332  0.00  0.00    +0.000 A 
ATOM      7  C   UNL     1       2.395   1.076  -0.937  0.00  0.00    +0.000 A 
ATOM      8  C   UNL     1       2.294   0.048  -0.030  0.00  0.00    +0.000 A 
ATOM      9  C   UNL     1       3.466  -0.450   0.492  0.00  0.00    +0.000 A 
ATOM     10  C   UNL     1       4.684   0.077   0.106  0.00  0.00    +0.000 A 
ATOM     11  C   UNL     1       5.963  -0.472   0.682  0.00  0.00    +0.000 C 
ENDBRANCH   1   8
BRANCH   3  12
ATOM     12  C   UNL     1      -1.515  -0.512   0.221  0.00  0.00    +0.000 A 
ATOM     13  C   UNL     1      -1.697  -1.540   1.121  0.00  0.00    +0.000 A 
ATOM     14  C   UNL     1      -2.993  -1.941   1.394  0.00  0.00    +0.000 A 
ATOM     15  C   UNL     1      -4.072  -1.335   0.787  0.00  0.00    +0.000 A 
ATOM     16  C   UNL     1      -3.894  -0.314  -0.107  0.00  0.00    +0.000 A 
ATOM     17  C   UNL     1      -2.599   0.100  -0.391  0.00  0.00    +0.000 A 
ATOM     18  C   UNL     1      -2.395   1.214  -1.367  0.00  0.00    +0.000 C 
BRANCH  16  19
ATOM     19  N   UNL     1      -4.957   0.346  -0.761  0.00  0.00    +0.000 N 
ATOM     20  O   UNL     1      -6.069   0.403  -0.225  0.00  0.00    +0.000 OA
ATOM     21  O   UNL     1      -4.786   0.927  -1.982  0.00  0.00    +0.000 OA
ENDBRANCH  16  19
ENDBRANCH   3  12
TORSDOF 3
