REMARK  Name = 
REMARK  3 active torsions:
REMARK  status: ('A' for Active; 'I' for Inactive)
REMARK    1  A    between atoms: C_2  and  N_3
REMARK    2  A    between atoms: N_3  and  C_4
REMARK    3  A    between atoms: N_3  and  C_15
REMARK                            x       y       z     vdW  Elec       q    Type
REMARK                         _______ _______ _______ _____ _____    ______ ____
ROOT
ATOM      1  C   UNL     1      -0.302   0.084  -0.547  0.00  0.00    +0.000 C 
ATOM      2  C   UNL     1      -0.717   1.023  -1.421  0.00  0.00    +0.000 C 
ATOM      3  C   UNL     1      -1.990   1.646  -1.237  0.00  0.00    +0.000 C 
ATOM      4  O   UNL     1      -2.420   2.532  -2.027  0.00  0.00    +0.000 OA
ATOM      5  N   UNL     1      -2.796   1.263  -0.139  0.00  0.00    +0.000 NA
ATOM      6  C   UNL     1      -2.001   0.876   1.183  0.00  0.00    +0.000 C 
ATOM      7  C   UNL     1      -3.262  -0.083   1.745  0.00  0.00    +0.000 C 
ATOM      8  C   UNL     1      -3.593  -1.066   0.726  0.00  0.00    +0.000 C 
ATOM      9  C   UNL     1      -2.558  -2.172   0.607  0.00  0.00    +0.000 C 
ATOM     10  C   UNL     1      -1.241  -1.528   1.066  0.00  0.00    +0.000 C 
ATOM     11  N   UNL     1      -1.139  -0.234   0.526  0.00  0.00    +0.000 N 
ENDROOT
BRANCH   1  12
ATOM     12  N   UNL     1       0.963  -0.504  -0.775  0.00  0.00    +0.000 N 
BRANCH  12  13
ATOM     13  C   UNL     1       2.083  -0.263   0.042  0.00  0.00    +0.000 A 
ATOM     14  C   UNL     1       3.316  -0.825  -0.171  0.00  0.00    +0.000 A 
ATOM     15  C   UNL     1       4.395  -0.558   0.664  0.00  0.00    +0.000 A 
ATOM     16  C   UNL     1       4.201   0.292   1.720  0.00  0.00    +0.000 A 
ATOM     17  C   UNL     1       2.960   0.881   1.964  0.00  0.00    +0.000 A 
ATOM     18  C   UNL     1       1.924   0.588   1.114  0.00  0.00    +0.000 A 
ENDBRANCH  12  13
BRANCH  12  20
ATOM     19  C   UNL     1       1.029  -0.558  -3.154  0.00  0.00    +0.000 C 
ATOM     20  C   UNL     1       1.147  -1.394  -1.887  0.00  0.00    +0.000 C 
ENDBRANCH  12  20
ENDBRANCH   1  12
TORSDOF 3
