REMARK  Name = 
REMARK  5 active torsions:
REMARK  status: ('A' for Active; 'I' for Inactive)
REMARK    1  A    between atoms: O_2  and  C_3
REMARK    2  A    between atoms: C_9  and  N_10
REMARK    3  A    between atoms: N_10  and  C_11
REMARK    4  A    between atoms: C_11  and  C_12
REMARK    5  A    between atoms: C_15  and  N_16
REMARK                            x       y       z     vdW  Elec       q    Type
REMARK                         _______ _______ _______ _____ _____    ______ ____
ROOT
ATOM      1  N   UNL     1      -0.900   0.109  -0.069  0.00  0.00    +0.000 NA
ENDROOT
BRANCH   1   8
ATOM      2  C   UNL     1      -3.039   1.151  -0.553  0.00  0.00    +0.000 A 
ATOM      3  C   UNL     1      -4.394   1.111  -0.573  0.00  0.00    +0.000 A 
ATOM      4  C   UNL     1      -5.048  -0.015  -0.131  0.00  0.00    +0.000 A 
ATOM      5  C   UNL     1      -4.350  -1.118   0.338  0.00  0.00    +0.000 A 
ATOM      6  C   UNL     1      -5.139  -2.292   0.796  0.00  0.00    +0.000 C 
ATOM      7  C   UNL     1      -2.986  -1.061   0.352  0.00  0.00    +0.000 A 
ATOM      8  C   UNL     1      -2.329   0.050  -0.084  0.00  0.00    +0.000 A 
BRANCH   2  10
ATOM      9  C   UNL     1      -3.087   3.374  -1.462  0.00  0.00    +0.000 C 
ATOM     10  O   UNL     1      -2.325   2.279  -0.994  0.00  0.00    +0.000 OA
ENDBRANCH   2  10
ENDBRANCH   1   8
BRANCH   1  11
ATOM     11  C   UNL     1      -0.153  -1.020   0.413  0.00  0.00    +0.000 C 
BRANCH  11  12
ATOM     12  C   UNL     1       1.312  -0.769   0.350  0.00  0.00    +0.000 A 
ATOM     13  C   UNL     1       1.767   0.439  -0.131  0.00  0.00    +0.000 A 
ATOM     14  C   UNL     1       3.141   0.696  -0.199  0.00  0.00    +0.000 A 
ATOM     15  C   UNL     1       4.060  -0.243   0.210  0.00  0.00    +0.000 A 
ATOM     16  C   UNL     1       3.576  -1.442   0.686  0.00  0.00    +0.000 A 
ATOM     17  C   UNL     1       2.219  -1.720   0.763  0.00  0.00    +0.000 A 
BRANCH  15  18
ATOM     18  N   UNL     1       5.469   0.026   0.138  0.00  0.00    +0.000 N 
ATOM     19  O   UNL     1       6.312  -0.794   0.496  0.00  0.00    +0.000 OA
ATOM     20  O   UNL     1       5.894   1.239  -0.346  0.00  0.00    +0.000 OA
ENDBRANCH  15  18
ENDBRANCH  11  12
ENDBRANCH   1  11
TORSDOF 5
