MODEL 1
REMARK VINA RESULT:      -6.5      0.000      0.000
REMARK  Name = 
REMARK  2 active torsions:
REMARK  status: ('A' for Active; 'I' for Inactive)
REMARK    1  A    between atoms: C_2  and  C_3
REMARK    2  A    between atoms: N_16  and  C_17
REMARK                            x       y       z     vdW  Elec       q    Type
REMARK                         _______ _______ _______ _____ _____    ______ ____
ROOT
ATOM      1  C   UNL     1      16.868  10.264  38.079  0.00  0.00    +0.000 C 
ATOM      2  C   UNL     1      17.534  10.408  36.922  0.00  0.00    +0.000 C 
ATOM      3  N   UNL     1      18.881  10.100  36.719  0.00  0.00    +0.000 NA
ATOM      4  N   UNL     1      19.787   9.600  37.624  0.00  0.00    +0.000 NA
ATOM      5  C   UNL     1      19.454   9.347  38.849  0.00  0.00    +0.000 C 
ATOM      6  N   UNL     1      20.426   8.843  39.707  0.00  0.00    +0.000 NA
ATOM      7  S   UNL     1      17.799   9.626  39.456  0.00  0.00    +0.000 S 
ENDROOT
BRANCH   2   8
ATOM      8  C   UNL     1      16.762  10.939  35.775  0.00  0.00    +0.000 A 
ATOM      9  C   UNL     1      15.731  11.813  36.016  0.00  0.00    +0.000 A 
ATOM     10  C   UNL     1      14.990  12.328  34.976  0.00  0.00    +0.000 A 
ATOM     11  C   UNL     1      15.266  11.979  33.668  0.00  0.00    +0.000 A 
ATOM     12  C   UNL     1      16.309  11.097  33.447  0.00  0.00    +0.000 A 
ATOM     13  C   UNL     1      17.045  10.585  34.488  0.00  0.00    +0.000 A 
ATOM     14  O   UNL     1      16.568  10.759  32.118  0.00  0.00    +0.000 OA
ATOM     15  C   UNL     1      15.583  10.871  31.111  0.00  0.00    +0.000 C 
ATOM     16  C   UNL     1      14.767  12.134  31.255  0.00  0.00    +0.000 C 
ATOM     17  O   UNL     1      14.543  12.476  32.601  0.00  0.00    +0.000 OA
ENDBRANCH   2   8
BRANCH   6  18
ATOM     18  C   UNL     1      21.865   9.069  39.503  0.00  0.00    +0.000 C 
ATOM     19  C   UNL     1      22.697   9.339  40.721  0.00  0.00    +0.000 C 
ATOM     20  C   UNL     1      22.705   7.907  40.104  0.00  0.00    +0.000 C 
ENDBRANCH   6  18
TORSDOF 2
ENDMDL
MODEL 2
REMARK VINA RESULT:      -6.4     23.022     25.088
REMARK  Name = 
REMARK  2 active torsions:
REMARK  status: ('A' for Active; 'I' for Inactive)
REMARK    1  A    between atoms: C_2  and  C_3
REMARK    2  A    between atoms: N_16  and  C_17
REMARK                            x       y       z     vdW  Elec       q    Type
REMARK                         _______ _______ _______ _____ _____    ______ ____
ROOT
ATOM      1  C   UNL     1      28.721  27.546  21.193  0.00  0.00    +0.000 C 
ATOM      2  C   UNL     1      29.136  26.278  21.045  0.00  0.00    +0.000 C 
ATOM      3  N   UNL     1      29.793  25.767  19.923  0.00  0.00    +0.000 NA
ATOM      4  N   UNL     1      30.146  26.425  18.768  0.00  0.00    +0.000 NA
ATOM      5  C   UNL     1      29.883  27.679  18.595  0.00  0.00    +0.000 C 
ATOM      6  N   UNL     1      30.271  28.277  17.400  0.00  0.00    +0.000 NA
ATOM      7  S   UNL     1      29.045  28.652  19.835  0.00  0.00    +0.000 S 
ENDROOT
BRANCH   2   8
ATOM      8  C   UNL     1      28.868  25.356  22.173  0.00  0.00    +0.000 A 
ATOM      9  C   UNL     1      29.895  24.587  22.660  0.00  0.00    +0.000 A 
ATOM     10  C   UNL     1      29.687  23.717  23.707  0.00  0.00    +0.000 A 
ATOM     11  C   UNL     1      28.440  23.599  24.292  0.00  0.00    +0.000 A 
ATOM     12  C   UNL     1      27.419  24.383  23.785  0.00  0.00    +0.000 A 
ATOM     13  C   UNL     1      27.632  25.248  22.740  0.00  0.00    +0.000 A 
ATOM     14  O   UNL     1      26.169  24.244  24.391  0.00  0.00    +0.000 OA
ATOM     15  C   UNL     1      25.807  23.079  25.103  0.00  0.00    +0.000 C 
ATOM     16  C   UNL     1      26.942  22.561  25.956  0.00  0.00    +0.000 C 
ATOM     17  O   UNL     1      28.195  22.737  25.342  0.00  0.00    +0.000 OA
ENDBRANCH   2   8
BRANCH   6  18
ATOM     18  C   UNL     1      30.462  27.518  16.155  0.00  0.00    +0.000 C 
ATOM     19  C   UNL     1      29.233  27.155  15.375  0.00  0.00    +0.000 C 
ATOM     20  C   UNL     1      30.088  28.375  14.913  0.00  0.00    +0.000 C 
ENDBRANCH   6  18
TORSDOF 2
ENDMDL
MODEL 3
REMARK VINA RESULT:      -6.2     29.144     31.574
REMARK  Name = 
REMARK  2 active torsions:
REMARK  status: ('A' for Active; 'I' for Inactive)
REMARK    1  A    between atoms: C_2  and  C_3
REMARK    2  A    between atoms: N_16  and  C_17
REMARK                            x       y       z     vdW  Elec       q    Type
REMARK                         _______ _______ _______ _____ _____    ______ ____
ROOT
ATOM      1  C   UNL     1      31.944  21.825  10.097  0.00  0.00    +0.000 C 
ATOM      2  C   UNL     1      32.305  21.156  11.204  0.00  0.00    +0.000 C 
ATOM      3  N   UNL     1      31.548  21.060  12.374  0.00  0.00    +0.000 NA
ATOM      4  N   UNL     1      30.315  21.607  12.640  0.00  0.00    +0.000 NA
ATOM      5  C   UNL     1      29.687  22.321  11.763  0.00  0.00    +0.000 C 
ATOM      6  N   UNL     1      28.443  22.843  12.104  0.00  0.00    +0.000 NA
ATOM      7  S   UNL     1      30.367  22.651  10.146  0.00  0.00    +0.000 S 
ENDROOT
BRANCH   2   8
ATOM      8  C   UNL     1      33.616  20.468  11.166  0.00  0.00    +0.000 A 
ATOM      9  C   UNL     1      34.297  20.274  12.342  0.00  0.00    +0.000 A 
ATOM     10  C   UNL     1      35.520  19.640  12.349  0.00  0.00    +0.000 A 
ATOM     11  C   UNL     1      36.087  19.183  11.175  0.00  0.00    +0.000 A 
ATOM     12  C   UNL     1      35.383  19.389  10.001  0.00  0.00    +0.000 A 
ATOM     13  C   UNL     1      34.165  20.023   9.999  0.00  0.00    +0.000 A 
ATOM     14  O   UNL     1      35.977  18.919   8.828  0.00  0.00    +0.000 OA
ATOM     15  C   UNL     1      37.371  18.711   8.727  0.00  0.00    +0.000 C 
ATOM     16  C   UNL     1      37.943  18.081   9.975  0.00  0.00    +0.000 C 
ATOM     17  O   UNL     1      37.310  18.543  11.144  0.00  0.00    +0.000 OA
ENDBRANCH   2   8
BRANCH   6  18
ATOM     18  C   UNL     1      28.038  23.094  13.496  0.00  0.00    +0.000 C 
ATOM     19  C   UNL     1      28.451  24.400  14.107  0.00  0.00    +0.000 C 
ATOM     20  C   UNL     1      26.994  24.242  13.577  0.00  0.00    +0.000 C 
ENDBRANCH   6  18
TORSDOF 2
ENDMDL
MODEL 4
REMARK VINA RESULT:      -6.2     18.719     19.311
REMARK  Name = 
REMARK  2 active torsions:
REMARK  status: ('A' for Active; 'I' for Inactive)
REMARK    1  A    between atoms: C_2  and  C_3
REMARK    2  A    between atoms: N_16  and  C_17
REMARK                            x       y       z     vdW  Elec       q    Type
REMARK                         _______ _______ _______ _____ _____    ______ ____
ROOT
ATOM      1  C   UNL     1      29.470  23.056  28.959  0.00  0.00    +0.000 C 
ATOM      2  C   UNL     1      30.082  22.518  27.892  0.00  0.00    +0.000 C 
ATOM      3  N   UNL     1      31.287  21.812  27.921  0.00  0.00    +0.000 NA
ATOM      4  N   UNL     1      32.081  21.524  29.006  0.00  0.00    +0.000 NA
ATOM      5  C   UNL     1      31.765  21.910  30.199  0.00  0.00    +0.000 C 
ATOM      6  N   UNL     1      32.619  21.582  31.248  0.00  0.00    +0.000 NA
ATOM      7  S   UNL     1      30.279  22.842  30.531  0.00  0.00    +0.000 S 
ENDROOT
BRANCH   2   8
ATOM      8  C   UNL     1      29.411  22.695  26.584  0.00  0.00    +0.000 A 
ATOM      9  C   UNL     1      30.183  22.843  25.458  0.00  0.00    +0.000 A 
ATOM     10  C   UNL     1      29.598  23.010  24.222  0.00  0.00    +0.000 A 
ATOM     11  C   UNL     1      28.222  23.032  24.087  0.00  0.00    +0.000 A 
ATOM     12  C   UNL     1      27.464  22.882  25.235  0.00  0.00    +0.000 A 
ATOM     13  C   UNL     1      28.053  22.716  26.465  0.00  0.00    +0.000 A 
ATOM     14  O   UNL     1      26.078  22.909  25.073  0.00  0.00    +0.000 OA
ATOM     15  C   UNL     1      25.466  23.531  23.962  0.00  0.00    +0.000 C 
ATOM     16  C   UNL     1      26.209  23.253  22.676  0.00  0.00    +0.000 C 
ATOM     17  O   UNL     1      27.601  23.199  22.865  0.00  0.00    +0.000 OA
ENDBRANCH   2   8
BRANCH   6  18
ATOM     18  C   UNL     1      34.052  21.314  31.055  0.00  0.00    +0.000 C 
ATOM     19  C   UNL     1      35.020  22.189  31.794  0.00  0.00    +0.000 C 
ATOM     20  C   UNL     1      34.701  20.772  32.359  0.00  0.00    +0.000 C 
ENDBRANCH   6  18
TORSDOF 2
ENDMDL
MODEL 5
REMARK VINA RESULT:      -6.1     23.279     25.313
REMARK  Name = 
REMARK  2 active torsions:
REMARK  status: ('A' for Active; 'I' for Inactive)
REMARK    1  A    between atoms: C_2  and  C_3
REMARK    2  A    between atoms: N_16  and  C_17
REMARK                            x       y       z     vdW  Elec       q    Type
REMARK                         _______ _______ _______ _____ _____    ______ ____
ROOT
ATOM      1  C   UNL     1      28.793  27.468  21.223  0.00  0.00    +0.000 C 
ATOM      2  C   UNL     1      29.225  26.210  21.047  0.00  0.00    +0.000 C 
ATOM      3  N   UNL     1      29.864  25.726  19.903  0.00  0.00    +0.000 NA
ATOM      4  N   UNL     1      30.179  26.405  18.749  0.00  0.00    +0.000 NA
ATOM      5  C   UNL     1      29.891  27.658  18.600  0.00  0.00    +0.000 C 
ATOM      6  N   UNL     1      30.240  28.278  17.405  0.00  0.00    +0.000 NA
ATOM      7  S   UNL     1      29.065  28.598  19.873  0.00  0.00    +0.000 S 
ENDROOT
BRANCH   2   8
ATOM      8  C   UNL     1      29.000  25.268  22.167  0.00  0.00    +0.000 A 
ATOM      9  C   UNL     1      27.922  24.419  22.114  0.00  0.00    +0.000 A 
ATOM     10  C   UNL     1      27.677  23.529  23.135  0.00  0.00    +0.000 A 
ATOM     11  C   UNL     1      28.510  23.469  24.237  0.00  0.00    +0.000 A 
ATOM     12  C   UNL     1      29.590  24.334  24.271  0.00  0.00    +0.000 A 
ATOM     13  C   UNL     1      29.829  25.220  23.249  0.00  0.00    +0.000 A 
ATOM     14  O   UNL     1      30.415  24.255  25.393  0.00  0.00    +0.000 OA
ATOM     15  C   UNL     1      29.958  23.732  26.624  0.00  0.00    +0.000 C 
ATOM     16  C   UNL     1      29.096  22.506  26.433  0.00  0.00    +0.000 C 
ATOM     17  O   UNL     1      28.295  22.590  25.280  0.00  0.00    +0.000 OA
ENDBRANCH   2   8
BRANCH   6  18
ATOM     18  C   UNL     1      30.415  27.539  16.145  0.00  0.00    +0.000 C 
ATOM     19  C   UNL     1      29.174  27.155  15.395  0.00  0.00    +0.000 C 
ATOM     20  C   UNL     1      29.983  28.402  14.925  0.00  0.00    +0.000 C 
ENDBRANCH   6  18
TORSDOF 2
ENDMDL
MODEL 6
REMARK VINA RESULT:      -6.1     18.162     19.820
REMARK  Name = 
REMARK  2 active torsions:
REMARK  status: ('A' for Active; 'I' for Inactive)
REMARK    1  A    between atoms: C_2  and  C_3
REMARK    2  A    between atoms: N_16  and  C_17
REMARK                            x       y       z     vdW  Elec       q    Type
REMARK                         _______ _______ _______ _____ _____    ______ ____
ROOT
ATOM      1  C   UNL     1      33.330   1.638  33.417  0.00  0.00    +0.000 C 
ATOM      2  C   UNL     1      33.594   1.178  34.650  0.00  0.00    +0.000 C 
ATOM      3  N   UNL     1      33.965   1.963  35.745  0.00  0.00    +0.000 NA
ATOM      4  N   UNL     1      34.135   3.326  35.799  0.00  0.00    +0.000 NA
ATOM      5  C   UNL     1      33.953   4.074  34.758  0.00  0.00    +0.000 C 
ATOM      6  N   UNL     1      34.144   5.446  34.889  0.00  0.00    +0.000 NA
ATOM      7  S   UNL     1      33.471   3.397  33.179  0.00  0.00    +0.000 S 
ENDROOT
BRANCH   2   8
ATOM      8  C   UNL     1      33.478  -0.284  34.852  0.00  0.00    +0.000 A 
ATOM      9  C   UNL     1      33.281  -0.766  36.122  0.00  0.00    +0.000 A 
ATOM     10  C   UNL     1      33.169  -2.119  36.352  0.00  0.00    +0.000 A 
ATOM     11  C   UNL     1      33.251  -3.023  35.310  0.00  0.00    +0.000 A 
ATOM     12  C   UNL     1      33.450  -2.516  34.037  0.00  0.00    +0.000 A 
ATOM     13  C   UNL     1      33.562  -1.166  33.814  0.00  0.00    +0.000 A 
ATOM     14  O   UNL     1      33.530  -3.449  33.002  0.00  0.00    +0.000 OA
ATOM     15  C   UNL     1      33.891  -4.796  33.234  0.00  0.00    +0.000 C 
ATOM     16  C   UNL     1      33.244  -5.349  34.482  0.00  0.00    +0.000 C 
ATOM     17  O   UNL     1      33.143  -4.386  35.502  0.00  0.00    +0.000 OA
ENDBRANCH   2   8
BRANCH   6  18
ATOM     18  C   UNL     1      35.016   6.035  35.917  0.00  0.00    +0.000 C 
ATOM     19  C   UNL     1      36.078   6.987  35.454  0.00  0.00    +0.000 C 
ATOM     20  C   UNL     1      34.761   7.562  36.059  0.00  0.00    +0.000 C 
ENDBRANCH   6  18
TORSDOF 2
ENDMDL
MODEL 7
REMARK VINA RESULT:      -6.0     17.008     17.997
REMARK  Name = 
REMARK  2 active torsions:
REMARK  status: ('A' for Active; 'I' for Inactive)
REMARK    1  A    between atoms: C_2  and  C_3
REMARK    2  A    between atoms: N_16  and  C_17
REMARK                            x       y       z     vdW  Elec       q    Type
REMARK                         _______ _______ _______ _____ _____    ______ ____
ROOT
ATOM      1  C   UNL     1      33.666   5.311  37.420  0.00  0.00    +0.000 C 
ATOM      2  C   UNL     1      33.868   5.417  36.098  0.00  0.00    +0.000 C 
ATOM      3  N   UNL     1      34.146   6.604  35.414  0.00  0.00    +0.000 NA
ATOM      4  N   UNL     1      34.268   7.874  35.926  0.00  0.00    +0.000 NA
ATOM      5  C   UNL     1      34.127   8.113  37.189  0.00  0.00    +0.000 C 
ATOM      6  N   UNL     1      34.264   9.424  37.633  0.00  0.00    +0.000 NA
ATOM      7  S   UNL     1      33.763   6.819  38.363  0.00  0.00    +0.000 S 
ENDROOT
BRANCH   2   8
ATOM      8  C   UNL     1      33.788   4.165  35.311  0.00  0.00    +0.000 A 
ATOM      9  C   UNL     1      33.552   4.244  33.961  0.00  0.00    +0.000 A 
ATOM     10  C   UNL     1      33.470   3.103  33.194  0.00  0.00    +0.000 A 
ATOM     11  C   UNL     1      33.623   1.853  33.765  0.00  0.00    +0.000 A 
ATOM     12  C   UNL     1      33.860   1.797  35.128  0.00  0.00    +0.000 A 
ATOM     13  C   UNL     1      33.940   2.938  35.888  0.00  0.00    +0.000 A 
ATOM     14  O   UNL     1      34.011   0.525  35.681  0.00  0.00    +0.000 OA
ATOM     15  C   UNL     1      33.479  -0.629  35.062  0.00  0.00    +0.000 C 
ATOM     16  C   UNL     1      33.671  -0.606  33.563  0.00  0.00    +0.000 C 
ATOM     17  O   UNL     1      33.547   0.688  33.028  0.00  0.00    +0.000 OA
ENDBRANCH   2   8
BRANCH   6  18
ATOM     18  C   UNL     1      34.034  10.589  36.764  0.00  0.00    +0.000 C 
ATOM     19  C   UNL     1      34.210  11.947  37.375  0.00  0.00    +0.000 C 
ATOM     20  C   UNL     1      35.357  11.359  36.497  0.00  0.00    +0.000 C 
ENDBRANCH   6  18
TORSDOF 2
ENDMDL
MODEL 8
REMARK VINA RESULT:      -5.8     17.935     20.034
REMARK  Name = 
REMARK  2 active torsions:
REMARK  status: ('A' for Active; 'I' for Inactive)
REMARK    1  A    between atoms: C_2  and  C_3
REMARK    2  A    between atoms: N_16  and  C_17
REMARK                            x       y       z     vdW  Elec       q    Type
REMARK                         _______ _______ _______ _____ _____    ______ ____
ROOT
ATOM      1  C   UNL     1      33.877  -1.016  35.905  0.00  0.00    +0.000 C 
ATOM      2  C   UNL     1      33.738  -0.491  34.677  0.00  0.00    +0.000 C 
ATOM      3  N   UNL     1      33.590  -1.222  33.497  0.00  0.00    +0.000 NA
ATOM      4  N   UNL     1      33.555  -2.588  33.338  0.00  0.00    +0.000 NA
ATOM      5  C   UNL     1      33.665  -3.391  34.346  0.00  0.00    +0.000 C 
ATOM      6  N   UNL     1      33.621  -4.761  34.107  0.00  0.00    +0.000 NA
ATOM      7  S   UNL     1      33.870  -2.793  36.015  0.00  0.00    +0.000 S 
ENDROOT
BRANCH   2   8
ATOM      8  C   UNL     1      33.743   0.987  34.583  0.00  0.00    +0.000 A 
ATOM      9  C   UNL     1      33.556   1.574  33.357  0.00  0.00    +0.000 A 
ATOM     10  C   UNL     1      33.555   2.945  33.226  0.00  0.00    +0.000 A 
ATOM     11  C   UNL     1      33.741   3.761  34.326  0.00  0.00    +0.000 A 
ATOM     12  C   UNL     1      33.929   3.148  35.553  0.00  0.00    +0.000 A 
ATOM     13  C   UNL     1      33.930   1.780  35.677  0.00  0.00    +0.000 A 
ATOM     14  O   UNL     1      34.117   3.993  36.648  0.00  0.00    +0.000 OA
ATOM     15  C   UNL     1      34.586   5.317  36.501  0.00  0.00    +0.000 C 
ATOM     16  C   UNL     1      33.957   6.012  35.315  0.00  0.00    +0.000 C 
ATOM     17  O   UNL     1      33.747   5.138  34.234  0.00  0.00    +0.000 OA
ENDBRANCH   2   8
BRANCH   6  18
ATOM     18  C   UNL     1      33.985  -5.357  32.812  0.00  0.00    +0.000 C 
ATOM     19  C   UNL     1      35.406  -5.803  32.636  0.00  0.00    +0.000 C 
ATOM     20  C   UNL     1      34.316  -6.868  32.964  0.00  0.00    +0.000 C 
ENDBRANCH   6  18
TORSDOF 2
ENDMDL
MODEL 9
REMARK VINA RESULT:      -5.8     18.934     21.354
REMARK  Name = 
REMARK  2 active torsions:
REMARK  status: ('A' for Active; 'I' for Inactive)
REMARK    1  A    between atoms: C_2  and  C_3
REMARK    2  A    between atoms: N_16  and  C_17
REMARK                            x       y       z     vdW  Elec       q    Type
REMARK                         _______ _______ _______ _____ _____    ______ ____
ROOT
ATOM      1  C   UNL     1      33.690  -3.753  35.160  0.00  0.00    +0.000 C 
ATOM      2  C   UNL     1      33.642  -2.957  34.080  0.00  0.00    +0.000 C 
ATOM      3  N   UNL     1      33.564  -3.394  32.755  0.00  0.00    +0.000 NA
ATOM      4  N   UNL     1      33.521  -4.685  32.284  0.00  0.00    +0.000 NA
ATOM      5  C   UNL     1      33.550  -5.701  33.084  0.00  0.00    +0.000 C 
ATOM      6  N   UNL     1      33.503  -6.977  32.534  0.00  0.00    +0.000 NA
ATOM      7  S   UNL     1      33.650  -5.507  34.856  0.00  0.00    +0.000 S 
ENDROOT
BRANCH   2   8
ATOM      8  C   UNL     1      33.675  -1.498  34.329  0.00  0.00    +0.000 A 
ATOM      9  C   UNL     1      33.528  -1.041  35.615  0.00  0.00    +0.000 A 
ATOM     10  C   UNL     1      33.552   0.308  35.889  0.00  0.00    +0.000 A 
ATOM     11  C   UNL     1      33.727   1.233  34.877  0.00  0.00    +0.000 A 
ATOM     12  C   UNL     1      33.874   0.751  33.587  0.00  0.00    +0.000 A 
ATOM     13  C   UNL     1      33.847  -0.596  33.320  0.00  0.00    +0.000 A 
ATOM     14  O   UNL     1      34.047   1.704  32.583  0.00  0.00    +0.000 OA
ATOM     15  C   UNL     1      33.615   3.041  32.735  0.00  0.00    +0.000 C 
ATOM     16  C   UNL     1      33.906   3.576  34.118  0.00  0.00    +0.000 C 
ATOM     17  O   UNL     1      33.756   2.593  35.113  0.00  0.00    +0.000 OA
ENDBRANCH   2   8
BRANCH   6  18
ATOM     18  C   UNL     1      33.945  -7.271  31.162  0.00  0.00    +0.000 C 
ATOM     19  C   UNL     1      35.149  -8.151  31.002  0.00  0.00    +0.000 C 
ATOM     20  C   UNL     1      33.731  -8.771  30.813  0.00  0.00    +0.000 C 
ENDBRANCH   6  18
TORSDOF 2
ENDMDL
MODEL 10
REMARK VINA RESULT:      -5.8      7.648      9.910
REMARK  Name = 
REMARK  2 active torsions:
REMARK  status: ('A' for Active; 'I' for Inactive)
REMARK    1  A    between atoms: C_2  and  C_3
REMARK    2  A    between atoms: N_16  and  C_17
REMARK                            x       y       z     vdW  Elec       q    Type
REMARK                         _______ _______ _______ _____ _____    ______ ____
ROOT
ATOM      1  C   UNL     1      21.782   3.847  41.772  0.00  0.00    +0.000 C 
ATOM      2  C   UNL     1      20.599   3.502  41.239  0.00  0.00    +0.000 C 
ATOM      3  N   UNL     1      20.268   2.235  40.753  0.00  0.00    +0.000 NA
ATOM      4  N   UNL     1      21.052   1.105  40.714  0.00  0.00    +0.000 NA
ATOM      5  C   UNL     1      22.267   1.106  41.158  0.00  0.00    +0.000 C 
ATOM      6  N   UNL     1      22.998  -0.075  41.085  0.00  0.00    +0.000 NA
ATOM      7  S   UNL     1      23.019   2.568  41.854  0.00  0.00    +0.000 S 
ENDROOT
BRANCH   2   8
ATOM      8  C   UNL     1      19.568   4.563  41.169  0.00  0.00    +0.000 A 
ATOM      9  C   UNL     1      19.549   5.398  40.079  0.00  0.00    +0.000 A 
ATOM     10  C   UNL     1      18.608   6.397  39.976  0.00  0.00    +0.000 A 
ATOM     11  C   UNL     1      17.661   6.583  40.966  0.00  0.00    +0.000 A 
ATOM     12  C   UNL     1      17.698   5.730  42.056  0.00  0.00    +0.000 A 
ATOM     13  C   UNL     1      18.640   4.736  42.154  0.00  0.00    +0.000 A 
ATOM     14  O   UNL     1      16.733   5.939  43.042  0.00  0.00    +0.000 OA
ATOM     15  C   UNL     1      16.090   7.186  43.209  0.00  0.00    +0.000 C 
ATOM     16  C   UNL     1      15.733   7.821  41.886  0.00  0.00    +0.000 C 
ATOM     17  O   UNL     1      16.702   7.575  40.897  0.00  0.00    +0.000 OA
ENDBRANCH   2   8
BRANCH   6  18
ATOM     18  C   UNL     1      22.711  -1.130  40.102  0.00  0.00    +0.000 C 
ATOM     19  C   UNL     1      23.658  -2.293  40.046  0.00  0.00    +0.000 C 
ATOM     20  C   UNL     1      22.306  -2.456  40.806  0.00  0.00    +0.000 C 
ENDBRANCH   6  18
TORSDOF 2
ENDMDL
