MODEL 1
REMARK VINA RESULT:      -7.3      0.000      0.000
REMARK  Name = 
REMARK  8 active torsions:
REMARK  status: ('A' for Active; 'I' for Inactive)
REMARK    1  A    between atoms: C_2  and  O_3
REMARK    2  A    between atoms: O_3  and  C_4
REMARK    3  A    between atoms: C_6  and  C_7
REMARK    4  A    between atoms: C_15  and  O_16
REMARK    5  A    between atoms: O_16  and  C_17
REMARK    6  A    between atoms: C_17  and  C_18
REMARK    7  A    between atoms: C_27  and  C_28
REMARK    8  A    between atoms: C_28  and  O_29
REMARK                            x       y       z     vdW  Elec       q    Type
REMARK                         _______ _______ _______ _____ _____    ______ ____
ROOT
ATOM      1  C   UNL     1      35.676   1.756  16.045  0.00  0.00    +0.000 A 
ATOM      2  N   UNL     1      34.701   1.434  16.879  0.00  0.00    +0.000 NA
ATOM      3  C   UNL     1      34.713   0.251  17.524  0.00  0.00    +0.000 A 
ATOM      4  C   UNL     1      35.708  -0.647  17.337  0.00  0.00    +0.000 A 
ATOM      5  N   UNL     1      35.913  -1.932  17.852  0.00  0.00    +0.000 NA
ATOM      6  C   UNL     1      37.039  -2.404  17.334  0.00  0.00    +0.000 A 
ATOM      7  C   UNL     1      37.669  -3.598  17.610  0.00  0.00    +0.000 A 
ATOM      8  C   UNL     1      38.880  -3.815  16.986  0.00  0.00    +0.000 A 
ATOM      9  C   UNL     1      39.458  -2.967  16.154  0.00  0.00    +0.000 A 
ATOM     10  C   UNL     1      38.858  -1.714  15.826  0.00  0.00    +0.000 A 
ATOM     11  C   UNL     1      37.582  -1.497  16.484  0.00  0.00    +0.000 A 
ATOM     12  C   UNL     1      36.780  -0.407  16.486  0.00  0.00    +0.000 A 
ATOM     13  C   UNL     1      36.740   0.817  15.844  0.00  0.00    +0.000 A 
ENDROOT
BRANCH   1  16
ATOM     14  C   UNL     1      35.806   4.833  14.045  0.00  0.00    +0.000 A 
ATOM     15  C   UNL     1      35.223   3.571  14.344  0.00  0.00    +0.000 A 
ATOM     16  C   UNL     1      35.849   3.061  15.447  0.00  0.00    +0.000 A 
ATOM     17  N   UNL     1      36.750   4.027  15.782  0.00  0.00    +0.000 NA
ATOM     18  O   UNL     1      36.688   5.018  14.951  0.00  0.00    +0.000 OA
BRANCH  14  19
ATOM     19  O   UNL     1      35.385   5.545  12.931  0.00  0.00    +0.000 OA
BRANCH  19  21
ATOM     20  C   UNL     1      33.647   6.943  13.876  0.00  0.00    +0.000 C 
ATOM     21  C   UNL     1      34.984   6.908  13.242  0.00  0.00    +0.000 C 
ENDBRANCH  19  21
ENDBRANCH  14  19
ENDBRANCH   1  16
BRANCH   9  22
ATOM     22  O   UNL     1      40.772  -3.256  15.514  0.00  0.00    +0.000 OA
BRANCH  22  23
ATOM     23  C   UNL     1      40.821  -2.431  14.328  0.00  0.00    +0.000 C 
BRANCH  23  24
ATOM     24  C   UNL     1      41.955  -1.516  14.303  0.00  0.00    +0.000 A 
ATOM     25  C   UNL     1      41.640  -0.267  13.618  0.00  0.00    +0.000 A 
ATOM     26  C   UNL     1      42.592   0.659  13.362  0.00  0.00    +0.000 A 
ATOM     27  C   UNL     1      43.905   0.419  13.777  0.00  0.00    +0.000 A 
ATOM     28  C   UNL     1      44.273  -0.724  14.431  0.00  0.00    +0.000 A 
ATOM     29  C   UNL     1      43.244  -1.673  14.666  0.00  0.00    +0.000 A 
ENDBRANCH  23  24
ENDBRANCH  22  23
ENDBRANCH   9  22
BRANCH  13  30
ATOM     30  C   UNL     1      37.746   1.299  14.923  0.00  0.00    +0.000 C 
BRANCH  30  31
ATOM     31  O   UNL     1      38.080   0.981  13.763  0.00  0.00    +0.000 OA
ATOM     32  C   UNL     1      38.111   0.701  12.518  0.00  0.00    +0.000 C 
ENDBRANCH  30  31
ENDBRANCH  13  30
TORSDOF 8
ENDMDL
MODEL 2
REMARK VINA RESULT:      -7.2      3.535      7.181
REMARK  Name = 
REMARK  8 active torsions:
REMARK  status: ('A' for Active; 'I' for Inactive)
REMARK    1  A    between atoms: C_2  and  O_3
REMARK    2  A    between atoms: O_3  and  C_4
REMARK    3  A    between atoms: C_6  and  C_7
REMARK    4  A    between atoms: C_15  and  O_16
REMARK    5  A    between atoms: O_16  and  C_17
REMARK    6  A    between atoms: C_17  and  C_18
REMARK    7  A    between atoms: C_27  and  C_28
REMARK    8  A    between atoms: C_28  and  O_29
REMARK                            x       y       z     vdW  Elec       q    Type
REMARK                         _______ _______ _______ _____ _____    ______ ____
ROOT
ATOM      1  C   UNL     1      38.716  -2.363  14.217  0.00  0.00    +0.000 A 
ATOM      2  N   UNL     1      37.775  -3.226  14.564  0.00  0.00    +0.000 NA
ATOM      3  C   UNL     1      36.644  -2.801  15.161  0.00  0.00    +0.000 A 
ATOM      4  C   UNL     1      36.434  -1.493  15.435  0.00  0.00    +0.000 A 
ATOM      5  N   UNL     1      35.379  -0.831  16.073  0.00  0.00    +0.000 NA
ATOM      6  C   UNL     1      35.673   0.463  16.110  0.00  0.00    +0.000 A 
ATOM      7  C   UNL     1      34.895   1.499  16.579  0.00  0.00    +0.000 A 
ATOM      8  C   UNL     1      35.408   2.771  16.429  0.00  0.00    +0.000 A 
ATOM      9  C   UNL     1      36.577   3.049  15.879  0.00  0.00    +0.000 A 
ATOM     10  C   UNL     1      37.429   2.021  15.375  0.00  0.00    +0.000 A 
ATOM     11  C   UNL     1      36.883   0.686  15.541  0.00  0.00    +0.000 A 
ATOM     12  C   UNL     1      37.358  -0.506  15.110  0.00  0.00    +0.000 A 
ATOM     13  C   UNL     1      38.504  -0.973  14.494  0.00  0.00    +0.000 A 
ENDROOT
BRANCH   1  16
ATOM     14  C   UNL     1      41.252  -3.312  11.736  0.00  0.00    +0.000 A 
ATOM     15  C   UNL     1      39.940  -2.871  12.064  0.00  0.00    +0.000 A 
ATOM     16  C   UNL     1      39.876  -2.689  13.417  0.00  0.00    +0.000 A 
ATOM     17  N   UNL     1      41.133  -2.995  13.845  0.00  0.00    +0.000 NA
ATOM     18  O   UNL     1      41.881  -3.346  12.848  0.00  0.00    +0.000 OA
BRANCH  14  19
ATOM     19  O   UNL     1      41.571  -3.623  10.423  0.00  0.00    +0.000 OA
BRANCH  19  21
ATOM     20  C   UNL     1      40.969  -2.657   8.284  0.00  0.00    +0.000 C 
ATOM     21  C   UNL     1      41.677  -2.451   9.568  0.00  0.00    +0.000 C 
ENDBRANCH  19  21
ENDBRANCH  14  19
ENDBRANCH   1  16
BRANCH   9  22
ATOM     22  O   UNL     1      37.075   4.446  15.740  0.00  0.00    +0.000 OA
BRANCH  22  23
ATOM     23  C   UNL     1      38.517   4.352  15.759  0.00  0.00    +0.000 C 
BRANCH  23  24
ATOM     24  C   UNL     1      39.135   5.096  16.849  0.00  0.00    +0.000 A 
ATOM     25  C   UNL     1      40.321   5.826  16.415  0.00  0.00    +0.000 A 
ATOM     26  C   UNL     1      41.120   6.466  17.298  0.00  0.00    +0.000 A 
ATOM     27  C   UNL     1      40.792   6.440  18.657  0.00  0.00    +0.000 A 
ATOM     28  C   UNL     1      39.693   5.784  19.136  0.00  0.00    +0.000 A 
ATOM     29  C   UNL     1      38.891   5.115  18.175  0.00  0.00    +0.000 A 
ENDBRANCH  23  24
ENDBRANCH  22  23
ENDBRANCH   9  22
BRANCH  13  30
ATOM     30  C   UNL     1      39.600  -0.139  14.051  0.00  0.00    +0.000 C 
BRANCH  30  31
ATOM     31  O   UNL     1      39.746   0.672  13.115  0.00  0.00    +0.000 OA
ATOM     32  C   UNL     1      39.576   1.479  12.140  0.00  0.00    +0.000 C 
ENDBRANCH  30  31
ENDBRANCH  13  30
TORSDOF 8
ENDMDL
MODEL 3
REMARK VINA RESULT:      -7.2      2.753      7.191
REMARK  Name = 
REMARK  8 active torsions:
REMARK  status: ('A' for Active; 'I' for Inactive)
REMARK    1  A    between atoms: C_2  and  O_3
REMARK    2  A    between atoms: O_3  and  C_4
REMARK    3  A    between atoms: C_6  and  C_7
REMARK    4  A    between atoms: C_15  and  O_16
REMARK    5  A    between atoms: O_16  and  C_17
REMARK    6  A    between atoms: C_17  and  C_18
REMARK    7  A    between atoms: C_27  and  C_28
REMARK    8  A    between atoms: C_28  and  O_29
REMARK                            x       y       z     vdW  Elec       q    Type
REMARK                         _______ _______ _______ _____ _____    ______ ____
ROOT
ATOM      1  C   UNL     1      40.149  -2.613  15.328  0.00  0.00    +0.000 A 
ATOM      2  N   UNL     1      39.958  -3.611  16.176  0.00  0.00    +0.000 NA
ATOM      3  C   UNL     1      38.903  -3.606  17.014  0.00  0.00    +0.000 A 
ATOM      4  C   UNL     1      38.013  -2.587  17.026  0.00  0.00    +0.000 A 
ATOM      5  N   UNL     1      36.885  -2.344  17.818  0.00  0.00    +0.000 NA
ATOM      6  C   UNL     1      36.366  -1.182  17.443  0.00  0.00    +0.000 A 
ATOM      7  C   UNL     1      35.213  -0.578  17.895  0.00  0.00    +0.000 A 
ATOM      8  C   UNL     1      34.853   0.603  17.279  0.00  0.00    +0.000 A 
ATOM      9  C   UNL     1      35.535   1.180  16.305  0.00  0.00    +0.000 A 
ATOM     10  C   UNL     1      36.737   0.606  15.792  0.00  0.00    +0.000 A 
ATOM     11  C   UNL     1      37.110  -0.634  16.450  0.00  0.00    +0.000 A 
ATOM     12  C   UNL     1      38.119  -1.494  16.175  0.00  0.00    +0.000 A 
ATOM     13  C   UNL     1      39.209  -1.531  15.325  0.00  0.00    +0.000 A 
ENDROOT
BRANCH   1  16
ATOM     14  C   UNL     1      42.328  -3.060  12.407  0.00  0.00    +0.000 A 
ATOM     15  C   UNL     1      41.074  -3.225  13.056  0.00  0.00    +0.000 A 
ATOM     16  C   UNL     1      41.138  -2.608  14.274  0.00  0.00    +0.000 A 
ATOM     17  N   UNL     1      42.395  -2.081  14.303  0.00  0.00    +0.000 NA
ATOM     18  O   UNL     1      43.035  -2.367  13.215  0.00  0.00    +0.000 OA
BRANCH  14  19
ATOM     19  O   UNL     1      42.549  -3.642  11.168  0.00  0.00    +0.000 OA
BRANCH  19  21
ATOM     20  C   UNL     1      40.974  -3.204   9.379  0.00  0.00    +0.000 C 
ATOM     21  C   UNL     1      42.215  -2.764  10.057  0.00  0.00    +0.000 C 
ENDBRANCH  19  21
ENDBRANCH  14  19
ENDBRANCH   1  16
BRANCH   9  22
ATOM     22  O   UNL     1      35.092   2.455  15.675  0.00  0.00    +0.000 OA
BRANCH  22  23
ATOM     23  C   UNL     1      36.253   2.980  14.994  0.00  0.00    +0.000 C 
BRANCH  23  24
ATOM     24  C   UNL     1      36.972   3.987  15.762  0.00  0.00    +0.000 A 
ATOM     25  C   UNL     1      37.173   5.218  15.005  0.00  0.00    +0.000 A 
ATOM     26  C   UNL     1      37.938   6.226  15.483  0.00  0.00    +0.000 A 
ATOM     27  C   UNL     1      38.537   6.090  16.740  0.00  0.00    +0.000 A 
ATOM     28  C   UNL     1      38.387   4.971  17.509  0.00  0.00    +0.000 A 
ATOM     29  C   UNL     1      37.587   3.933  16.961  0.00  0.00    +0.000 A 
ENDBRANCH  23  24
ENDBRANCH  22  23
ENDBRANCH   9  22
BRANCH  13  30
ATOM     30  C   UNL     1      39.524  -0.518  14.343  0.00  0.00    +0.000 C 
BRANCH  30  31
ATOM     31  O   UNL     1      39.814   0.694  14.412  0.00  0.00    +0.000 OA
ATOM     32  C   UNL     1      39.824   1.969  14.345  0.00  0.00    +0.000 C 
ENDBRANCH  30  31
ENDBRANCH  13  30
TORSDOF 8
ENDMDL
MODEL 4
REMARK VINA RESULT:      -7.1      2.497      3.052
REMARK  Name = 
REMARK  8 active torsions:
REMARK  status: ('A' for Active; 'I' for Inactive)
REMARK    1  A    between atoms: C_2  and  O_3
REMARK    2  A    between atoms: O_3  and  C_4
REMARK    3  A    between atoms: C_6  and  C_7
REMARK    4  A    between atoms: C_15  and  O_16
REMARK    5  A    between atoms: O_16  and  C_17
REMARK    6  A    between atoms: C_17  and  C_18
REMARK    7  A    between atoms: C_27  and  C_28
REMARK    8  A    between atoms: C_28  and  O_29
REMARK                            x       y       z     vdW  Elec       q    Type
REMARK                         _______ _______ _______ _____ _____    ______ ____
ROOT
ATOM      1  C   UNL     1      36.438   2.532  16.086  0.00  0.00    +0.000 A 
ATOM      2  N   UNL     1      35.422   2.220  16.875  0.00  0.00    +0.000 NA
ATOM      3  C   UNL     1      34.978   0.950  16.949  0.00  0.00    +0.000 A 
ATOM      4  C   UNL     1      35.540  -0.042  16.220  0.00  0.00    +0.000 A 
ATOM      5  N   UNL     1      35.231  -1.401  16.100  0.00  0.00    +0.000 NA
ATOM      6  C   UNL     1      36.079  -1.937  15.231  0.00  0.00    +0.000 A 
ATOM      7  C   UNL     1      36.195  -3.258  14.857  0.00  0.00    +0.000 A 
ATOM      8  C   UNL     1      37.219  -3.564  13.985  0.00  0.00    +0.000 A 
ATOM      9  C   UNL     1      38.074  -2.686  13.494  0.00  0.00    +0.000 A 
ATOM     10  C   UNL     1      38.008  -1.303  13.840  0.00  0.00    +0.000 A 
ATOM     11  C   UNL     1      36.924  -0.989  14.754  0.00  0.00    +0.000 A 
ATOM     12  C   UNL     1      36.613   0.179  15.364  0.00  0.00    +0.000 A 
ATOM     13  C   UNL     1      37.048   1.490  15.315  0.00  0.00    +0.000 A 
ENDROOT
BRANCH   1  16
ATOM     14  C   UNL     1      38.214   5.696  16.648  0.00  0.00    +0.000 A 
ATOM     15  C   UNL     1      37.897   4.365  17.036  0.00  0.00    +0.000 A 
ATOM     16  C   UNL     1      37.101   3.817  16.070  0.00  0.00    +0.000 A 
ATOM     17  N   UNL     1      36.991   4.807  15.140  0.00  0.00    +0.000 NA
ATOM     18  O   UNL     1      37.643   5.861  15.516  0.00  0.00    +0.000 OA
BRANCH  14  19
ATOM     19  O   UNL     1      38.973   6.500  17.485  0.00  0.00    +0.000 OA
BRANCH  19  21
ATOM     20  C   UNL     1      39.795   6.517  19.765  0.00  0.00    +0.000 C 
ATOM     21  C   UNL     1      39.690   5.749  18.504  0.00  0.00    +0.000 C 
ENDBRANCH  19  21
ENDBRANCH  14  19
ENDBRANCH   1  16
BRANCH   9  22
ATOM     22  O   UNL     1      39.164  -3.080  12.558  0.00  0.00    +0.000 OA
BRANCH  22  23
ATOM     23  C   UNL     1      40.019  -1.920  12.440  0.00  0.00    +0.000 C 
BRANCH  23  24
ATOM     24  C   UNL     1      41.380  -2.151  12.906  0.00  0.00    +0.000 A 
ATOM     25  C   UNL     1      41.742  -1.266  14.009  0.00  0.00    +0.000 A 
ATOM     26  C   UNL     1      43.003  -1.221  14.494  0.00  0.00    +0.000 A 
ATOM     27  C   UNL     1      43.979  -2.053  13.936  0.00  0.00    +0.000 A 
ATOM     28  C   UNL     1      43.712  -2.913  12.907  0.00  0.00    +0.000 A 
ATOM     29  C   UNL     1      42.378  -2.916  12.421  0.00  0.00    +0.000 A 
ENDBRANCH  23  24
ENDBRANCH  22  23
ENDBRANCH   9  22
BRANCH  13  30
ATOM     30  C   UNL     1      38.153   1.962  14.510  0.00  0.00    +0.000 C 
BRANCH  30  31
ATOM     31  O   UNL     1      38.326   2.121  13.284  0.00  0.00    +0.000 OA
ATOM     32  C   UNL     1      38.390   1.983  12.016  0.00  0.00    +0.000 C 
ENDBRANCH  30  31
ENDBRANCH  13  30
TORSDOF 8
ENDMDL
MODEL 5
REMARK VINA RESULT:      -7.1      2.563      7.698
REMARK  Name = 
REMARK  8 active torsions:
REMARK  status: ('A' for Active; 'I' for Inactive)
REMARK    1  A    between atoms: C_2  and  O_3
REMARK    2  A    between atoms: O_3  and  C_4
REMARK    3  A    between atoms: C_6  and  C_7
REMARK    4  A    between atoms: C_15  and  O_16
REMARK    5  A    between atoms: O_16  and  C_17
REMARK    6  A    between atoms: C_17  and  C_18
REMARK    7  A    between atoms: C_27  and  C_28
REMARK    8  A    between atoms: C_28  and  O_29
REMARK                            x       y       z     vdW  Elec       q    Type
REMARK                         _______ _______ _______ _____ _____    ______ ____
ROOT
ATOM      1  C   UNL     1      40.097  -2.589  15.286  0.00  0.00    +0.000 A 
ATOM      2  N   UNL     1      39.967  -3.551  16.185  0.00  0.00    +0.000 NA
ATOM      3  C   UNL     1      38.935  -3.545  17.051  0.00  0.00    +0.000 A 
ATOM      4  C   UNL     1      38.006  -2.561  17.040  0.00  0.00    +0.000 A 
ATOM      5  N   UNL     1      36.891  -2.322  17.851  0.00  0.00    +0.000 NA
ATOM      6  C   UNL     1      36.318  -1.199  17.436  0.00  0.00    +0.000 A 
ATOM      7  C   UNL     1      35.155  -0.618  17.892  0.00  0.00    +0.000 A 
ATOM      8  C   UNL     1      34.734   0.517  17.231  0.00  0.00    +0.000 A 
ATOM      9  C   UNL     1      35.367   1.072  16.212  0.00  0.00    +0.000 A 
ATOM     10  C   UNL     1      36.577   0.519  15.694  0.00  0.00    +0.000 A 
ATOM     11  C   UNL     1      37.014  -0.673  16.398  0.00  0.00    +0.000 A 
ATOM     12  C   UNL     1      38.048  -1.506  16.136  0.00  0.00    +0.000 A 
ATOM     13  C   UNL     1      39.116  -1.544  15.259  0.00  0.00    +0.000 A 
ENDROOT
BRANCH   1  16
ATOM     14  C   UNL     1      42.189  -3.065  12.306  0.00  0.00    +0.000 A 
ATOM     15  C   UNL     1      40.950  -3.211  12.989  0.00  0.00    +0.000 A 
ATOM     16  C   UNL     1      41.057  -2.597  14.205  0.00  0.00    +0.000 A 
ATOM     17  N   UNL     1      42.323  -2.091  14.202  0.00  0.00    +0.000 NA
ATOM     18  O   UNL     1      42.929  -2.386  13.096  0.00  0.00    +0.000 OA
BRANCH  14  19
ATOM     19  O   UNL     1      42.367  -3.648  11.060  0.00  0.00    +0.000 OA
BRANCH  19  21
ATOM     20  C   UNL     1      44.462  -4.776  10.603  0.00  0.00    +0.000 C 
ATOM     21  C   UNL     1      43.720  -3.496  10.547  0.00  0.00    +0.000 C 
ENDBRANCH  19  21
ENDBRANCH  14  19
ENDBRANCH   1  16
BRANCH   9  22
ATOM     22  O   UNL     1      34.859   2.298  15.535  0.00  0.00    +0.000 OA
BRANCH  22  23
ATOM     23  C   UNL     1      36.024   3.108  15.263  0.00  0.00    +0.000 C 
BRANCH  23  24
ATOM     24  C   UNL     1      35.826   4.068  14.185  0.00  0.00    +0.000 A 
ATOM     25  C   UNL     1      36.754   3.854  13.080  0.00  0.00    +0.000 A 
ATOM     26  C   UNL     1      36.831   4.719  12.044  0.00  0.00    +0.000 A 
ATOM     27  C   UNL     1      35.991   5.837  12.025  0.00  0.00    +0.000 A 
ATOM     28  C   UNL     1      35.092   6.099  13.021  0.00  0.00    +0.000 A 
ATOM     29  C   UNL     1      35.056   5.171  14.095  0.00  0.00    +0.000 A 
ENDBRANCH  23  24
ENDBRANCH  22  23
ENDBRANCH   9  22
BRANCH  13  30
ATOM     30  C   UNL     1      39.366  -0.568  14.221  0.00  0.00    +0.000 C 
BRANCH  30  31
ATOM     31  O   UNL     1      39.706   0.633  14.226  0.00  0.00    +0.000 OA
ATOM     32  C   UNL     1      39.739   1.908  14.266  0.00  0.00    +0.000 C 
ENDBRANCH  30  31
ENDBRANCH  13  30
TORSDOF 8
ENDMDL
MODEL 6
REMARK VINA RESULT:      -7.1      2.277      7.875
REMARK  Name = 
REMARK  8 active torsions:
REMARK  status: ('A' for Active; 'I' for Inactive)
REMARK    1  A    between atoms: C_2  and  O_3
REMARK    2  A    between atoms: O_3  and  C_4
REMARK    3  A    between atoms: C_6  and  C_7
REMARK    4  A    between atoms: C_15  and  O_16
REMARK    5  A    between atoms: O_16  and  C_17
REMARK    6  A    between atoms: C_17  and  C_18
REMARK    7  A    between atoms: C_27  and  C_28
REMARK    8  A    between atoms: C_28  and  O_29
REMARK                            x       y       z     vdW  Elec       q    Type
REMARK                         _______ _______ _______ _____ _____    ______ ____
ROOT
ATOM      1  C   UNL     1      40.036  -2.400  15.240  0.00  0.00    +0.000 A 
ATOM      2  N   UNL     1      39.881  -3.244  16.247  0.00  0.00    +0.000 NA
ATOM      3  C   UNL     1      38.859  -3.096  17.113  0.00  0.00    +0.000 A 
ATOM      4  C   UNL     1      37.968  -2.086  16.992  0.00  0.00    +0.000 A 
ATOM      5  N   UNL     1      36.871  -1.711  17.777  0.00  0.00    +0.000 NA
ATOM      6  C   UNL     1      36.336  -0.623  17.236  0.00  0.00    +0.000 A 
ATOM      7  C   UNL     1      35.201   0.052  17.627  0.00  0.00    +0.000 A 
ATOM      8  C   UNL     1      34.814   1.117  16.840  0.00  0.00    +0.000 A 
ATOM      9  C   UNL     1      35.456   1.523  15.759  0.00  0.00    +0.000 A 
ATOM     10  C   UNL     1      36.639   0.867  15.301  0.00  0.00    +0.000 A 
ATOM     11  C   UNL     1      37.039  -0.249  16.138  0.00  0.00    +0.000 A 
ATOM     12  C   UNL     1      38.039  -1.147  15.970  0.00  0.00    +0.000 A 
ATOM     13  C   UNL     1      39.095  -1.329  15.096  0.00  0.00    +0.000 A 
ENDROOT
BRANCH   1  16
ATOM     14  C   UNL     1      42.770  -2.399  12.789  0.00  0.00    +0.000 A 
ATOM     15  C   UNL     1      42.267  -2.110  14.087  0.00  0.00    +0.000 A 
ATOM     16  C   UNL     1      40.984  -2.573  14.161  0.00  0.00    +0.000 A 
ATOM     17  N   UNL     1      40.772  -3.137  12.939  0.00  0.00    +0.000 NA
ATOM     18  O   UNL     1      41.821  -3.012  12.191  0.00  0.00    +0.000 OA
BRANCH  14  19
ATOM     19  O   UNL     1      44.044  -1.985  12.431  0.00  0.00    +0.000 OA
BRANCH  19  21
ATOM     20  C   UNL     1      45.277  -4.064  12.259  0.00  0.00    +0.000 C 
ATOM     21  C   UNL     1      45.096  -2.804  13.014  0.00  0.00    +0.000 C 
ENDBRANCH  19  21
ENDBRANCH  14  19
ENDBRANCH   1  16
BRANCH   9  22
ATOM     22  O   UNL     1      34.987   2.679  14.945  0.00  0.00    +0.000 OA
BRANCH  22  23
ATOM     23  C   UNL     1      36.183   3.347  14.485  0.00  0.00    +0.000 C 
BRANCH  23  24
ATOM     24  C   UNL     1      35.915   4.524  13.669  0.00  0.00    +0.000 A 
ATOM     25  C   UNL     1      34.823   5.329  14.206  0.00  0.00    +0.000 A 
ATOM     26  C   UNL     1      34.323   6.386  13.526  0.00  0.00    +0.000 A 
ATOM     27  C   UNL     1      34.877   6.723  12.287  0.00  0.00    +0.000 A 
ATOM     28  C   UNL     1      35.907   6.021  11.726  0.00  0.00    +0.000 A 
ATOM     29  C   UNL     1      36.390   4.911  12.468  0.00  0.00    +0.000 A 
ENDBRANCH  23  24
ENDBRANCH  22  23
ENDBRANCH   9  22
BRANCH  13  30
ATOM     30  C   UNL     1      39.369  -0.492  13.948  0.00  0.00    +0.000 C 
BRANCH  30  31
ATOM     31  O   UNL     1      38.762  -0.255  12.885  0.00  0.00    +0.000 OA
ATOM     32  C   UNL     1      37.882  -0.039  11.985  0.00  0.00    +0.000 C 
ENDBRANCH  30  31
ENDBRANCH  13  30
TORSDOF 8
ENDMDL
MODEL 7
REMARK VINA RESULT:      -7.1      3.063      3.728
REMARK  Name = 
REMARK  8 active torsions:
REMARK  status: ('A' for Active; 'I' for Inactive)
REMARK    1  A    between atoms: C_2  and  O_3
REMARK    2  A    between atoms: O_3  and  C_4
REMARK    3  A    between atoms: C_6  and  C_7
REMARK    4  A    between atoms: C_15  and  O_16
REMARK    5  A    between atoms: O_16  and  C_17
REMARK    6  A    between atoms: C_17  and  C_18
REMARK    7  A    between atoms: C_27  and  C_28
REMARK    8  A    between atoms: C_28  and  O_29
REMARK                            x       y       z     vdW  Elec       q    Type
REMARK                         _______ _______ _______ _____ _____    ______ ____
ROOT
ATOM      1  C   UNL     1      36.402   2.521  16.058  0.00  0.00    +0.000 A 
ATOM      2  N   UNL     1      35.414   2.248  16.895  0.00  0.00    +0.000 NA
ATOM      3  C   UNL     1      34.952   0.989  17.022  0.00  0.00    +0.000 A 
ATOM      4  C   UNL     1      35.469  -0.032  16.301  0.00  0.00    +0.000 A 
ATOM      5  N   UNL     1      35.134  -1.389  16.233  0.00  0.00    +0.000 NA
ATOM      6  C   UNL     1      35.937  -1.963  15.346  0.00  0.00    +0.000 A 
ATOM      7  C   UNL     1      36.016  -3.296  15.006  0.00  0.00    +0.000 A 
ATOM      8  C   UNL     1      36.999  -3.645  14.103  0.00  0.00    +0.000 A 
ATOM      9  C   UNL     1      37.848  -2.796  13.553  0.00  0.00    +0.000 A 
ATOM     10  C   UNL     1      37.818  -1.402  13.862  0.00  0.00    +0.000 A 
ATOM     11  C   UNL     1      36.778  -1.045  14.809  0.00  0.00    +0.000 A 
ATOM     12  C   UNL     1      36.510   0.145  15.397  0.00  0.00    +0.000 A 
ATOM     13  C   UNL     1      36.964   1.447  15.293  0.00  0.00    +0.000 A 
ENDROOT
BRANCH   1  16
ATOM     14  C   UNL     1      38.329   5.624  16.430  0.00  0.00    +0.000 A 
ATOM     15  C   UNL     1      38.050   4.283  16.812  0.00  0.00    +0.000 A 
ATOM     16  C   UNL     1      37.085   3.793  15.978  0.00  0.00    +0.000 A 
ATOM     17  N   UNL     1      36.840   4.826  15.124  0.00  0.00    +0.000 NA
ATOM     18  O   UNL     1      37.574   5.849  15.423  0.00  0.00    +0.000 OA
BRANCH  14  19
ATOM     19  O   UNL     1      39.242   6.376  17.154  0.00  0.00    +0.000 OA
BRANCH  19  21
ATOM     20  C   UNL     1      39.436   6.527  19.564  0.00  0.00    +0.000 C 
ATOM     21  C   UNL     1      39.703   5.708  18.361  0.00  0.00    +0.000 C 
ENDBRANCH  19  21
ENDBRANCH  14  19
ENDBRANCH   1  16
BRANCH   9  22
ATOM     22  O   UNL     1      38.893  -3.234  12.586  0.00  0.00    +0.000 OA
BRANCH  22  23
ATOM     23  C   UNL     1      39.691  -2.061  12.311  0.00  0.00    +0.000 C 
BRANCH  23  24
ATOM     24  C   UNL     1      40.112  -1.956  10.920  0.00  0.00    +0.000 A 
ATOM     25  C   UNL     1      39.965  -0.601  10.401  0.00  0.00    +0.000 A 
ATOM     26  C   UNL     1      40.167  -0.319   9.094  0.00  0.00    +0.000 A 
ATOM     27  C   UNL     1      40.542  -1.348   8.224  0.00  0.00    +0.000 A 
ATOM     28  C   UNL     1      40.707  -2.640   8.641  0.00  0.00    +0.000 A 
ATOM     29  C   UNL     1      40.471  -2.892  10.018  0.00  0.00    +0.000 A 
ENDBRANCH  23  24
ENDBRANCH  22  23
ENDBRANCH   9  22
BRANCH  13  30
ATOM     30  C   UNL     1      38.043   1.877  14.432  0.00  0.00    +0.000 C 
BRANCH  30  31
ATOM     31  O   UNL     1      39.232   1.525  14.292  0.00  0.00    +0.000 OA
ATOM     32  C   UNL     1      40.453   1.404  13.936  0.00  0.00    +0.000 C 
ENDBRANCH  30  31
ENDBRANCH  13  30
TORSDOF 8
ENDMDL
MODEL 8
REMARK VINA RESULT:      -7.0      4.125      8.009
REMARK  Name = 
REMARK  8 active torsions:
REMARK  status: ('A' for Active; 'I' for Inactive)
REMARK    1  A    between atoms: C_2  and  O_3
REMARK    2  A    between atoms: O_3  and  C_4
REMARK    3  A    between atoms: C_6  and  C_7
REMARK    4  A    between atoms: C_15  and  O_16
REMARK    5  A    between atoms: O_16  and  C_17
REMARK    6  A    between atoms: C_17  and  C_18
REMARK    7  A    between atoms: C_27  and  C_28
REMARK    8  A    between atoms: C_28  and  O_29
REMARK                            x       y       z     vdW  Elec       q    Type
REMARK                         _______ _______ _______ _____ _____    ______ ____
ROOT
ATOM      1  C   UNL     1      38.842  -1.586  14.112  0.00  0.00    +0.000 A 
ATOM      2  N   UNL     1      39.711  -1.736  13.125  0.00  0.00    +0.000 NA
ATOM      3  C   UNL     1      40.379  -0.674  12.634  0.00  0.00    +0.000 A 
ATOM      4  C   UNL     1      40.182   0.574  13.118  0.00  0.00    +0.000 A 
ATOM      5  N   UNL     1      40.717   1.813  12.749  0.00  0.00    +0.000 NA
ATOM      6  C   UNL     1      40.176   2.740  13.529  0.00  0.00    +0.000 A 
ATOM      7  C   UNL     1      40.458   4.088  13.572  0.00  0.00    +0.000 A 
ATOM      8  C   UNL     1      39.803   4.824  14.537  0.00  0.00    +0.000 A 
ATOM      9  C   UNL     1      38.937   4.327  15.402  0.00  0.00    +0.000 A 
ATOM     10  C   UNL     1      38.601   2.939  15.410  0.00  0.00    +0.000 A 
ATOM     11  C   UNL     1      39.292   2.174  14.387  0.00  0.00    +0.000 A 
ATOM     12  C   UNL     1      39.295   0.840  14.154  0.00  0.00    +0.000 A 
ATOM     13  C   UNL     1      38.629  -0.270  14.639  0.00  0.00    +0.000 A 
ENDROOT
BRANCH   1  16
ATOM     14  C   UNL     1      36.733  -4.194  15.607  0.00  0.00    +0.000 A 
ATOM     15  C   UNL     1      37.005  -3.263  14.567  0.00  0.00    +0.000 A 
ATOM     16  C   UNL     1      38.212  -2.674  14.825  0.00  0.00    +0.000 A 
ATOM     17  N   UNL     1      38.627  -3.278  15.974  0.00  0.00    +0.000 NA
ATOM     18  O   UNL     1      37.748  -4.137  16.382  0.00  0.00    +0.000 OA
BRANCH  14  19
ATOM     19  O   UNL     1      35.537  -4.895  15.615  0.00  0.00    +0.000 OA
BRANCH  19  21
ATOM     20  C   UNL     1      33.656  -4.827  14.088  0.00  0.00    +0.000 C 
ATOM     21  C   UNL     1      34.410  -4.107  15.139  0.00  0.00    +0.000 C 
ENDBRANCH  19  21
ENDBRANCH  14  19
ENDBRANCH   1  16
BRANCH   9  22
ATOM     22  O   UNL     1      38.265   5.173  16.427  0.00  0.00    +0.000 OA
BRANCH  22  23
ATOM     23  C   UNL     1      38.832   4.778  17.696  0.00  0.00    +0.000 C 
BRANCH  23  24
ATOM     24  C   UNL     1      39.022   5.889  18.620  0.00  0.00    +0.000 A 
ATOM     25  C   UNL     1      38.096   6.986  18.359  0.00  0.00    +0.000 A 
ATOM     26  C   UNL     1      38.197   8.166  19.011  0.00  0.00    +0.000 A 
ATOM     27  C   UNL     1      39.202   8.332  19.969  0.00  0.00    +0.000 A 
ATOM     28  C   UNL     1      40.099   7.346  20.273  0.00  0.00    +0.000 A 
ATOM     29  C   UNL     1      39.964   6.130  19.554  0.00  0.00    +0.000 A 
ENDBRANCH  23  24
ENDBRANCH  22  23
ENDBRANCH   9  22
BRANCH  13  30
ATOM     30  C   UNL     1      37.669  -0.249  15.721  0.00  0.00    +0.000 C 
BRANCH  30  31
ATOM     31  O   UNL     1      36.519   0.219  15.849  0.00  0.00    +0.000 OA
ATOM     32  C   UNL     1      35.340   0.511  16.241  0.00  0.00    +0.000 C 
ENDBRANCH  30  31
ENDBRANCH  13  30
TORSDOF 8
ENDMDL
MODEL 9
REMARK VINA RESULT:      -6.8     24.979     26.961
REMARK  Name = 
REMARK  8 active torsions:
REMARK  status: ('A' for Active; 'I' for Inactive)
REMARK    1  A    between atoms: C_2  and  O_3
REMARK    2  A    between atoms: O_3  and  C_4
REMARK    3  A    between atoms: C_6  and  C_7
REMARK    4  A    between atoms: C_15  and  O_16
REMARK    5  A    between atoms: O_16  and  C_17
REMARK    6  A    between atoms: C_17  and  C_18
REMARK    7  A    between atoms: C_27  and  C_28
REMARK    8  A    between atoms: C_28  and  O_29
REMARK                            x       y       z     vdW  Elec       q    Type
REMARK                         _______ _______ _______ _____ _____    ______ ____
ROOT
ATOM      1  C   UNL     1      30.550  15.945  34.534  0.00  0.00    +0.000 A 
ATOM      2  N   UNL     1      31.487  16.094  33.611  0.00  0.00    +0.000 NA
ATOM      3  C   UNL     1      32.656  15.431  33.709  0.00  0.00    +0.000 A 
ATOM      4  C   UNL     1      32.917  14.604  34.747  0.00  0.00    +0.000 A 
ATOM      5  N   UNL     1      34.050  13.854  35.081  0.00  0.00    +0.000 NA
ATOM      6  C   UNL     1      33.802  13.225  36.222  0.00  0.00    +0.000 A 
ATOM      7  C   UNL     1      34.602  12.322  36.889  0.00  0.00    +0.000 A 
ATOM      8  C   UNL     1      34.070  11.749  38.025  0.00  0.00    +0.000 A 
ATOM      9  C   UNL     1      32.868  12.011  38.506  0.00  0.00    +0.000 A 
ATOM     10  C   UNL     1      31.991  12.937  37.863  0.00  0.00    +0.000 A 
ATOM     11  C   UNL     1      32.561  13.538  36.671  0.00  0.00    +0.000 A 
ATOM     12  C   UNL     1      32.000  14.375  35.767  0.00  0.00    +0.000 A 
ATOM     13  C   UNL     1      30.810  15.066  35.635  0.00  0.00    +0.000 A 
ENDROOT
BRANCH   1  16
ATOM     14  C   UNL     1      26.979  16.690  34.113  0.00  0.00    +0.000 A 
ATOM     15  C   UNL     1      28.036  15.765  34.330  0.00  0.00    +0.000 A 
ATOM     16  C   UNL     1      29.205  16.466  34.430  0.00  0.00    +0.000 A 
ATOM     17  N   UNL     1      28.815  17.765  34.299  0.00  0.00    +0.000 NA
ATOM     18  O   UNL     1      27.535  17.841  34.119  0.00  0.00    +0.000 OA
BRANCH  14  19
ATOM     19  O   UNL     1      25.684  16.232  33.922  0.00  0.00    +0.000 OA
BRANCH  19  21
ATOM     20  C   UNL     1      25.200  14.651  32.151  0.00  0.00    +0.000 C 
ATOM     21  C   UNL     1      25.624  14.825  33.558  0.00  0.00    +0.000 C 
ENDBRANCH  19  21
ENDBRANCH  14  19
ENDBRANCH   1  16
BRANCH   9  22
ATOM     22  O   UNL     1      32.346  11.355  39.738  0.00  0.00    +0.000 OA
BRANCH  22  23
ATOM     23  C   UNL     1      30.985  11.819  39.883  0.00  0.00    +0.000 C 
BRANCH  23  24
ATOM     24  C   UNL     1      30.100  10.841  40.502  0.00  0.00    +0.000 A 
ATOM     25  C   UNL     1      30.836   9.730  41.095  0.00  0.00    +0.000 A 
ATOM     26  C   UNL     1      30.200   8.647  41.596  0.00  0.00    +0.000 A 
ATOM     27  C   UNL     1      28.803   8.599  41.558  0.00  0.00    +0.000 A 
ATOM     28  C   UNL     1      28.046   9.606  41.026  0.00  0.00    +0.000 A 
ATOM     29  C   UNL     1      28.758  10.716  40.499  0.00  0.00    +0.000 A 
ENDBRANCH  23  24
ENDBRANCH  22  23
ENDBRANCH   9  22
BRANCH  13  30
ATOM     30  C   UNL     1      29.700  14.982  36.559  0.00  0.00    +0.000 C 
BRANCH  30  31
ATOM     31  O   UNL     1      29.520  15.368  37.732  0.00  0.00    +0.000 OA
ATOM     32  C   UNL     1      29.541  15.525  38.999  0.00  0.00    +0.000 C 
ENDBRANCH  30  31
ENDBRANCH  13  30
TORSDOF 8
ENDMDL
MODEL 10
REMARK VINA RESULT:      -6.8     27.687     31.160
REMARK  Name = 
REMARK  8 active torsions:
REMARK  status: ('A' for Active; 'I' for Inactive)
REMARK    1  A    between atoms: C_2  and  O_3
REMARK    2  A    between atoms: O_3  and  C_4
REMARK    3  A    between atoms: C_6  and  C_7
REMARK    4  A    between atoms: C_15  and  O_16
REMARK    5  A    between atoms: O_16  and  C_17
REMARK    6  A    between atoms: C_17  and  C_18
REMARK    7  A    between atoms: C_27  and  C_28
REMARK    8  A    between atoms: C_28  and  O_29
REMARK                            x       y       z     vdW  Elec       q    Type
REMARK                         _______ _______ _______ _____ _____    ______ ____
ROOT
ATOM      1  C   UNL     1      25.884  11.224  43.125  0.00  0.00    +0.000 A 
ATOM      2  N   UNL     1      25.254  11.857  44.102  0.00  0.00    +0.000 NA
ATOM      3  C   UNL     1      24.827  13.123  43.935  0.00  0.00    +0.000 A 
ATOM      4  C   UNL     1      25.033  13.794  42.778  0.00  0.00    +0.000 A 
ATOM      5  N   UNL     1      24.725  15.103  42.390  0.00  0.00    +0.000 NA
ATOM      6  C   UNL     1      25.164  15.275  41.150  0.00  0.00    +0.000 A 
ATOM      7  C   UNL     1      25.018  16.381  40.341  0.00  0.00    +0.000 A 
ATOM      8  C   UNL     1      25.504  16.271  39.055  0.00  0.00    +0.000 A 
ATOM      9  C   UNL     1      26.094  15.196  38.564  0.00  0.00    +0.000 A 
ATOM     10  C   UNL     1      26.277  14.019  39.350  0.00  0.00    +0.000 A 
ATOM     11  C   UNL     1      25.766  14.145  40.704  0.00  0.00    +0.000 A 
ATOM     12  C   UNL     1      25.681  13.221  41.690  0.00  0.00    +0.000 A 
ATOM     13  C   UNL     1      26.102  11.920  41.892  0.00  0.00    +0.000 A 
ENDROOT
BRANCH   1  16
ATOM     14  C   UNL     1      27.293   7.841  43.358  0.00  0.00    +0.000 A 
ATOM     15  C   UNL     1      27.304   9.218  43.716  0.00  0.00    +0.000 A 
ATOM     16  C   UNL     1      26.220   9.818  43.139  0.00  0.00    +0.000 A 
ATOM     17  N   UNL     1      25.593   8.798  42.488  0.00  0.00    +0.000 NA
ATOM     18  O   UNL     1      26.245   7.690  42.642  0.00  0.00    +0.000 OA
BRANCH  14  19
ATOM     19  O   UNL     1      28.321   7.009  43.773  0.00  0.00    +0.000 OA
BRANCH  19  21
ATOM     20  C   UNL     1      29.060   5.806  45.742  0.00  0.00    +0.000 C 
ATOM     21  C   UNL     1      27.926   6.100  44.838  0.00  0.00    +0.000 C 
ENDBRANCH  19  21
ENDBRANCH  14  19
ENDBRANCH   1  16
BRANCH   9  22
ATOM     22  O   UNL     1      26.596  15.137  37.162  0.00  0.00    +0.000 OA
BRANCH  22  23
ATOM     23  C   UNL     1      26.104  16.334  36.519  0.00  0.00    +0.000 C 
BRANCH  23  24
ATOM     24  C   UNL     1      25.610  16.106  35.167  0.00  0.00    +0.000 A 
ATOM     25  C   UNL     1      25.899  14.756  34.695  0.00  0.00    +0.000 A 
ATOM     26  C   UNL     1      25.651  14.384  33.419  0.00  0.00    +0.000 A 
ATOM     27  C   UNL     1      25.089  15.311  32.536  0.00  0.00    +0.000 A 
ATOM     28  C   UNL     1      24.783  16.591  32.908  0.00  0.00    +0.000 A 
ATOM     29  C   UNL     1      25.074  16.940  34.253  0.00  0.00    +0.000 A 
ENDBRANCH  23  24
ENDBRANCH  22  23
ENDBRANCH   9  22
BRANCH  13  30
ATOM     30  C   UNL     1      26.786  11.112  40.906  0.00  0.00    +0.000 C 
BRANCH  30  31
ATOM     31  O   UNL     1      27.986  10.934  40.615  0.00  0.00    +0.000 OA
ATOM     32  C   UNL     1      29.198  10.537  40.554  0.00  0.00    +0.000 C 
ENDBRANCH  30  31
ENDBRANCH  13  30
TORSDOF 8
ENDMDL
