MODEL 1
REMARK VINA RESULT:      -8.8      0.000      0.000
REMARK  Name = 
REMARK  7 active torsions:
REMARK  status: ('A' for Active; 'I' for Inactive)
REMARK    1  A    between atoms: C_5  and  S_6
REMARK    2  A    between atoms: S_6  and  N_9
REMARK    3  A    between atoms: N_9  and  C_10
REMARK    4  A    between atoms: C_10  and  C_11
REMARK    5  A    between atoms: C_11  and  C_12
REMARK    6  A    between atoms: N_15  and  C_16
REMARK    7  A    between atoms: C_16  and  C_17
REMARK                            x       y       z     vdW  Elec       q    Type
REMARK                         _______ _______ _______ _____ _____    ______ ____
ROOT
ATOM      1  C   UNL     1      36.163   0.278  16.556  0.00  0.00    +0.000 A 
ATOM      2  C   UNL     1      36.663  -0.088  15.325  0.00  0.00    +0.000 A 
ATOM      3  C   UNL     1      36.310   0.549  14.035  0.00  0.00    +0.000 C 
ATOM      4  N   UNL     1      37.517  -1.111  15.475  0.00  0.00    +0.000 N 
ATOM      5  C   UNL     1      37.563  -1.394  16.789  0.00  0.00    +0.000 A 
ATOM      6  C   UNL     1      38.286  -2.358  17.466  0.00  0.00    +0.000 A 
ATOM      7  C   UNL     1      38.179  -2.477  18.830  0.00  0.00    +0.000 A 
ATOM      8  C   UNL     1      37.353  -1.633  19.519  0.00  0.00    +0.000 A 
ATOM      9  C   UNL     1      36.631  -0.676  18.864  0.00  0.00    +0.000 A 
ATOM     10  C   UNL     1      36.734  -0.555  17.500  0.00  0.00    +0.000 A 
ENDROOT
BRANCH   1  11
ATOM     11  C   UNL     1      35.198   1.341  16.922  0.00  0.00    +0.000 C 
BRANCH  11  12
ATOM     12  C   UNL     1      35.711   2.708  16.529  0.00  0.00    +0.000 C 
BRANCH  12  13
ATOM     13  N   UNL     1      36.993   2.961  17.160  0.00  0.00    +0.000 NA
BRANCH  13  14
ATOM     14  S   UNL     1      38.018   3.914  16.158  0.00  0.00    +0.000 S 
ATOM     15  O   UNL     1      38.864   2.962  15.351  0.00  0.00    +0.000 OA
ATOM     16  O   UNL     1      37.147   4.714  15.230  0.00  0.00    +0.000 OA
BRANCH  14  21
ATOM     17  C   UNL     1      41.659   7.465  19.481  0.00  0.00    +0.000 C 
ATOM     18  C   UNL     1      40.760   6.590  18.666  0.00  0.00    +0.000 A 
ATOM     19  C   UNL     1      40.959   6.428  17.310  0.00  0.00    +0.000 A 
ATOM     20  C   UNL     1      40.133   5.623  16.555  0.00  0.00    +0.000 A 
ATOM     21  C   UNL     1      39.071   4.941  17.111  0.00  0.00    +0.000 A 
ATOM     22  C   UNL     1      38.876   5.109  18.478  0.00  0.00    +0.000 A 
ATOM     23  C   UNL     1      39.701   5.914  19.232  0.00  0.00    +0.000 A 
ENDBRANCH  14  21
ENDBRANCH  13  14
ENDBRANCH  12  13
ENDBRANCH  11  12
ENDBRANCH   1  11
BRANCH   4  24
ATOM     24  C   UNL     1      38.251  -1.782  14.427  0.00  0.00    +0.000 C 
BRANCH  24  25
ATOM     25  C   UNL     1      39.659  -1.324  14.357  0.00  0.00    +0.000 A 
ATOM     26  C   UNL     1      40.679  -2.217  14.601  0.00  0.00    +0.000 A 
ATOM     27  C   UNL     1      42.024  -1.854  14.550  0.00  0.00    +0.000 A 
ATOM     28  C   UNL     1      42.354  -0.537  14.241  0.00  0.00    +0.000 A 
ATOM     29  C   UNL     1      41.315   0.333  14.001  0.00  0.00    +0.000 A 
ATOM     30  C   UNL     1      39.988  -0.025  14.051  0.00  0.00    +0.000 A 
ENDBRANCH  24  25
ENDBRANCH   4  24
TORSDOF 7
ENDMDL
MODEL 2
REMARK VINA RESULT:      -8.6      2.913      7.573
REMARK  Name = 
REMARK  7 active torsions:
REMARK  status: ('A' for Active; 'I' for Inactive)
REMARK    1  A    between atoms: C_5  and  S_6
REMARK    2  A    between atoms: S_6  and  N_9
REMARK    3  A    between atoms: N_9  and  C_10
REMARK    4  A    between atoms: C_10  and  C_11
REMARK    5  A    between atoms: C_11  and  C_12
REMARK    6  A    between atoms: N_15  and  C_16
REMARK    7  A    between atoms: C_16  and  C_17
REMARK                            x       y       z     vdW  Elec       q    Type
REMARK                         _______ _______ _______ _____ _____    ______ ____
ROOT
ATOM      1  C   UNL     1      38.261   0.936  14.677  0.00  0.00    +0.000 A 
ATOM      2  C   UNL     1      38.736   2.219  14.507  0.00  0.00    +0.000 A 
ATOM      3  C   UNL     1      40.004   2.579  13.831  0.00  0.00    +0.000 C 
ATOM      4  N   UNL     1      37.871   3.090  15.047  0.00  0.00    +0.000 N 
ATOM      5  C   UNL     1      36.856   2.371  15.557  0.00  0.00    +0.000 A 
ATOM      6  C   UNL     1      35.717   2.787  16.219  0.00  0.00    +0.000 A 
ATOM      7  C   UNL     1      34.797   1.869  16.665  0.00  0.00    +0.000 A 
ATOM      8  C   UNL     1      35.014   0.537  16.448  0.00  0.00    +0.000 A 
ATOM      9  C   UNL     1      36.136   0.110  15.797  0.00  0.00    +0.000 A 
ATOM     10  C   UNL     1      37.057   1.024  15.351  0.00  0.00    +0.000 A 
ENDROOT
BRANCH   1  11
ATOM     11  C   UNL     1      38.841  -0.364  14.262  0.00  0.00    +0.000 C 
BRANCH  11  12
ATOM     12  C   UNL     1      39.894  -0.833  15.241  0.00  0.00    +0.000 C 
BRANCH  12  13
ATOM     13  N   UNL     1      39.821  -2.273  15.400  0.00  0.00    +0.000 NA
BRANCH  13  14
ATOM     14  S   UNL     1      38.769  -2.718  16.689  0.00  0.00    +0.000 S 
ATOM     15  O   UNL     1      39.408  -3.879  17.406  0.00  0.00    +0.000 OA
ATOM     16  O   UNL     1      38.667  -1.549  17.629  0.00  0.00    +0.000 OA
BRANCH  14  21
ATOM     17  C   UNL     1      33.331  -4.446  14.601  0.00  0.00    +0.000 C 
ATOM     18  C   UNL     1      34.672  -4.020  15.112  0.00  0.00    +0.000 A 
ATOM     19  C   UNL     1      34.826  -3.532  16.393  0.00  0.00    +0.000 A 
ATOM     20  C   UNL     1      36.060  -3.140  16.868  0.00  0.00    +0.000 A 
ATOM     21  C   UNL     1      37.197  -3.213  16.092  0.00  0.00    +0.000 A 
ATOM     22  C   UNL     1      37.036  -3.706  14.802  0.00  0.00    +0.000 A 
ATOM     23  C   UNL     1      35.803  -4.098  14.327  0.00  0.00    +0.000 A 
ENDBRANCH  14  21
ENDBRANCH  13  14
ENDBRANCH  12  13
ENDBRANCH  11  12
ENDBRANCH   1  11
BRANCH   4  24
ATOM     24  C   UNL     1      38.004   4.529  15.077  0.00  0.00    +0.000 C 
BRANCH  24  25
ATOM     25  C   UNL     1      38.772   4.990  16.257  0.00  0.00    +0.000 A 
ATOM     26  C   UNL     1      39.951   5.678  16.077  0.00  0.00    +0.000 A 
ATOM     27  C   UNL     1      40.721   6.141  17.143  0.00  0.00    +0.000 A 
ATOM     28  C   UNL     1      40.284   5.900  18.444  0.00  0.00    +0.000 A 
ATOM     29  C   UNL     1      39.103   5.210  18.594  0.00  0.00    +0.000 A 
ATOM     30  C   UNL     1      38.343   4.753  17.541  0.00  0.00    +0.000 A 
ENDBRANCH  24  25
ENDBRANCH   4  24
TORSDOF 7
ENDMDL
MODEL 3
REMARK VINA RESULT:      -8.2      1.518      2.054
REMARK  Name = 
REMARK  7 active torsions:
REMARK  status: ('A' for Active; 'I' for Inactive)
REMARK    1  A    between atoms: C_5  and  S_6
REMARK    2  A    between atoms: S_6  and  N_9
REMARK    3  A    between atoms: N_9  and  C_10
REMARK    4  A    between atoms: C_10  and  C_11
REMARK    5  A    between atoms: C_11  and  C_12
REMARK    6  A    between atoms: N_15  and  C_16
REMARK    7  A    between atoms: C_16  and  C_17
REMARK                            x       y       z     vdW  Elec       q    Type
REMARK                         _______ _______ _______ _____ _____    ______ ____
ROOT
ATOM      1  C   UNL     1      36.019   1.330  15.091  0.00  0.00    +0.000 A 
ATOM      2  C   UNL     1      36.822   0.876  14.067  0.00  0.00    +0.000 A 
ATOM      3  C   UNL     1      37.459   1.729  13.037  0.00  0.00    +0.000 C 
ATOM      4  N   UNL     1      36.938  -0.457  14.148  0.00  0.00    +0.000 N 
ATOM      5  C   UNL     1      36.216  -0.850  15.212  0.00  0.00    +0.000 A 
ATOM      6  C   UNL     1      36.006  -2.116  15.725  0.00  0.00    +0.000 A 
ATOM      7  C   UNL     1      35.218  -2.294  16.837  0.00  0.00    +0.000 A 
ATOM      8  C   UNL     1      34.642  -1.208  17.436  0.00  0.00    +0.000 A 
ATOM      9  C   UNL     1      34.840   0.049  16.940  0.00  0.00    +0.000 A 
ATOM     10  C   UNL     1      35.625   0.230  15.829  0.00  0.00    +0.000 A 
ENDROOT
BRANCH   1  11
ATOM     11  C   UNL     1      35.591   2.707  15.436  0.00  0.00    +0.000 C 
BRANCH  11  12
ATOM     12  C   UNL     1      36.409   3.267  16.578  0.00  0.00    +0.000 C 
BRANCH  12  13
ATOM     13  N   UNL     1      37.824   3.164  16.276  0.00  0.00    +0.000 NA
BRANCH  13  14
ATOM     14  S   UNL     1      38.486   4.684  15.809  0.00  0.00    +0.000 S 
ATOM     15  O   UNL     1      39.366   4.438  14.611  0.00  0.00    +0.000 OA
ATOM     16  O   UNL     1      37.349   5.583  15.415  0.00  0.00    +0.000 OA
BRANCH  14  21
ATOM     17  C   UNL     1      41.859   7.114  20.240  0.00  0.00    +0.000 C 
ATOM     18  C   UNL     1      41.032   6.516  19.146  0.00  0.00    +0.000 A 
ATOM     19  C   UNL     1      39.792   5.971  19.406  0.00  0.00    +0.000 A 
ATOM     20  C   UNL     1      39.025   5.419  18.401  0.00  0.00    +0.000 A 
ATOM     21  C   UNL     1      39.455   5.383  17.092  0.00  0.00    +0.000 A 
ATOM     22  C   UNL     1      40.706   5.933  16.836  0.00  0.00    +0.000 A 
ATOM     23  C   UNL     1      41.472   6.485  17.840  0.00  0.00    +0.000 A 
ENDBRANCH  14  21
ENDBRANCH  13  14
ENDBRANCH  12  13
ENDBRANCH  11  12
ENDBRANCH   1  11
BRANCH   4  24
ATOM     24  C   UNL     1      37.694  -1.312  13.261  0.00  0.00    +0.000 C 
BRANCH  24  25
ATOM     25  C   UNL     1      39.075  -1.532  13.750  0.00  0.00    +0.000 A 
ATOM     26  C   UNL     1      40.067  -0.634  13.422  0.00  0.00    +0.000 A 
ATOM     27  C   UNL     1      41.385  -0.780  13.851  0.00  0.00    +0.000 A 
ATOM     28  C   UNL     1      41.718  -1.877  14.641  0.00  0.00    +0.000 A 
ATOM     29  C   UNL     1      40.708  -2.759  14.953  0.00  0.00    +0.000 A 
ATOM     30  C   UNL     1      39.406  -2.614  14.531  0.00  0.00    +0.000 A 
ENDBRANCH  24  25
ENDBRANCH   4  24
TORSDOF 7
ENDMDL
MODEL 4
REMARK VINA RESULT:      -8.1      2.179      4.109
REMARK  Name = 
REMARK  7 active torsions:
REMARK  status: ('A' for Active; 'I' for Inactive)
REMARK    1  A    between atoms: C_5  and  S_6
REMARK    2  A    between atoms: S_6  and  N_9
REMARK    3  A    between atoms: N_9  and  C_10
REMARK    4  A    between atoms: C_10  and  C_11
REMARK    5  A    between atoms: C_11  and  C_12
REMARK    6  A    between atoms: N_15  and  C_16
REMARK    7  A    between atoms: C_16  and  C_17
REMARK                            x       y       z     vdW  Elec       q    Type
REMARK                         _______ _______ _______ _____ _____    ______ ____
ROOT
ATOM      1  C   UNL     1      37.321   0.729  15.350  0.00  0.00    +0.000 A 
ATOM      2  C   UNL     1      36.463   0.050  16.188  0.00  0.00    +0.000 A 
ATOM      3  C   UNL     1      35.148   0.550  16.654  0.00  0.00    +0.000 C 
ATOM      4  N   UNL     1      37.001  -1.134  16.516  0.00  0.00    +0.000 N 
ATOM      5  C   UNL     1      38.191  -1.209  15.894  0.00  0.00    +0.000 A 
ATOM      6  C   UNL     1      39.137  -2.217  15.904  0.00  0.00    +0.000 A 
ATOM      7  C   UNL     1      40.302  -2.084  15.188  0.00  0.00    +0.000 A 
ATOM      8  C   UNL     1      40.522  -0.947  14.462  0.00  0.00    +0.000 A 
ATOM      9  C   UNL     1      39.597   0.058  14.443  0.00  0.00    +0.000 A 
ATOM     10  C   UNL     1      38.432  -0.071  15.157  0.00  0.00    +0.000 A 
ENDROOT
BRANCH   1  11
ATOM     11  C   UNL     1      37.187   2.062  14.716  0.00  0.00    +0.000 C 
BRANCH  11  12
ATOM     12  C   UNL     1      37.828   3.139  15.562  0.00  0.00    +0.000 C 
BRANCH  12  13
ATOM     13  N   UNL     1      37.050   4.361  15.488  0.00  0.00    +0.000 NA
BRANCH  13  14
ATOM     14  S   UNL     1      38.059   5.750  15.356  0.00  0.00    +0.000 S 
ATOM     15  O   UNL     1      38.934   5.552  14.145  0.00  0.00    +0.000 OA
ATOM     16  O   UNL     1      37.175   6.947  15.141  0.00  0.00    +0.000 OA
BRANCH  14  21
ATOM     17  C   UNL     1      41.612   6.409  20.240  0.00  0.00    +0.000 C 
ATOM     18  C   UNL     1      40.741   6.246  19.034  0.00  0.00    +0.000 A 
ATOM     19  C   UNL     1      39.393   5.980  19.159  0.00  0.00    +0.000 A 
ATOM     20  C   UNL     1      38.585   5.831  18.051  0.00  0.00    +0.000 A 
ATOM     21  C   UNL     1      39.079   5.938  16.769  0.00  0.00    +0.000 A 
ATOM     22  C   UNL     1      40.439   6.206  16.649  0.00  0.00    +0.000 A 
ATOM     23  C   UNL     1      41.245   6.355  17.756  0.00  0.00    +0.000 A 
ENDBRANCH  14  21
ENDBRANCH  13  14
ENDBRANCH  12  13
ENDBRANCH  11  12
ENDBRANCH   1  11
BRANCH   4  24
ATOM     24  C   UNL     1      36.416  -2.138  17.374  0.00  0.00    +0.000 C 
BRANCH  24  25
ATOM     25  C   UNL     1      35.802  -3.240  16.596  0.00  0.00    +0.000 A 
ATOM     26  C   UNL     1      34.636  -3.015  15.898  0.00  0.00    +0.000 A 
ATOM     27  C   UNL     1      34.007  -4.006  15.146  0.00  0.00    +0.000 A 
ATOM     28  C   UNL     1      34.577  -5.276  15.095  0.00  0.00    +0.000 A 
ATOM     29  C   UNL     1      35.742  -5.472  15.801  0.00  0.00    +0.000 A 
ATOM     30  C   UNL     1      36.363  -4.494  16.543  0.00  0.00    +0.000 A 
ENDBRANCH  24  25
ENDBRANCH   4  24
TORSDOF 7
ENDMDL
MODEL 5
REMARK VINA RESULT:      -7.9      2.320      4.308
REMARK  Name = 
REMARK  7 active torsions:
REMARK  status: ('A' for Active; 'I' for Inactive)
REMARK    1  A    between atoms: C_5  and  S_6
REMARK    2  A    between atoms: S_6  and  N_9
REMARK    3  A    between atoms: N_9  and  C_10
REMARK    4  A    between atoms: C_10  and  C_11
REMARK    5  A    between atoms: C_11  and  C_12
REMARK    6  A    between atoms: N_15  and  C_16
REMARK    7  A    between atoms: C_16  and  C_17
REMARK                            x       y       z     vdW  Elec       q    Type
REMARK                         _______ _______ _______ _____ _____    ______ ____
ROOT
ATOM      1  C   UNL     1      35.906   0.987  14.949  0.00  0.00    +0.000 A 
ATOM      2  C   UNL     1      35.668   0.158  16.024  0.00  0.00    +0.000 A 
ATOM      3  C   UNL     1      34.853   0.508  17.210  0.00  0.00    +0.000 C 
ATOM      4  N   UNL     1      36.290  -1.014  15.830  0.00  0.00    +0.000 N 
ATOM      5  C   UNL     1      36.918  -0.934  14.644  0.00  0.00    +0.000 A 
ATOM      6  C   UNL     1      37.696  -1.867  13.985  0.00  0.00    +0.000 A 
ATOM      7  C   UNL     1      38.252  -1.571  12.764  0.00  0.00    +0.000 A 
ATOM      8  C   UNL     1      38.029  -0.345  12.200  0.00  0.00    +0.000 A 
ATOM      9  C   UNL     1      37.263   0.587  12.839  0.00  0.00    +0.000 A 
ATOM     10  C   UNL     1      36.707   0.296  14.060  0.00  0.00    +0.000 A 
ENDROOT
BRANCH   1  11
ATOM     11  C   UNL     1      35.445   2.372  14.686  0.00  0.00    +0.000 C 
BRANCH  11  12
ATOM     12  C   UNL     1      36.273   3.380  15.450  0.00  0.00    +0.000 C 
BRANCH  12  13
ATOM     13  N   UNL     1      37.108   4.137  14.536  0.00  0.00    +0.000 NA
BRANCH  13  14
ATOM     14  S   UNL     1      38.780   3.950  14.899  0.00  0.00    +0.000 S 
ATOM     15  O   UNL     1      39.028   2.479  15.113  0.00  0.00    +0.000 OA
ATOM     16  O   UNL     1      39.569   4.420  13.709  0.00  0.00    +0.000 OA
BRANCH  14  21
ATOM     17  C   UNL     1      40.294   6.943  19.965  0.00  0.00    +0.000 C 
ATOM     18  C   UNL     1      39.918   6.204  18.719  0.00  0.00    +0.000 A 
ATOM     19  C   UNL     1      40.586   6.421  17.532  0.00  0.00    +0.000 A 
ATOM     20  C   UNL     1      40.243   5.742  16.381  0.00  0.00    +0.000 A 
ATOM     21  C   UNL     1      39.221   4.818  16.357  0.00  0.00    +0.000 A 
ATOM     22  C   UNL     1      38.551   4.604  17.557  0.00  0.00    +0.000 A 
ATOM     23  C   UNL     1      38.894   5.282  18.707  0.00  0.00    +0.000 A 
ENDBRANCH  14  21
ENDBRANCH  13  14
ENDBRANCH  12  13
ENDBRANCH  11  12
ENDBRANCH   1  11
BRANCH   4  24
ATOM     24  C   UNL     1      36.287  -2.149  16.724  0.00  0.00    +0.000 C 
BRANCH  24  25
ATOM     25  C   UNL     1      35.518  -3.288  16.170  0.00  0.00    +0.000 A 
ATOM     26  C   UNL     1      36.109  -4.528  16.072  0.00  0.00    +0.000 A 
ATOM     27  C   UNL     1      35.442  -5.641  15.563  0.00  0.00    +0.000 A 
ATOM     28  C   UNL     1      34.125  -5.498  15.134  0.00  0.00    +0.000 A 
ATOM     29  C   UNL     1      33.559  -4.249  15.243  0.00  0.00    +0.000 A 
ATOM     30  C   UNL     1      34.217  -3.150  15.747  0.00  0.00    +0.000 A 
ENDBRANCH  24  25
ENDBRANCH   4  24
TORSDOF 7
ENDMDL
MODEL 6
REMARK VINA RESULT:      -7.9      2.524      6.768
REMARK  Name = 
REMARK  7 active torsions:
REMARK  status: ('A' for Active; 'I' for Inactive)
REMARK    1  A    between atoms: C_5  and  S_6
REMARK    2  A    between atoms: S_6  and  N_9
REMARK    3  A    between atoms: N_9  and  C_10
REMARK    4  A    between atoms: C_10  and  C_11
REMARK    5  A    between atoms: C_11  and  C_12
REMARK    6  A    between atoms: N_15  and  C_16
REMARK    7  A    between atoms: C_16  and  C_17
REMARK                            x       y       z     vdW  Elec       q    Type
REMARK                         _______ _______ _______ _____ _____    ______ ____
ROOT
ATOM      1  C   UNL     1      38.187   3.142  14.415  0.00  0.00    +0.000 A 
ATOM      2  C   UNL     1      36.989   2.512  14.673  0.00  0.00    +0.000 A 
ATOM      3  C   UNL     1      36.268   1.627  13.729  0.00  0.00    +0.000 C 
ATOM      4  N   UNL     1      36.578   2.824  15.911  0.00  0.00    +0.000 N 
ATOM      5  C   UNL     1      37.504   3.645  16.436  0.00  0.00    +0.000 A 
ATOM      6  C   UNL     1      37.554   4.249  17.678  0.00  0.00    +0.000 A 
ATOM      7  C   UNL     1      38.607   5.065  18.013  0.00  0.00    +0.000 A 
ATOM      8  C   UNL     1      39.611   5.276  17.109  0.00  0.00    +0.000 A 
ATOM      9  C   UNL     1      39.576   4.687  15.878  0.00  0.00    +0.000 A 
ATOM     10  C   UNL     1      38.524   3.872  15.539  0.00  0.00    +0.000 A 
ENDROOT
BRANCH   1  11
ATOM     11  C   UNL     1      39.042   3.118  13.204  0.00  0.00    +0.000 C 
BRANCH  11  12
ATOM     12  C   UNL     1      40.189   2.145  13.360  0.00  0.00    +0.000 C 
BRANCH  12  13
ATOM     13  N   UNL     1      39.952   0.960  12.557  0.00  0.00    +0.000 NA
BRANCH  13  14
ATOM     14  S   UNL     1      40.993  -0.334  13.011  0.00  0.00    +0.000 S 
ATOM     15  O   UNL     1      41.143  -1.228  11.807  0.00  0.00    +0.000 OA
ATOM     16  O   UNL     1      42.331   0.250  13.367  0.00  0.00    +0.000 OA
BRANCH  14  21
ATOM     17  C   UNL     1      38.630  -3.557  17.587  0.00  0.00    +0.000 C 
ATOM     18  C   UNL     1      39.210  -2.760  16.461  0.00  0.00    +0.000 A 
ATOM     19  C   UNL     1      40.266  -3.242  15.715  0.00  0.00    +0.000 A 
ATOM     20  C   UNL     1      40.803  -2.511  14.677  0.00  0.00    +0.000 A 
ATOM     21  C   UNL     1      40.316  -1.268  14.331  0.00  0.00    +0.000 A 
ATOM     22  C   UNL     1      39.252  -0.788  15.086  0.00  0.00    +0.000 A 
ATOM     23  C   UNL     1      38.715  -1.518  16.124  0.00  0.00    +0.000 A 
ENDBRANCH  14  21
ENDBRANCH  13  14
ENDBRANCH  12  13
ENDBRANCH  11  12
ENDBRANCH   1  11
BRANCH   4  24
ATOM     24  C   UNL     1      35.370   2.366  16.558  0.00  0.00    +0.000 C 
BRANCH  24  25
ATOM     25  C   UNL     1      35.551   1.038  17.191  0.00  0.00    +0.000 A 
ATOM     26  C   UNL     1      36.311   0.925  18.334  0.00  0.00    +0.000 A 
ATOM     27  C   UNL     1      36.520  -0.292  18.981  0.00  0.00    +0.000 A 
ATOM     28  C   UNL     1      35.939  -1.442  18.454  0.00  0.00    +0.000 A 
ATOM     29  C   UNL     1      35.185  -1.300  17.311  0.00  0.00    +0.000 A 
ATOM     30  C   UNL     1      34.978  -0.099  16.673  0.00  0.00    +0.000 A 
ENDBRANCH  24  25
ENDBRANCH   4  24
TORSDOF 7
ENDMDL
MODEL 7
REMARK VINA RESULT:      -7.8      1.934      3.806
REMARK  Name = 
REMARK  7 active torsions:
REMARK  status: ('A' for Active; 'I' for Inactive)
REMARK    1  A    between atoms: C_5  and  S_6
REMARK    2  A    between atoms: S_6  and  N_9
REMARK    3  A    between atoms: N_9  and  C_10
REMARK    4  A    between atoms: C_10  and  C_11
REMARK    5  A    between atoms: C_11  and  C_12
REMARK    6  A    between atoms: N_15  and  C_16
REMARK    7  A    between atoms: C_16  and  C_17
REMARK                            x       y       z     vdW  Elec       q    Type
REMARK                         _______ _______ _______ _____ _____    ______ ____
ROOT
ATOM      1  C   UNL     1      36.013   1.672  14.639  0.00  0.00    +0.000 A 
ATOM      2  C   UNL     1      35.525   0.715  15.504  0.00  0.00    +0.000 A 
ATOM      3  C   UNL     1      34.581   0.970  16.617  0.00  0.00    +0.000 C 
ATOM      4  N   UNL     1      36.038  -0.482  15.182  0.00  0.00    +0.000 N 
ATOM      5  C   UNL     1      36.844  -0.291  14.123  0.00  0.00    +0.000 A 
ATOM      6  C   UNL     1      37.607  -1.198  13.412  0.00  0.00    +0.000 A 
ATOM      7  C   UNL     1      38.372  -0.781  12.349  0.00  0.00    +0.000 A 
ATOM      8  C   UNL     1      38.372   0.540  11.995  0.00  0.00    +0.000 A 
ATOM      9  C   UNL     1      37.624   1.448  12.688  0.00  0.00    +0.000 A 
ATOM     10  C   UNL     1      36.860   1.035  13.751  0.00  0.00    +0.000 A 
ENDROOT
BRANCH   1  11
ATOM     11  C   UNL     1      35.752   3.129  14.576  0.00  0.00    +0.000 C 
BRANCH  11  12
ATOM     12  C   UNL     1      36.534   3.874  15.635  0.00  0.00    +0.000 C 
BRANCH  12  13
ATOM     13  N   UNL     1      37.384   4.874  15.017  0.00  0.00    +0.000 NA
BRANCH  13  14
ATOM     14  S   UNL     1      39.054   4.522  15.250  0.00  0.00    +0.000 S 
ATOM     15  O   UNL     1      39.179   3.027  15.385  0.00  0.00    +0.000 OA
ATOM     16  O   UNL     1      39.798   4.976  14.026  0.00  0.00    +0.000 OA
BRANCH  14  21
ATOM     17  C   UNL     1      41.177   7.131  20.309  0.00  0.00    +0.000 C 
ATOM     18  C   UNL     1      40.650   6.488  19.065  0.00  0.00    +0.000 A 
ATOM     19  C   UNL     1      41.310   6.617  17.861  0.00  0.00    +0.000 A 
ATOM     20  C   UNL     1      40.829   6.025  16.712  0.00  0.00    +0.000 A 
ATOM     21  C   UNL     1      39.671   5.279  16.706  0.00  0.00    +0.000 A 
ATOM     22  C   UNL     1      39.009   5.152  17.923  0.00  0.00    +0.000 A 
ATOM     23  C   UNL     1      39.490   5.743  19.071  0.00  0.00    +0.000 A 
ENDBRANCH  14  21
ENDBRANCH  13  14
ENDBRANCH  12  13
ENDBRANCH  11  12
ENDBRANCH   1  11
BRANCH   4  24
ATOM     24  C   UNL     1      35.774  -1.738  15.845  0.00  0.00    +0.000 C 
BRANCH  24  25
ATOM     25  C   UNL     1      36.775  -2.027  16.900  0.00  0.00    +0.000 A 
ATOM     26  C   UNL     1      36.547  -1.603  18.190  0.00  0.00    +0.000 A 
ATOM     27  C   UNL     1      37.444  -1.843  19.229  0.00  0.00    +0.000 A 
ATOM     28  C   UNL     1      38.620  -2.538  18.957  0.00  0.00    +0.000 A 
ATOM     29  C   UNL     1      38.821  -2.950  17.659  0.00  0.00    +0.000 A 
ATOM     30  C   UNL     1      37.935  -2.714  16.633  0.00  0.00    +0.000 A 
ENDBRANCH  24  25
ENDBRANCH   4  24
TORSDOF 7
ENDMDL
MODEL 8
REMARK VINA RESULT:      -7.7      1.504      4.277
REMARK  Name = 
REMARK  7 active torsions:
REMARK  status: ('A' for Active; 'I' for Inactive)
REMARK    1  A    between atoms: C_5  and  S_6
REMARK    2  A    between atoms: S_6  and  N_9
REMARK    3  A    between atoms: N_9  and  C_10
REMARK    4  A    between atoms: C_10  and  C_11
REMARK    5  A    between atoms: C_11  and  C_12
REMARK    6  A    between atoms: N_15  and  C_16
REMARK    7  A    between atoms: C_16  and  C_17
REMARK                            x       y       z     vdW  Elec       q    Type
REMARK                         _______ _______ _______ _____ _____    ______ ____
ROOT
ATOM      1  C   UNL     1      39.173   1.136  14.053  0.00  0.00    +0.000 A 
ATOM      2  C   UNL     1      37.988   0.576  14.480  0.00  0.00    +0.000 A 
ATOM      3  C   UNL     1      36.675   1.262  14.498  0.00  0.00    +0.000 C 
ATOM      4  N   UNL     1      38.207  -0.686  14.876  0.00  0.00    +0.000 N 
ATOM      5  C   UNL     1      39.518  -0.929  14.705  0.00  0.00    +0.000 A 
ATOM      6  C   UNL     1      40.252  -2.072  14.961  0.00  0.00    +0.000 A 
ATOM      7  C   UNL     1      41.602  -2.103  14.710  0.00  0.00    +0.000 A 
ATOM      8  C   UNL     1      42.219  -0.994  14.202  0.00  0.00    +0.000 A 
ATOM      9  C   UNL     1      41.508   0.144  13.945  0.00  0.00    +0.000 A 
ATOM     10  C   UNL     1      40.159   0.178  14.195  0.00  0.00    +0.000 A 
ENDROOT
BRANCH   1  11
ATOM     11  C   UNL     1      39.457   2.491  13.525  0.00  0.00    +0.000 C 
BRANCH  11  12
ATOM     12  C   UNL     1      39.574   3.503  14.643  0.00  0.00    +0.000 C 
BRANCH  12  13
ATOM     13  N   UNL     1      39.458   4.849  14.112  0.00  0.00    +0.000 NA
BRANCH  13  14
ATOM     14  S   UNL     1      38.650   5.898  15.213  0.00  0.00    +0.000 S 
ATOM     15  O   UNL     1      38.579   7.256  14.563  0.00  0.00    +0.000 OA
ATOM     16  O   UNL     1      37.257   5.372  15.418  0.00  0.00    +0.000 OA
BRANCH  14  21
ATOM     17  C   UNL     1      41.698   6.388  20.446  0.00  0.00    +0.000 C 
ATOM     18  C   UNL     1      40.951   6.267  19.155  0.00  0.00    +0.000 A 
ATOM     19  C   UNL     1      39.606   5.959  19.134  0.00  0.00    +0.000 A 
ATOM     20  C   UNL     1      38.913   5.848  17.947  0.00  0.00    +0.000 A 
ATOM     21  C   UNL     1      39.524   6.037  16.726  0.00  0.00    +0.000 A 
ATOM     22  C   UNL     1      40.880   6.346  16.753  0.00  0.00    +0.000 A 
ATOM     23  C   UNL     1      41.572   6.458  17.939  0.00  0.00    +0.000 A 
ENDBRANCH  14  21
ENDBRANCH  13  14
ENDBRANCH  12  13
ENDBRANCH  11  12
ENDBRANCH   1  11
BRANCH   4  24
ATOM     24  C   UNL     1      37.223  -1.611  15.390  0.00  0.00    +0.000 C 
BRANCH  24  25
ATOM     25  C   UNL     1      37.001  -1.431  16.844  0.00  0.00    +0.000 A 
ATOM     26  C   UNL     1      35.839  -0.841  17.289  0.00  0.00    +0.000 A 
ATOM     27  C   UNL     1      35.566  -0.644  18.642  0.00  0.00    +0.000 A 
ATOM     28  C   UNL     1      36.504  -1.058  19.585  0.00  0.00    +0.000 A 
ATOM     29  C   UNL     1      37.656  -1.644  19.112  0.00  0.00    +0.000 A 
ATOM     30  C   UNL     1      37.925  -1.840  17.777  0.00  0.00    +0.000 A 
ENDBRANCH  24  25
ENDBRANCH   4  24
TORSDOF 7
ENDMDL
MODEL 9
REMARK VINA RESULT:      -7.7      6.516      8.952
REMARK  Name = 
REMARK  7 active torsions:
REMARK  status: ('A' for Active; 'I' for Inactive)
REMARK    1  A    between atoms: C_5  and  S_6
REMARK    2  A    between atoms: S_6  and  N_9
REMARK    3  A    between atoms: N_9  and  C_10
REMARK    4  A    between atoms: C_10  and  C_11
REMARK    5  A    between atoms: C_11  and  C_12
REMARK    6  A    between atoms: N_15  and  C_16
REMARK    7  A    between atoms: C_16  and  C_17
REMARK                            x       y       z     vdW  Elec       q    Type
REMARK                         _______ _______ _______ _____ _____    ______ ____
ROOT
ATOM      1  C   UNL     1      42.520   6.567  16.890  0.00  0.00    +0.000 A 
ATOM      2  C   UNL     1      41.193   6.249  17.083  0.00  0.00    +0.000 A 
ATOM      3  C   UNL     1      40.206   6.005  16.005  0.00  0.00    +0.000 C 
ATOM      4  N   UNL     1      40.933   6.195  18.398  0.00  0.00    +0.000 N 
ATOM      5  C   UNL     1      42.082   6.475  19.036  0.00  0.00    +0.000 A 
ATOM      6  C   UNL     1      42.351   6.550  20.390  0.00  0.00    +0.000 A 
ATOM      7  C   UNL     1      43.615   6.859  20.832  0.00  0.00    +0.000 A 
ATOM      8  C   UNL     1      44.610   7.092  19.923  0.00  0.00    +0.000 A 
ATOM      9  C   UNL     1      44.359   7.022  18.582  0.00  0.00    +0.000 A 
ATOM     10  C   UNL     1      43.097   6.715  18.137  0.00  0.00    +0.000 A 
ENDROOT
BRANCH   1  11
ATOM     11  C   UNL     1      43.291   6.743  15.636  0.00  0.00    +0.000 C 
BRANCH  11  12
ATOM     12  C   UNL     1      43.529   8.207  15.339  0.00  0.00    +0.000 C 
BRANCH  12  13
ATOM     13  N   UNL     1      42.306   8.826  14.866  0.00  0.00    +0.000 NA
BRANCH  13  14
ATOM     14  S   UNL     1      42.086  10.395  15.542  0.00  0.00    +0.000 S 
ATOM     15  O   UNL     1      43.144  11.288  14.949  0.00  0.00    +0.000 OA
ATOM     16  O   UNL     1      40.728  10.891  15.130  0.00  0.00    +0.000 OA
BRANCH  14  21
ATOM     17  C   UNL     1      42.711  10.312  21.585  0.00  0.00    +0.000 C 
ATOM     18  C   UNL     1      42.552  10.332  20.097  0.00  0.00    +0.000 A 
ATOM     19  C   UNL     1      43.607  10.665  19.272  0.00  0.00    +0.000 A 
ATOM     20  C   UNL     1      43.466  10.684  17.900  0.00  0.00    +0.000 A 
ATOM     21  C   UNL     1      42.272  10.374  17.285  0.00  0.00    +0.000 A 
ATOM     22  C   UNL     1      41.213  10.040  18.122  0.00  0.00    +0.000 A 
ATOM     23  C   UNL     1      41.353  10.020  19.492  0.00  0.00    +0.000 A 
ENDBRANCH  14  21
ENDBRANCH  13  14
ENDBRANCH  12  13
ENDBRANCH  11  12
ENDBRANCH   1  11
BRANCH   4  24
ATOM     24  C   UNL     1      39.661   5.892  19.012  0.00  0.00    +0.000 C 
BRANCH  24  25
ATOM     25  C   UNL     1      38.901   7.121  19.344  0.00  0.00    +0.000 A 
ATOM     26  C   UNL     1      38.058   7.675  18.407  0.00  0.00    +0.000 A 
ATOM     27  C   UNL     1      37.313   8.827  18.654  0.00  0.00    +0.000 A 
ATOM     28  C   UNL     1      37.423   9.446  19.897  0.00  0.00    +0.000 A 
ATOM     29  C   UNL     1      38.272   8.870  20.814  0.00  0.00    +0.000 A 
ATOM     30  C   UNL     1      39.007   7.732  20.570  0.00  0.00    +0.000 A 
ENDBRANCH  24  25
ENDBRANCH   4  24
TORSDOF 7
ENDMDL
MODEL 10
REMARK VINA RESULT:      -7.5      2.963      7.730
REMARK  Name = 
REMARK  7 active torsions:
REMARK  status: ('A' for Active; 'I' for Inactive)
REMARK    1  A    between atoms: C_5  and  S_6
REMARK    2  A    between atoms: S_6  and  N_9
REMARK    3  A    between atoms: N_9  and  C_10
REMARK    4  A    between atoms: C_10  and  C_11
REMARK    5  A    between atoms: C_11  and  C_12
REMARK    6  A    between atoms: N_15  and  C_16
REMARK    7  A    between atoms: C_16  and  C_17
REMARK                            x       y       z     vdW  Elec       q    Type
REMARK                         _______ _______ _______ _____ _____    ______ ____
ROOT
ATOM      1  C   UNL     1      36.368   4.218  14.688  0.00  0.00    +0.000 A 
ATOM      2  C   UNL     1      37.646   4.494  15.124  0.00  0.00    +0.000 A 
ATOM      3  C   UNL     1      38.660   3.481  15.497  0.00  0.00    +0.000 C 
ATOM      4  N   UNL     1      37.828   5.822  15.158  0.00  0.00    +0.000 N 
ATOM      5  C   UNL     1      36.679   6.387  14.749  0.00  0.00    +0.000 A 
ATOM      6  C   UNL     1      36.345   7.721  14.606  0.00  0.00    +0.000 A 
ATOM      7  C   UNL     1      35.094   8.082  14.168  0.00  0.00    +0.000 A 
ATOM      8  C   UNL     1      34.178   7.112  13.871  0.00  0.00    +0.000 A 
ATOM      9  C   UNL     1      34.492   5.790  14.008  0.00  0.00    +0.000 A 
ATOM     10  C   UNL     1      35.741   5.426  14.446  0.00  0.00    +0.000 A 
ENDROOT
BRANCH   1  11
ATOM     11  C   UNL     1      35.686   2.918  14.479  0.00  0.00    +0.000 C 
BRANCH  11  12
ATOM     12  C   UNL     1      35.134   2.372  15.777  0.00  0.00    +0.000 C 
BRANCH  12  13
ATOM     13  N   UNL     1      35.118   0.922  15.742  0.00  0.00    +0.000 NA
BRANCH  13  14
ATOM     14  S   UNL     1      36.078   0.246  17.001  0.00  0.00    +0.000 S 
ATOM     15  O   UNL     1      36.562   1.388  17.856  0.00  0.00    +0.000 OA
ATOM     16  O   UNL     1      35.198  -0.653  17.824  0.00  0.00    +0.000 OA
BRANCH  14  21
ATOM     17  C   UNL     1      40.885  -2.740  14.789  0.00  0.00    +0.000 C 
ATOM     18  C   UNL     1      39.701  -2.007  15.338  0.00  0.00    +0.000 A 
ATOM     19  C   UNL     1      39.215  -0.873  14.720  0.00  0.00    +0.000 A 
ATOM     20  C   UNL     1      38.125  -0.195  15.221  0.00  0.00    +0.000 A 
ATOM     21  C   UNL     1      37.466  -0.611  16.359  0.00  0.00    +0.000 A 
ATOM     22  C   UNL     1      37.961  -1.754  16.977  0.00  0.00    +0.000 A 
ATOM     23  C   UNL     1      39.051  -2.432  16.476  0.00  0.00    +0.000 A 
ENDBRANCH  14  21
ENDBRANCH  13  14
ENDBRANCH  12  13
ENDBRANCH  11  12
ENDBRANCH   1  11
BRANCH   4  24
ATOM     24  C   UNL     1      39.031   6.516  15.559  0.00  0.00    +0.000 C 
BRANCH  24  25
ATOM     25  C   UNL     1      39.116   6.671  17.030  0.00  0.00    +0.000 A 
ATOM     26  C   UNL     1      40.066   5.968  17.737  0.00  0.00    +0.000 A 
ATOM     27  C   UNL     1      40.202   6.070  19.120  0.00  0.00    +0.000 A 
ATOM     28  C   UNL     1      39.344   6.914  19.821  0.00  0.00    +0.000 A 
ATOM     29  C   UNL     1      38.404   7.605  19.089  0.00  0.00    +0.000 A 
ATOM     30  C   UNL     1      38.271   7.505  17.723  0.00  0.00    +0.000 A 
ENDBRANCH  24  25
ENDBRANCH   4  24
TORSDOF 7
ENDMDL
