MODEL 1
REMARK VINA RESULT:      -6.4      0.000      0.000
REMARK  Name = 
REMARK  4 active torsions:
REMARK  status: ('A' for Active; 'I' for Inactive)
REMARK    1  A    between atoms: C_3  and  C_4
REMARK    2  A    between atoms: C_4  and  O_6
REMARK    3  A    between atoms: O_6  and  C_7
REMARK    4  A    between atoms: C_11  and  C_12
REMARK                            x       y       z     vdW  Elec       q    Type
REMARK                         _______ _______ _______ _____ _____    ______ ____
ROOT
ATOM      1  C   UNL     1      26.541  26.986  22.995  0.00  0.00    +0.000 C 
ATOM      2  C   UNL     1      27.537  26.006  22.400  0.00  0.00    +0.000 C 
ATOM      3  C   UNL     1      27.604  24.874  22.942  0.00  0.00    +0.000 C 
ATOM      4  C   UNL     1      28.546  23.661  22.555  0.00  0.00    +0.000 C 
ATOM      5  N   UNL     1      29.304  24.195  21.345  0.00  0.00    +0.000 NA
ATOM      6  C   UNL     1      29.205  25.428  20.786  0.00  0.00    +0.000 C 
ATOM      7  O   UNL     1      29.940  25.705  19.785  0.00  0.00    +0.000 OA
ATOM      8  N   UNL     1      28.308  26.394  21.295  0.00  0.00    +0.000 NA
ENDROOT
BRANCH   4   9
ATOM      9  C   UNL     1      29.698  23.822  23.629  0.00  0.00    +0.000 A 
ATOM     10  C   UNL     1      30.109  22.704  24.294  0.00  0.00    +0.000 A 
ATOM     11  C   UNL     1      31.128  22.784  25.259  0.00  0.00    +0.000 A 
ATOM     12  C   UNL     1      31.701  24.001  25.521  0.00  0.00    +0.000 A 
ATOM     13  O   UNL     1      32.710  24.141  26.463  0.00  0.00    +0.000 OA
ATOM     14  C   UNL     1      31.267  25.111  24.837  0.00  0.00    +0.000 A 
ATOM     15  C   UNL     1      30.250  25.023  23.876  0.00  0.00    +0.000 A 
ENDBRANCH   4   9
BRANCH   3  16
ATOM     16  C   UNL     1      26.732  24.522  24.123  0.00  0.00    +0.000 C 
ATOM     17  O   UNL     1      25.671  23.878  23.996  0.00  0.00    +0.000 OA
BRANCH  16  18
ATOM     18  O   UNL     1      27.120  24.923  25.372  0.00  0.00    +0.000 OA
BRANCH  18  19
ATOM     19  C   UNL     1      27.166  24.054  26.497  0.00  0.00    +0.000 C 
ATOM     20  C   UNL     1      25.893  24.272  27.315  0.00  0.00    +0.000 C 
ATOM     21  C   UNL     1      28.399  24.323  27.333  0.00  0.00    +0.000 C 
ATOM     22  C   UNL     1      27.199  22.600  26.079  0.00  0.00    +0.000 C 
ENDBRANCH  18  19
ENDBRANCH  16  18
ENDBRANCH   3  16
TORSDOF 4
ENDMDL
MODEL 2
REMARK VINA RESULT:      -5.7      1.578      2.232
REMARK  Name = 
REMARK  4 active torsions:
REMARK  status: ('A' for Active; 'I' for Inactive)
REMARK    1  A    between atoms: C_3  and  C_4
REMARK    2  A    between atoms: C_4  and  O_6
REMARK    3  A    between atoms: O_6  and  C_7
REMARK    4  A    between atoms: C_11  and  C_12
REMARK                            x       y       z     vdW  Elec       q    Type
REMARK                         _______ _______ _______ _____ _____    ______ ____
ROOT
ATOM      1  C   UNL     1      27.400  27.355  23.774  0.00  0.00    +0.000 C 
ATOM      2  C   UNL     1      27.742  25.974  23.243  0.00  0.00    +0.000 C 
ATOM      3  C   UNL     1      27.193  25.000  23.817  0.00  0.00    +0.000 C 
ATOM      4  C   UNL     1      27.362  23.458  23.499  0.00  0.00    +0.000 C 
ATOM      5  N   UNL     1      28.310  23.461  22.306  0.00  0.00    +0.000 NA
ATOM      6  C   UNL     1      28.886  24.537  21.712  0.00  0.00    +0.000 C 
ATOM      7  O   UNL     1      29.676  24.343  20.733  0.00  0.00    +0.000 OA
ATOM      8  N   UNL     1      28.623  25.851  22.160  0.00  0.00    +0.000 NA
ENDROOT
BRANCH   4   9
ATOM      9  C   UNL     1      28.404  23.034  24.612  0.00  0.00    +0.000 A 
ATOM     10  C   UNL     1      27.916  22.620  25.817  0.00  0.00    +0.000 A 
ATOM     11  C   UNL     1      28.793  22.232  26.845  0.00  0.00    +0.000 A 
ATOM     12  C   UNL     1      30.144  22.276  26.618  0.00  0.00    +0.000 A 
ATOM     13  O   UNL     1      31.057  21.905  27.594  0.00  0.00    +0.000 OA
ATOM     14  C   UNL     1      30.608  22.698  25.395  0.00  0.00    +0.000 A 
ATOM     15  C   UNL     1      29.727  23.083  24.375  0.00  0.00    +0.000 A 
ENDBRANCH   4   9
BRANCH   3  16
ATOM     16  C   UNL     1      26.243  25.209  24.972  0.00  0.00    +0.000 C 
ATOM     17  O   UNL     1      25.022  24.965  24.881  0.00  0.00    +0.000 OA
BRANCH  16  18
ATOM     18  O   UNL     1      26.739  25.682  26.156  0.00  0.00    +0.000 OA
BRANCH  18  19
ATOM     19  C   UNL     1      25.952  25.834  27.331  0.00  0.00    +0.000 C 
ATOM     20  C   UNL     1      26.835  26.456  28.413  0.00  0.00    +0.000 C 
ATOM     21  C   UNL     1      25.401  24.499  27.786  0.00  0.00    +0.000 C 
ATOM     22  C   UNL     1      24.781  26.764  27.104  0.00  0.00    +0.000 C 
ENDBRANCH  18  19
ENDBRANCH  16  18
ENDBRANCH   3  16
TORSDOF 4
ENDMDL
MODEL 3
REMARK VINA RESULT:      -5.3      2.472      5.273
REMARK  Name = 
REMARK  4 active torsions:
REMARK  status: ('A' for Active; 'I' for Inactive)
REMARK    1  A    between atoms: C_3  and  C_4
REMARK    2  A    between atoms: C_4  and  O_6
REMARK    3  A    between atoms: O_6  and  C_7
REMARK    4  A    between atoms: C_11  and  C_12
REMARK                            x       y       z     vdW  Elec       q    Type
REMARK                         _______ _______ _______ _____ _____    ______ ____
ROOT
ATOM      1  C   UNL     1      31.793  25.671  24.819  0.00  0.00    +0.000 C 
ATOM      2  C   UNL     1      31.165  24.402  25.366  0.00  0.00    +0.000 C 
ATOM      3  C   UNL     1      30.210  23.918  24.707  0.00  0.00    +0.000 C 
ATOM      4  C   UNL     1      29.357  22.624  25.031  0.00  0.00    +0.000 C 
ATOM      5  N   UNL     1      30.013  22.097  26.302  0.00  0.00    +0.000 NA
ATOM      6  C   UNL     1      31.046  22.649  26.988  0.00  0.00    +0.000 C 
ATOM      7  O   UNL     1      31.448  22.074  28.050  0.00  0.00    +0.000 OA
ATOM      8  N   UNL     1      31.670  23.835  26.544  0.00  0.00    +0.000 NA
ENDROOT
BRANCH   4   9
ATOM      9  C   UNL     1      28.072  23.269  25.693  0.00  0.00    +0.000 A 
ATOM     10  C   UNL     1      26.851  22.882  25.224  0.00  0.00    +0.000 A 
ATOM     11  C   UNL     1      25.674  23.421  25.773  0.00  0.00    +0.000 A 
ATOM     12  C   UNL     1      25.772  24.340  26.785  0.00  0.00    +0.000 A 
ATOM     13  O   UNL     1      24.646  24.905  27.365  0.00  0.00    +0.000 OA
ATOM     14  C   UNL     1      27.015  24.713  27.238  0.00  0.00    +0.000 A 
ATOM     15  C   UNL     1      28.184  24.170  26.685  0.00  0.00    +0.000 A 
ENDBRANCH   4   9
BRANCH   3  16
ATOM     16  C   UNL     1      29.725  24.577  23.438  0.00  0.00    +0.000 C 
ATOM     17  O   UNL     1      29.999  24.124  22.308  0.00  0.00    +0.000 OA
BRANCH  16  18
ATOM     18  O   UNL     1      28.962  25.708  23.532  0.00  0.00    +0.000 OA
BRANCH  18  19
ATOM     19  C   UNL     1      27.734  25.886  22.837  0.00  0.00    +0.000 C 
ATOM     20  C   UNL     1      26.715  26.466  23.818  0.00  0.00    +0.000 C 
ATOM     21  C   UNL     1      27.245  24.573  22.264  0.00  0.00    +0.000 C 
ATOM     22  C   UNL     1      27.876  26.865  21.692  0.00  0.00    +0.000 C 
ENDBRANCH  18  19
ENDBRANCH  16  18
ENDBRANCH   3  16
TORSDOF 4
ENDMDL
MODEL 4
REMARK VINA RESULT:      -5.3      3.365      6.541
REMARK  Name = 
REMARK  4 active torsions:
REMARK  status: ('A' for Active; 'I' for Inactive)
REMARK    1  A    between atoms: C_3  and  C_4
REMARK    2  A    between atoms: C_4  and  O_6
REMARK    3  A    between atoms: O_6  and  C_7
REMARK    4  A    between atoms: C_11  and  C_12
REMARK                            x       y       z     vdW  Elec       q    Type
REMARK                         _______ _______ _______ _____ _____    ______ ____
ROOT
ATOM      1  C   UNL     1      30.618  24.323  29.795  0.00  0.00    +0.000 C 
ATOM      2  C   UNL     1      29.296  23.641  29.488  0.00  0.00    +0.000 C 
ATOM      3  C   UNL     1      29.228  23.009  28.404  0.00  0.00    +0.000 C 
ATOM      4  C   UNL     1      27.991  22.217  27.812  0.00  0.00    +0.000 C 
ATOM      5  N   UNL     1      26.936  22.375  28.902  0.00  0.00    +0.000 NA
ATOM      6  C   UNL     1      27.047  23.069  30.063  0.00  0.00    +0.000 C 
ATOM      7  O   UNL     1      26.045  23.109  30.847  0.00  0.00    +0.000 OA
ATOM      8  N   UNL     1      28.242  23.737  30.408  0.00  0.00    +0.000 NA
ENDROOT
BRANCH   4   9
ATOM      9  C   UNL     1      27.416  23.278  26.789  0.00  0.00    +0.000 A 
ATOM     10  C   UNL     1      26.979  22.824  25.579  0.00  0.00    +0.000 A 
ATOM     11  C   UNL     1      26.459  23.720  24.628  0.00  0.00    +0.000 A 
ATOM     12  C   UNL     1      26.398  25.054  24.935  0.00  0.00    +0.000 A 
ATOM     13  O   UNL     1      25.895  25.984  24.037  0.00  0.00    +0.000 OA
ATOM     14  C   UNL     1      26.846  25.484  26.161  0.00  0.00    +0.000 A 
ATOM     15  C   UNL     1      27.363  24.585  27.103  0.00  0.00    +0.000 A 
ENDBRANCH   4   9
BRANCH   3  16
ATOM     16  C   UNL     1      30.409  22.939  27.466  0.00  0.00    +0.000 C 
ATOM     17  O   UNL     1      31.195  21.969  27.459  0.00  0.00    +0.000 OA
BRANCH  16  18
ATOM     18  O   UNL     1      30.623  23.973  26.597  0.00  0.00    +0.000 OA
BRANCH  18  19
ATOM     19  C   UNL     1      30.829  23.795  25.201  0.00  0.00    +0.000 C 
ATOM     20  C   UNL     1      32.329  23.902  24.927  0.00  0.00    +0.000 C 
ATOM     21  C   UNL     1      30.059  24.830  24.408  0.00  0.00    +0.000 C 
ATOM     22  C   UNL     1      30.374  22.428  24.738  0.00  0.00    +0.000 C 
ENDBRANCH  18  19
ENDBRANCH  16  18
ENDBRANCH   3  16
TORSDOF 4
ENDMDL
MODEL 5
REMARK VINA RESULT:      -5.2      2.840      5.128
REMARK  Name = 
REMARK  4 active torsions:
REMARK  status: ('A' for Active; 'I' for Inactive)
REMARK    1  A    between atoms: C_3  and  C_4
REMARK    2  A    between atoms: C_4  and  O_6
REMARK    3  A    between atoms: O_6  and  C_7
REMARK    4  A    between atoms: C_11  and  C_12
REMARK                            x       y       z     vdW  Elec       q    Type
REMARK                         _______ _______ _______ _____ _____    ______ ____
ROOT
ATOM      1  C   UNL     1      31.181  22.055  27.786  0.00  0.00    +0.000 C 
ATOM      2  C   UNL     1      30.732  23.409  27.264  0.00  0.00    +0.000 C 
ATOM      3  C   UNL     1      29.517  23.695  27.416  0.00  0.00    +0.000 C 
ATOM      4  C   UNL     1      28.761  25.013  26.968  0.00  0.00    +0.000 C 
ATOM      5  N   UNL     1      29.878  25.852  26.359  0.00  0.00    +0.000 NA
ATOM      6  C   UNL     1      31.183  25.508  26.211  0.00  0.00    +0.000 C 
ATOM      7  O   UNL     1      31.972  26.336  25.653  0.00  0.00    +0.000 OA
ATOM      8  N   UNL     1      31.668  24.260  26.662  0.00  0.00    +0.000 NA
ENDROOT
BRANCH   4   9
ATOM      9  C   UNL     1      28.085  24.528  25.622  0.00  0.00    +0.000 A 
ATOM     10  C   UNL     1      28.856  23.835  24.735  0.00  0.00    +0.000 A 
ATOM     11  C   UNL     1      28.311  23.379  23.522  0.00  0.00    +0.000 A 
ATOM     12  C   UNL     1      26.995  23.640  23.245  0.00  0.00    +0.000 A 
ATOM     13  O   UNL     1      26.403  23.215  22.065  0.00  0.00    +0.000 OA
ATOM     14  C   UNL     1      26.241  24.341  24.156  0.00  0.00    +0.000 A 
ATOM     15  C   UNL     1      26.792  24.792  25.363  0.00  0.00    +0.000 A 
ENDBRANCH   4   9
BRANCH   3  16
ATOM     16  C   UNL     1      28.567  22.732  28.086  0.00  0.00    +0.000 C 
ATOM     17  O   UNL     1      28.078  21.754  27.483  0.00  0.00    +0.000 OA
BRANCH  16  18
ATOM     18  O   UNL     1      28.233  22.938  29.396  0.00  0.00    +0.000 OA
BRANCH  18  19
ATOM     19  C   UNL     1      26.900  23.160  29.841  0.00  0.00    +0.000 C 
ATOM     20  C   UNL     1      26.366  21.846  30.408  0.00  0.00    +0.000 C 
ATOM     21  C   UNL     1      26.029  23.652  28.704  0.00  0.00    +0.000 C 
ATOM     22  C   UNL     1      26.844  24.193  30.945  0.00  0.00    +0.000 C 
ENDBRANCH  18  19
ENDBRANCH  16  18
ENDBRANCH   3  16
TORSDOF 4
ENDMDL
MODEL 6
REMARK VINA RESULT:      -5.1     38.072     40.050
REMARK  Name = 
REMARK  4 active torsions:
REMARK  status: ('A' for Active; 'I' for Inactive)
REMARK    1  A    between atoms: C_3  and  C_4
REMARK    2  A    between atoms: C_4  and  O_6
REMARK    3  A    between atoms: O_6  and  C_7
REMARK    4  A    between atoms: C_11  and  C_12
REMARK                            x       y       z     vdW  Elec       q    Type
REMARK                         _______ _______ _______ _____ _____    ______ ____
ROOT
ATOM      1  C   UNL     1      -2.864  -4.001  19.512  0.00  0.00    +0.000 C 
ATOM      2  C   UNL     1      -2.333  -2.965  20.488  0.00  0.00    +0.000 C 
ATOM      3  C   UNL     1      -1.224  -2.445  20.207  0.00  0.00    +0.000 C 
ATOM      4  C   UNL     1      -0.420  -1.357  21.031  0.00  0.00    +0.000 C 
ATOM      5  N   UNL     1      -1.345  -1.073  22.208  0.00  0.00    +0.000 NA
ATOM      6  C   UNL     1      -2.540  -1.658  22.480  0.00  0.00    +0.000 C 
ATOM      7  O   UNL     1      -3.166  -1.307  23.531  0.00  0.00    +0.000 OA
ATOM      8  N   UNL     1      -3.088  -2.638  21.623  0.00  0.00    +0.000 NA
ENDROOT
BRANCH   4   9
ATOM      9  C   UNL     1       0.630  -2.268  21.786  0.00  0.00    +0.000 A 
ATOM     10  C   UNL     1       1.955  -1.999  21.603  0.00  0.00    +0.000 A 
ATOM     11  C   UNL     1       2.935  -2.775  22.247  0.00  0.00    +0.000 A 
ATOM     12  C   UNL     1       2.539  -3.804  23.060  0.00  0.00    +0.000 A 
ATOM     13  O   UNL     1       3.460  -4.603  23.722  0.00  0.00    +0.000 OA
ATOM     14  C   UNL     1       1.198  -4.054  23.226  0.00  0.00    +0.000 A 
ATOM     15  C   UNL     1       0.227  -3.276  22.580  0.00  0.00    +0.000 A 
ENDBRANCH   4   9
BRANCH   3  16
ATOM     16  C   UNL     1      -0.472  -2.839  18.959  0.00  0.00    +0.000 C 
ATOM     17  O   UNL     1      -0.485  -2.137  17.927  0.00  0.00    +0.000 OA
BRANCH  16  18
ATOM     18  O   UNL     1       0.248  -4.002  18.962  0.00  0.00    +0.000 OA
BRANCH  18  19
ATOM     19  C   UNL     1       1.558  -4.116  18.421  0.00  0.00    +0.000 C 
ATOM     20  C   UNL     1       1.441  -4.720  17.022  0.00  0.00    +0.000 C 
ATOM     21  C   UNL     1       2.433  -4.975  19.310  0.00  0.00    +0.000 C 
ATOM     22  C   UNL     1       2.226  -2.766  18.284  0.00  0.00    +0.000 C 
ENDBRANCH  18  19
ENDBRANCH  16  18
ENDBRANCH   3  16
TORSDOF 4
ENDMDL
MODEL 7
REMARK VINA RESULT:      -5.1      2.312      4.657
REMARK  Name = 
REMARK  4 active torsions:
REMARK  status: ('A' for Active; 'I' for Inactive)
REMARK    1  A    between atoms: C_3  and  C_4
REMARK    2  A    between atoms: C_4  and  O_6
REMARK    3  A    between atoms: O_6  and  C_7
REMARK    4  A    between atoms: C_11  and  C_12
REMARK                            x       y       z     vdW  Elec       q    Type
REMARK                         _______ _______ _______ _____ _____    ______ ____
ROOT
ATOM      1  C   UNL     1      28.063  26.921  27.630  0.00  0.00    +0.000 C 
ATOM      2  C   UNL     1      27.122  26.234  26.655  0.00  0.00    +0.000 C 
ATOM      3  C   UNL     1      27.429  25.067  26.305  0.00  0.00    +0.000 C 
ATOM      4  C   UNL     1      26.657  24.114  25.302  0.00  0.00    +0.000 C 
ATOM      5  N   UNL     1      25.440  24.946  24.915  0.00  0.00    +0.000 NA
ATOM      6  C   UNL     1      25.142  26.209  25.314  0.00  0.00    +0.000 C 
ATOM      7  O   UNL     1      24.084  26.756  24.865  0.00  0.00    +0.000 OA
ATOM      8  N   UNL     1      25.978  26.911  26.209  0.00  0.00    +0.000 NA
ENDROOT
BRANCH   4   9
ATOM      9  C   UNL     1      27.502  24.323  23.980  0.00  0.00    +0.000 A 
ATOM     10  C   UNL     1      27.904  25.590  23.675  0.00  0.00    +0.000 A 
ATOM     11  C   UNL     1      28.656  25.838  22.513  0.00  0.00    +0.000 A 
ATOM     12  C   UNL     1      28.979  24.789  21.694  0.00  0.00    +0.000 A 
ATOM     13  O   UNL     1      29.719  24.972  20.535  0.00  0.00    +0.000 OA
ATOM     14  C   UNL     1      28.561  23.522  22.025  0.00  0.00    +0.000 A 
ATOM     15  C   UNL     1      27.811  23.283  23.185  0.00  0.00    +0.000 A 
ENDBRANCH   4   9
BRANCH   3  16
ATOM     16  C   UNL     1      28.672  24.395  26.836  0.00  0.00    +0.000 C 
ATOM     17  O   UNL     1      28.641  23.614  27.809  0.00  0.00    +0.000 OA
BRANCH  16  18
ATOM     18  O   UNL     1      29.871  24.651  26.229  0.00  0.00    +0.000 OA
BRANCH  18  19
ATOM     19  C   UNL     1      30.778  23.634  25.822  0.00  0.00    +0.000 C 
ATOM     20  C   UNL     1      31.868  23.520  26.887  0.00  0.00    +0.000 C 
ATOM     21  C   UNL     1      31.376  23.958  24.469  0.00  0.00    +0.000 C 
ATOM     22  C   UNL     1      30.098  22.287  25.716  0.00  0.00    +0.000 C 
ENDBRANCH  18  19
ENDBRANCH  16  18
ENDBRANCH   3  16
TORSDOF 4
ENDMDL
MODEL 8
REMARK VINA RESULT:      -5.1     33.443     35.587
REMARK  Name = 
REMARK  4 active torsions:
REMARK  status: ('A' for Active; 'I' for Inactive)
REMARK    1  A    between atoms: C_3  and  C_4
REMARK    2  A    between atoms: C_4  and  O_6
REMARK    3  A    between atoms: O_6  and  C_7
REMARK    4  A    between atoms: C_11  and  C_12
REMARK                            x       y       z     vdW  Elec       q    Type
REMARK                         _______ _______ _______ _____ _____    ______ ____
ROOT
ATOM      1  C   UNL     1      21.123  -8.504  25.668  0.00  0.00    +0.000 C 
ATOM      2  C   UNL     1      19.911  -7.832  26.290  0.00  0.00    +0.000 C 
ATOM      3  C   UNL     1      19.191  -8.547  27.031  0.00  0.00    +0.000 C 
ATOM      4  C   UNL     1      17.869  -8.134  27.800  0.00  0.00    +0.000 C 
ATOM      5  N   UNL     1      17.724  -6.657  27.453  0.00  0.00    +0.000 NA
ATOM      6  C   UNL     1      18.525  -5.916  26.644  0.00  0.00    +0.000 C 
ATOM      7  O   UNL     1      18.231  -4.693  26.451  0.00  0.00    +0.000 OA
ATOM      8  N   UNL     1      19.662  -6.479  26.023  0.00  0.00    +0.000 NA
ENDROOT
BRANCH   4   9
ATOM      9  C   UNL     1      16.764  -8.704  26.822  0.00  0.00    +0.000 A 
ATOM     10  C   UNL     1      16.089  -9.826  27.208  0.00  0.00    +0.000 A 
ATOM     11  C   UNL     1      15.096 -10.379  26.381  0.00  0.00    +0.000 A 
ATOM     12  C   UNL     1      14.815  -9.775  25.183  0.00  0.00    +0.000 A 
ATOM     13  O   UNL     1      13.846 -10.275  24.326  0.00  0.00    +0.000 OA
ATOM     14  C   UNL     1      15.510  -8.646  24.819  0.00  0.00    +0.000 A 
ATOM     15  C   UNL     1      16.500  -8.101  25.650  0.00  0.00    +0.000 A 
ENDBRANCH   4   9
BRANCH   3  16
ATOM     16  C   UNL     1      19.528  -9.997  27.283  0.00  0.00    +0.000 C 
ATOM     17  O   UNL     1      19.152 -10.909  26.518  0.00  0.00    +0.000 OA
BRANCH  16  18
ATOM     18  O   UNL     1      20.271 -10.320  28.384  0.00  0.00    +0.000 OA
BRANCH  18  19
ATOM     19  C   UNL     1      19.720 -10.899  29.561  0.00  0.00    +0.000 C 
ATOM     20  C   UNL     1      19.678  -9.820  30.643  0.00  0.00    +0.000 C 
ATOM     21  C   UNL     1      20.545 -12.086  30.013  0.00  0.00    +0.000 C 
ATOM     22  C   UNL     1      18.304 -11.380  29.337  0.00  0.00    +0.000 C 
ENDBRANCH  18  19
ENDBRANCH  16  18
ENDBRANCH   3  16
TORSDOF 4
ENDMDL
MODEL 9
REMARK VINA RESULT:      -5.1     20.491     23.174
REMARK  Name = 
REMARK  4 active torsions:
REMARK  status: ('A' for Active; 'I' for Inactive)
REMARK    1  A    between atoms: C_3  and  C_4
REMARK    2  A    between atoms: C_4  and  O_6
REMARK    3  A    between atoms: O_6  and  C_7
REMARK    4  A    between atoms: C_11  and  C_12
REMARK                            x       y       z     vdW  Elec       q    Type
REMARK                         _______ _______ _______ _____ _____    ______ ____
ROOT
ATOM      1  C   UNL     1      21.662  10.018  37.086  0.00  0.00    +0.000 C 
ATOM      2  C   UNL     1      20.144   9.972  37.078  0.00  0.00    +0.000 C 
ATOM      3  C   UNL     1      19.561  10.483  38.068  0.00  0.00    +0.000 C 
ATOM      4  C   UNL     1      18.003  10.573  38.344  0.00  0.00    +0.000 C 
ATOM      5  N   UNL     1      17.403   9.935  37.097  0.00  0.00    +0.000 NA
ATOM      6  C   UNL     1      18.067   9.392  36.045  0.00  0.00    +0.000 C 
ATOM      7  O   UNL     1      17.391   8.880  35.096  0.00  0.00    +0.000 OA
ATOM      8  N   UNL     1      19.478   9.388  35.991  0.00  0.00    +0.000 NA
ENDROOT
BRANCH   4   9
ATOM      9  C   UNL     1      17.804   9.357  39.336  0.00  0.00    +0.000 A 
ATOM     10  C   UNL     1      16.809   9.449  40.265  0.00  0.00    +0.000 A 
ATOM     11  C   UNL     1      16.584   8.401  41.174  0.00  0.00    +0.000 A 
ATOM     12  C   UNL     1      17.378   7.286  41.113  0.00  0.00    +0.000 A 
ATOM     13  O   UNL     1      17.203   6.220  41.983  0.00  0.00    +0.000 OA
ATOM     14  C   UNL     1      18.374   7.219  40.168  0.00  0.00    +0.000 A 
ATOM     15  C   UNL     1      18.592   8.269  39.265  0.00  0.00    +0.000 A 
ENDBRANCH   4   9
BRANCH   3  16
ATOM     16  C   UNL     1      20.344  11.106  39.198  0.00  0.00    +0.000 C 
ATOM     17  O   UNL     1      21.137  10.445  39.900  0.00  0.00    +0.000 OA
BRANCH  16  18
ATOM     18  O   UNL     1      20.177  12.438  39.460  0.00  0.00    +0.000 OA
BRANCH  18  19
ATOM     19  C   UNL     1      21.245  13.377  39.462  0.00  0.00    +0.000 C 
ATOM     20  C   UNL     1      21.765  13.498  40.894  0.00  0.00    +0.000 C 
ATOM     21  C   UNL     1      20.780  14.720  38.941  0.00  0.00    +0.000 C 
ATOM     22  C   UNL     1      22.395  12.919  38.593  0.00  0.00    +0.000 C 
ENDBRANCH  18  19
ENDBRANCH  16  18
ENDBRANCH   3  16
TORSDOF 4
ENDMDL
MODEL 10
REMARK VINA RESULT:      -5.1     21.360     23.957
REMARK  Name = 
REMARK  4 active torsions:
REMARK  status: ('A' for Active; 'I' for Inactive)
REMARK    1  A    between atoms: C_3  and  C_4
REMARK    2  A    between atoms: C_4  and  O_6
REMARK    3  A    between atoms: O_6  and  C_7
REMARK    4  A    between atoms: C_11  and  C_12
REMARK                            x       y       z     vdW  Elec       q    Type
REMARK                         _______ _______ _______ _____ _____    ______ ____
ROOT
ATOM      1  C   UNL     1      21.567   9.934  37.024  0.00  0.00    +0.000 C 
ATOM      2  C   UNL     1      20.053   9.939  37.133  0.00  0.00    +0.000 C 
ATOM      3  C   UNL     1      19.569  10.339  38.222  0.00  0.00    +0.000 C 
ATOM      4  C   UNL     1      18.043  10.444  38.632  0.00  0.00    +0.000 C 
ATOM      5  N   UNL     1      17.322   9.989  37.369  0.00  0.00    +0.000 NA
ATOM      6  C   UNL     1      17.880   9.563  36.207  0.00  0.00    +0.000 C 
ATOM      7  O   UNL     1      17.113   9.198  35.260  0.00  0.00    +0.000 OA
ATOM      8  N   UNL     1      19.282   9.520  36.040  0.00  0.00    +0.000 NA
ENDROOT
BRANCH   4   9
ATOM      9  C   UNL     1      17.867   9.120  39.479  0.00  0.00    +0.000 A 
ATOM     10  C   UNL     1      16.898   9.100  40.439  0.00  0.00    +0.000 A 
ATOM     11  C   UNL     1      16.695   7.951  41.224  0.00  0.00    +0.000 A 
ATOM     12  C   UNL     1      17.486   6.853  41.010  0.00  0.00    +0.000 A 
ATOM     13  O   UNL     1      17.332   5.691  41.753  0.00  0.00    +0.000 OA
ATOM     14  C   UNL     1      18.456   6.899  40.037  0.00  0.00    +0.000 A 
ATOM     15  C   UNL     1      18.651   8.049  39.259  0.00  0.00    +0.000 A 
ENDBRANCH   4   9
BRANCH   3  16
ATOM     16  C   UNL     1      20.461  10.788  39.354  0.00  0.00    +0.000 C 
ATOM     17  O   UNL     1      20.529  11.982  39.713  0.00  0.00    +0.000 OA
BRANCH  16  18
ATOM     18  O   UNL     1      21.220   9.855  40.006  0.00  0.00    +0.000 OA
BRANCH  18  19
ATOM     19  C   UNL     1      21.269   9.734  41.422  0.00  0.00    +0.000 C 
ATOM     20  C   UNL     1      21.487   8.260  41.763  0.00  0.00    +0.000 C 
ATOM     21  C   UNL     1      19.992  10.250  42.050  0.00  0.00    +0.000 C 
ATOM     22  C   UNL     1      22.421  10.517  42.011  0.00  0.00    +0.000 C 
ENDBRANCH  18  19
ENDBRANCH  16  18
ENDBRANCH   3  16
TORSDOF 4
ENDMDL
