MODEL 1
REMARK VINA RESULT:      -6.8      0.000      0.000
REMARK  Name = 
REMARK  2 active torsions:
REMARK  status: ('A' for Active; 'I' for Inactive)
REMARK    1  A    between atoms: C_5  and  C_7
REMARK    2  A    between atoms: C_8  and  C_9
REMARK                            x       y       z     vdW  Elec       q    Type
REMARK                         _______ _______ _______ _____ _____    ______ ____
ROOT
ATOM      1  C   UNL     1      34.875  -7.864  29.117  0.00  0.00    +0.000 C 
ATOM      2  C   UNL     1      33.700  -7.712  30.032  0.00  0.00    +0.000 C 
ATOM      3  C   UNL     1      33.972  -8.428  31.331  0.00  0.00    +0.000 C 
ATOM      4  C   UNL     1      34.022  -7.373  32.397  0.00  0.00    +0.000 C 
ATOM      5  C   UNL     1      34.324  -6.117  31.634  0.00  0.00    +0.000 C 
ATOM      6  O   UNL     1      35.652  -6.054  31.211  0.00  0.00    +0.000 OA
ATOM      7  C   UNL     1      33.465  -6.249  30.415  0.00  0.00    +0.000 C 
ATOM      8  C   UNL     1      33.882  -5.356  29.292  0.00  0.00    +0.000 C 
ATOM      9  C   UNL     1      31.996  -6.147  30.688  0.00  0.00    +0.000 C 
ATOM     10  C   UNL     1      31.345  -7.400  30.154  0.00  0.00    +0.000 C 
ATOM     11  C   UNL     1      32.419  -8.135  29.433  0.00  0.00    +0.000 C 
ATOM     12  O   UNL     1      32.336  -8.942  28.519  0.00  0.00    +0.000 OA
ENDROOT
BRANCH   5  13
ATOM     13  C   UNL     1      33.938  -4.904  32.336  0.00  0.00    +0.000 C 
ATOM     14  C   UNL     1      33.636  -3.895  32.929  0.00  0.00    +0.000 C 
BRANCH  14  15
ATOM     15  C   UNL     1      33.298  -2.692  33.646  0.00  0.00    +0.000 A 
ATOM     16  C   UNL     1      32.408  -2.726  34.681  0.00  0.00    +0.000 A 
ATOM     17  C   UNL     1      32.071  -1.588  35.379  0.00  0.00    +0.000 A 
ATOM     18  C   UNL     1      32.619  -0.365  35.063  0.00  0.00    +0.000 A 
ATOM     19  C   UNL     1      33.521  -0.311  34.019  0.00  0.00    +0.000 A 
ATOM     20  C   UNL     1      33.857  -1.460  33.319  0.00  0.00    +0.000 A 
ENDBRANCH  14  15
ENDBRANCH   5  13
TORSDOF 2
ENDMDL
MODEL 2
REMARK VINA RESULT:      -6.7     33.382     35.020
REMARK  Name = 
REMARK  2 active torsions:
REMARK  status: ('A' for Active; 'I' for Inactive)
REMARK    1  A    between atoms: C_5  and  C_7
REMARK    2  A    between atoms: C_8  and  C_9
REMARK                            x       y       z     vdW  Elec       q    Type
REMARK                         _______ _______ _______ _____ _____    ______ ____
ROOT
ATOM      1  C   UNL     1      34.376  20.129   8.287  0.00  0.00    +0.000 C 
ATOM      2  C   UNL     1      34.066  21.506   8.787  0.00  0.00    +0.000 C 
ATOM      3  C   UNL     1      33.492  22.337   7.668  0.00  0.00    +0.000 C 
ATOM      4  C   UNL     1      32.079  22.658   8.058  0.00  0.00    +0.000 C 
ATOM      5  C   UNL     1      31.738  21.592   9.057  0.00  0.00    +0.000 C 
ATOM      6  O   UNL     1      31.515  20.351   8.459  0.00  0.00    +0.000 OA
ATOM      7  C   UNL     1      32.988  21.485   9.874  0.00  0.00    +0.000 C 
ATOM      8  C   UNL     1      33.081  20.216  10.658  0.00  0.00    +0.000 C 
ATOM      9  C   UNL     1      33.267  22.684  10.726  0.00  0.00    +0.000 C 
ATOM     10  C   UNL     1      34.645  23.186  10.368  0.00  0.00    +0.000 C 
ATOM     11  C   UNL     1      35.212  22.177   9.434  0.00  0.00    +0.000 C 
ATOM     12  O   UNL     1      36.378  21.901   9.195  0.00  0.00    +0.000 OA
ENDROOT
BRANCH   5  13
ATOM     13  C   UNL     1      30.644  21.953   9.942  0.00  0.00    +0.000 C 
ATOM     14  C   UNL     1      29.743  22.243  10.694  0.00  0.00    +0.000 C 
BRANCH  14  15
ATOM     15  C   UNL     1      28.681  22.578  11.608  0.00  0.00    +0.000 A 
ATOM     16  C   UNL     1      27.381  22.298  11.297  0.00  0.00    +0.000 A 
ATOM     17  C   UNL     1      26.352  22.610  12.157  0.00  0.00    +0.000 A 
ATOM     18  C   UNL     1      26.589  23.218  13.368  0.00  0.00    +0.000 A 
ATOM     19  C   UNL     1      27.897  23.510  13.701  0.00  0.00    +0.000 A 
ATOM     20  C   UNL     1      28.931  23.194  12.831  0.00  0.00    +0.000 A 
ENDBRANCH  14  15
ENDBRANCH   5  13
TORSDOF 2
ENDMDL
MODEL 3
REMARK VINA RESULT:      -6.6     33.526     34.842
REMARK  Name = 
REMARK  2 active torsions:
REMARK  status: ('A' for Active; 'I' for Inactive)
REMARK    1  A    between atoms: C_5  and  C_7
REMARK    2  A    between atoms: C_8  and  C_9
REMARK                            x       y       z     vdW  Elec       q    Type
REMARK                         _______ _______ _______ _____ _____    ______ ____
ROOT
ATOM      1  C   UNL     1      34.719  21.916   8.168  0.00  0.00    +0.000 C 
ATOM      2  C   UNL     1      33.598  20.938   8.338  0.00  0.00    +0.000 C 
ATOM      3  C   UNL     1      33.918  19.988   9.463  0.00  0.00    +0.000 C 
ATOM      4  C   UNL     1      32.901  20.241  10.537  0.00  0.00    +0.000 C 
ATOM      5  C   UNL     1      32.415  21.629  10.241  0.00  0.00    +0.000 C 
ATOM      6  O   UNL     1      33.344  22.608  10.596  0.00  0.00    +0.000 OA
ATOM      7  C   UNL     1      32.297  21.633   8.749  0.00  0.00    +0.000 C 
ATOM      8  C   UNL     1      32.245  23.005   8.159  0.00  0.00    +0.000 C 
ATOM      9  C   UNL     1      31.202  20.760   8.219  0.00  0.00    +0.000 C 
ATOM     10  C   UNL     1      31.825  19.789   7.245  0.00  0.00    +0.000 C 
ATOM     11  C   UNL     1      33.242  20.218   7.099  0.00  0.00    +0.000 C 
ATOM     12  O   UNL     1      34.019  20.047   6.172  0.00  0.00    +0.000 OA
ENDROOT
BRANCH   5  13
ATOM     13  C   UNL     1      31.106  21.919  10.803  0.00  0.00    +0.000 C 
ATOM     14  C   UNL     1      30.023  22.180  11.271  0.00  0.00    +0.000 C 
BRANCH  14  15
ATOM     15  C   UNL     1      28.736  22.515  11.827  0.00  0.00    +0.000 A 
ATOM     16  C   UNL     1      27.586  22.128  11.203  0.00  0.00    +0.000 A 
ATOM     17  C   UNL     1      26.347  22.439  11.718  0.00  0.00    +0.000 A 
ATOM     18  C   UNL     1      26.216  23.153  12.887  0.00  0.00    +0.000 A 
ATOM     19  C   UNL     1      27.368  23.554  13.533  0.00  0.00    +0.000 A 
ATOM     20  C   UNL     1      28.614  23.239  13.010  0.00  0.00    +0.000 A 
ENDBRANCH  14  15
ENDBRANCH   5  13
TORSDOF 2
ENDMDL
MODEL 4
REMARK VINA RESULT:      -6.5     32.327     34.265
REMARK  Name = 
REMARK  2 active torsions:
REMARK  status: ('A' for Active; 'I' for Inactive)
REMARK    1  A    between atoms: C_5  and  C_7
REMARK    2  A    between atoms: C_8  and  C_9
REMARK                            x       y       z     vdW  Elec       q    Type
REMARK                         _______ _______ _______ _____ _____    ______ ____
ROOT
ATOM      1  C   UNL     1      34.874  20.589   8.424  0.00  0.00    +0.000 C 
ATOM      2  C   UNL     1      34.743  20.912   9.880  0.00  0.00    +0.000 C 
ATOM      3  C   UNL     1      35.197  22.328  10.131  0.00  0.00    +0.000 C 
ATOM      4  C   UNL     1      33.988  23.087  10.593  0.00  0.00    +0.000 C 
ATOM      5  C   UNL     1      32.840  22.268  10.079  0.00  0.00    +0.000 C 
ATOM      6  O   UNL     1      32.661  22.404   8.703  0.00  0.00    +0.000 OA
ATOM      7  C   UNL     1      33.285  20.863  10.344  0.00  0.00    +0.000 C 
ATOM      8  C   UNL     1      32.534  19.842   9.553  0.00  0.00    +0.000 C 
ATOM      9  C   UNL     1      33.347  20.504  11.796  0.00  0.00    +0.000 C 
ATOM     10  C   UNL     1      34.748  20.022  12.086  0.00  0.00    +0.000 C 
ATOM     11  C   UNL     1      35.432  19.953  10.767  0.00  0.00    +0.000 C 
ATOM     12  O   UNL     1      36.378  19.266  10.413  0.00  0.00    +0.000 OA
ENDROOT
BRANCH   5  13
ATOM     13  C   UNL     1      31.597  22.496  10.796  0.00  0.00    +0.000 C 
ATOM     14  C   UNL     1      30.571  22.705  11.400  0.00  0.00    +0.000 C 
BRANCH  14  15
ATOM     15  C   UNL     1      29.356  22.974  12.127  0.00  0.00    +0.000 A 
ATOM     16  C   UNL     1      29.398  23.577  13.351  0.00  0.00    +0.000 A 
ATOM     17  C   UNL     1      28.249  23.843  14.063  0.00  0.00    +0.000 A 
ATOM     18  C   UNL     1      27.008  23.512  13.569  0.00  0.00    +0.000 A 
ATOM     19  C   UNL     1      26.946  22.902  12.332  0.00  0.00    +0.000 A 
ATOM     20  C   UNL     1      28.106  22.636  11.620  0.00  0.00    +0.000 A 
ENDBRANCH  14  15
ENDBRANCH   5  13
TORSDOF 2
ENDMDL
MODEL 5
REMARK VINA RESULT:      -6.5     11.992     13.734
REMARK  Name = 
REMARK  2 active torsions:
REMARK  status: ('A' for Active; 'I' for Inactive)
REMARK    1  A    between atoms: C_5  and  C_7
REMARK    2  A    between atoms: C_8  and  C_9
REMARK                            x       y       z     vdW  Elec       q    Type
REMARK                         _______ _______ _______ _____ _____    ______ ____
ROOT
ATOM      1  C   UNL     1      25.191  -9.197  21.412  0.00  0.00    +0.000 C 
ATOM      2  C   UNL     1      25.204  -9.007  22.897  0.00  0.00    +0.000 C 
ATOM      3  C   UNL     1      25.830  -7.677  23.235  0.00  0.00    +0.000 C 
ATOM      4  C   UNL     1      24.750  -6.845  23.862  0.00  0.00    +0.000 C 
ATOM      5  C   UNL     1      23.484  -7.486  23.374  0.00  0.00    +0.000 C 
ATOM      6  O   UNL     1      23.221  -7.198  22.035  0.00  0.00    +0.000 OA
ATOM      7  C   UNL     1      23.787  -8.948  23.474  0.00  0.00    +0.000 C 
ATOM      8  C   UNL     1      22.872  -9.804  22.660  0.00  0.00    +0.000 C 
ATOM      9  C   UNL     1      23.914  -9.453  24.878  0.00  0.00    +0.000 C 
ATOM     10  C   UNL     1      25.271 -10.104  25.007  0.00  0.00    +0.000 C 
ATOM     11  C   UNL     1      25.844 -10.114  23.634  0.00  0.00    +0.000 C 
ATOM     12  O   UNL     1      26.680 -10.858  23.142  0.00  0.00    +0.000 OA
ENDROOT
BRANCH   5  13
ATOM     13  C   UNL     1      22.329  -7.201  24.209  0.00  0.00    +0.000 C 
ATOM     14  C   UNL     1      21.363  -6.984  24.903  0.00  0.00    +0.000 C 
BRANCH  14  15
ATOM     15  C   UNL     1      20.205  -6.750  25.728  0.00  0.00    +0.000 A 
ATOM     16  C   UNL     1      19.529  -7.793  26.291  0.00  0.00    +0.000 A 
ATOM     17  C   UNL     1      18.420  -7.590  27.082  0.00  0.00    +0.000 A 
ATOM     18  C   UNL     1      17.946  -6.324  27.340  0.00  0.00    +0.000 A 
ATOM     19  C   UNL     1      18.617  -5.256  26.779  0.00  0.00    +0.000 A 
ATOM     20  C   UNL     1      19.733  -5.466  25.983  0.00  0.00    +0.000 A 
ENDBRANCH  14  15
ENDBRANCH   5  13
TORSDOF 2
ENDMDL
MODEL 6
REMARK VINA RESULT:      -6.3     28.449     31.181
REMARK  Name = 
REMARK  2 active torsions:
REMARK  status: ('A' for Active; 'I' for Inactive)
REMARK    1  A    between atoms: C_5  and  C_7
REMARK    2  A    between atoms: C_8  and  C_9
REMARK                            x       y       z     vdW  Elec       q    Type
REMARK                         _______ _______ _______ _____ _____    ______ ____
ROOT
ATOM      1  C   UNL     1      29.332  24.755  21.337  0.00  0.00    +0.000 C 
ATOM      2  C   UNL     1      28.085  25.185  22.046  0.00  0.00    +0.000 C 
ATOM      3  C   UNL     1      26.948  24.264  21.680  0.00  0.00    +0.000 C 
ATOM      4  C   UNL     1      26.556  23.550  22.941  0.00  0.00    +0.000 C 
ATOM      5  C   UNL     1      27.778  23.664  23.804  0.00  0.00    +0.000 C 
ATOM      6  O   UNL     1      28.805  22.814  23.391  0.00  0.00    +0.000 OA
ATOM      7  C   UNL     1      28.229  25.071  23.565  0.00  0.00    +0.000 C 
ATOM      8  C   UNL     1      29.649  25.317  23.961  0.00  0.00    +0.000 C 
ATOM      9  C   UNL     1      27.309  26.111  24.125  0.00  0.00    +0.000 C 
ATOM     10  C   UNL     1      26.911  27.025  22.991  0.00  0.00    +0.000 C 
ATOM     11  C   UNL     1      27.732  26.601  21.825  0.00  0.00    +0.000 C 
ATOM     12  O   UNL     1      28.086  27.240  20.846  0.00  0.00    +0.000 OA
ENDROOT
BRANCH   5  13
ATOM     13  C   UNL     1      27.504  23.506  25.222  0.00  0.00    +0.000 C 
ATOM     14  C   UNL     1      27.287  23.392  26.406  0.00  0.00    +0.000 C 
BRANCH  14  15
ATOM     15  C   UNL     1      27.040  23.278  27.821  0.00  0.00    +0.000 A 
ATOM     16  C   UNL     1      26.135  24.093  28.437  0.00  0.00    +0.000 A 
ATOM     17  C   UNL     1      25.885  24.000  29.788  0.00  0.00    +0.000 A 
ATOM     18  C   UNL     1      26.537  23.079  30.576  0.00  0.00    +0.000 A 
ATOM     19  C   UNL     1      27.456  22.245  29.970  0.00  0.00    +0.000 A 
ATOM     20  C   UNL     1      27.705  22.343  28.609  0.00  0.00    +0.000 A 
ENDBRANCH  14  15
ENDBRANCH   5  13
TORSDOF 2
ENDMDL
MODEL 7
REMARK VINA RESULT:      -6.2      5.127      7.747
REMARK  Name = 
REMARK  2 active torsions:
REMARK  status: ('A' for Active; 'I' for Inactive)
REMARK    1  A    between atoms: C_5  and  C_7
REMARK    2  A    between atoms: C_8  and  C_9
REMARK                            x       y       z     vdW  Elec       q    Type
REMARK                         _______ _______ _______ _____ _____    ______ ____
ROOT
ATOM      1  C   UNL     1      32.250  -2.660  35.203  0.00  0.00    +0.000 C 
ATOM      2  C   UNL     1      33.604  -2.063  34.971  0.00  0.00    +0.000 C 
ATOM      3  C   UNL     1      33.833  -1.882  33.492  0.00  0.00    +0.000 C 
ATOM      4  C   UNL     1      33.937  -0.404  33.255  0.00  0.00    +0.000 C 
ATOM      5  C   UNL     1      33.240   0.192  34.443  0.00  0.00    +0.000 C 
ATOM      6  O   UNL     1      31.853   0.063  34.369  0.00  0.00    +0.000 OA
ATOM      7  C   UNL     1      33.717  -0.661  35.576  0.00  0.00    +0.000 C 
ATOM      8  C   UNL     1      32.861  -0.564  36.797  0.00  0.00    +0.000 C 
ATOM      9  C   UNL     1      35.169  -0.491  35.901  0.00  0.00    +0.000 C 
ATOM     10  C   UNL     1      35.817  -1.853  35.817  0.00  0.00    +0.000 C 
ATOM     11  C   UNL     1      34.703  -2.816  35.606  0.00  0.00    +0.000 C 
ATOM     12  O   UNL     1      34.638  -4.006  35.878  0.00  0.00    +0.000 OA
ENDROOT
BRANCH   5  13
ATOM     13  C   UNL     1      33.626   1.567  34.712  0.00  0.00    +0.000 C 
ATOM     14  C   UNL     1      33.930   2.717  34.926  0.00  0.00    +0.000 C 
BRANCH  14  15
ATOM     15  C   UNL     1      34.272   4.096  35.170  0.00  0.00    +0.000 A 
ATOM     16  C   UNL     1      33.361   5.088  34.949  0.00  0.00    +0.000 A 
ATOM     17  C   UNL     1      33.668   6.411  35.176  0.00  0.00    +0.000 A 
ATOM     18  C   UNL     1      34.908   6.790  35.636  0.00  0.00    +0.000 A 
ATOM     19  C   UNL     1      35.843   5.801  35.865  0.00  0.00    +0.000 A 
ATOM     20  C   UNL     1      35.529   4.470  35.635  0.00  0.00    +0.000 A 
ENDBRANCH  14  15
ENDBRANCH   5  13
TORSDOF 2
ENDMDL
MODEL 8
REMARK VINA RESULT:      -6.1     27.061     29.152
REMARK  Name = 
REMARK  2 active torsions:
REMARK  status: ('A' for Active; 'I' for Inactive)
REMARK    1  A    between atoms: C_5  and  C_7
REMARK    2  A    between atoms: C_8  and  C_9
REMARK                            x       y       z     vdW  Elec       q    Type
REMARK                         _______ _______ _______ _____ _____    ______ ____
ROOT
ATOM      1  C   UNL     1      28.831  25.379  23.928  0.00  0.00    +0.000 C 
ATOM      2  C   UNL     1      28.563  24.023  24.505  0.00  0.00    +0.000 C 
ATOM      3  C   UNL     1      29.341  22.982  23.741  0.00  0.00    +0.000 C 
ATOM      4  C   UNL     1      30.334  22.401  24.704  0.00  0.00    +0.000 C 
ATOM      5  C   UNL     1      30.464  23.461  25.758  0.00  0.00    +0.000 C 
ATOM      6  O   UNL     1      31.207  24.559  25.324  0.00  0.00    +0.000 OA
ATOM      7  C   UNL     1      29.051  23.916  25.952  0.00  0.00    +0.000 C 
ATOM      8  C   UNL     1      28.940  25.245  26.626  0.00  0.00    +0.000 C 
ATOM      9  C   UNL     1      28.161  22.895  26.591  0.00  0.00    +0.000 C 
ATOM     10  C   UNL     1      26.988  22.671  25.667  0.00  0.00    +0.000 C 
ATOM     11  C   UNL     1      27.129  23.683  24.586  0.00  0.00    +0.000 C 
ATOM     12  O   UNL     1      26.276  24.181  23.866  0.00  0.00    +0.000 OA
ENDROOT
BRANCH   5  13
ATOM     13  C   UNL     1      30.960  22.959  27.028  0.00  0.00    +0.000 C 
ATOM     14  C   UNL     1      31.384  22.560  28.088  0.00  0.00    +0.000 C 
BRANCH  14  15
ATOM     15  C   UNL     1      31.900  22.105  29.354  0.00  0.00    +0.000 A 
ATOM     16  C   UNL     1      31.101  22.075  30.460  0.00  0.00    +0.000 A 
ATOM     17  C   UNL     1      31.575  21.644  31.680  0.00  0.00    +0.000 A 
ATOM     18  C   UNL     1      32.876  21.224  31.835  0.00  0.00    +0.000 A 
ATOM     19  C   UNL     1      33.700  21.248  30.727  0.00  0.00    +0.000 A 
ATOM     20  C   UNL     1      33.218  21.683  29.501  0.00  0.00    +0.000 A 
ENDBRANCH  14  15
ENDBRANCH   5  13
TORSDOF 2
ENDMDL
MODEL 9
REMARK VINA RESULT:      -6.0     12.125     14.046
REMARK  Name = 
REMARK  2 active torsions:
REMARK  status: ('A' for Active; 'I' for Inactive)
REMARK    1  A    between atoms: C_5  and  C_7
REMARK    2  A    between atoms: C_8  and  C_9
REMARK                            x       y       z     vdW  Elec       q    Type
REMARK                         _______ _______ _______ _____ _____    ______ ____
ROOT
ATOM      1  C   UNL     1      25.309 -10.765  22.660  0.00  0.00    +0.000 C 
ATOM      2  C   UNL     1      24.961  -9.308  22.628  0.00  0.00    +0.000 C 
ATOM      3  C   UNL     1      24.126  -9.011  21.408  0.00  0.00    +0.000 C 
ATOM      4  C   UNL     1      22.778  -8.583  21.909  0.00  0.00    +0.000 C 
ATOM      5  C   UNL     1      22.717  -9.160  23.293  0.00  0.00    +0.000 C 
ATOM      6  O   UNL     1      22.512 -10.540  23.289  0.00  0.00    +0.000 OA
ATOM      7  C   UNL     1      24.094  -8.906  23.823  0.00  0.00    +0.000 C 
ATOM      8  C   UNL     1      24.440  -9.747  25.009  0.00  0.00    +0.000 C 
ATOM      9  C   UNL     1      24.401  -7.460  24.062  0.00  0.00    +0.000 C 
ATOM     10  C   UNL     1      25.643  -7.123  23.272  0.00  0.00    +0.000 C 
ATOM     11  C   UNL     1      26.132  -8.414  22.719  0.00  0.00    +0.000 C 
ATOM     12  O   UNL     1      27.260  -8.744  22.385  0.00  0.00    +0.000 OA
ENDROOT
BRANCH   5  13
ATOM     13  C   UNL     1      21.763  -8.490  24.160  0.00  0.00    +0.000 C 
ATOM     14  C   UNL     1      20.964  -7.919  24.866  0.00  0.00    +0.000 C 
BRANCH  14  15
ATOM     15  C   UNL     1      20.007  -7.223  25.688  0.00  0.00    +0.000 A 
ATOM     16  C   UNL     1      19.952  -5.859  25.690  0.00  0.00    +0.000 A 
ATOM     17  C   UNL     1      19.045  -5.176  26.469  0.00  0.00    +0.000 A 
ATOM     18  C   UNL     1      18.153  -5.841  27.279  0.00  0.00    +0.000 A 
ATOM     19  C   UNL     1      18.193  -7.221  27.291  0.00  0.00    +0.000 A 
ATOM     20  C   UNL     1      19.108  -7.904  26.505  0.00  0.00    +0.000 A 
ENDBRANCH  14  15
ENDBRANCH   5  13
TORSDOF 2
ENDMDL
MODEL 10
REMARK VINA RESULT:      -6.0     29.032     31.150
REMARK  Name = 
REMARK  2 active torsions:
REMARK  status: ('A' for Active; 'I' for Inactive)
REMARK    1  A    between atoms: C_5  and  C_7
REMARK    2  A    between atoms: C_8  and  C_9
REMARK                            x       y       z     vdW  Elec       q    Type
REMARK                         _______ _______ _______ _____ _____    ______ ____
ROOT
ATOM      1  C   UNL     1      27.400  22.895  25.514  0.00  0.00    +0.000 C 
ATOM      2  C   UNL     1      27.940  23.856  24.501  0.00  0.00    +0.000 C 
ATOM      3  C   UNL     1      27.657  25.271  24.941  0.00  0.00    +0.000 C 
ATOM      4  C   UNL     1      28.990  25.911  25.198  0.00  0.00    +0.000 C 
ATOM      5  C   UNL     1      29.903  24.743  25.429  0.00  0.00    +0.000 C 
ATOM      6  O   UNL     1      29.709  24.151  26.677  0.00  0.00    +0.000 OA
ATOM      7  C   UNL     1      29.464  23.762  24.387  0.00  0.00    +0.000 C 
ATOM      8  C   UNL     1      29.909  22.362  24.661  0.00  0.00    +0.000 C 
ATOM      9  C   UNL     1      29.778  24.178  22.983  0.00  0.00    +0.000 C 
ATOM     10  C   UNL     1      28.482  24.179  22.208  0.00  0.00    +0.000 C 
ATOM     11  C   UNL     1      27.462  23.606  23.127  0.00  0.00    +0.000 C 
ATOM     12  O   UNL     1      26.416  23.029  22.871  0.00  0.00    +0.000 OA
ENDROOT
BRANCH   5  13
ATOM     13  C   UNL     1      31.306  25.050  25.205  0.00  0.00    +0.000 C 
ATOM     14  C   UNL     1      32.477  25.296  25.037  0.00  0.00    +0.000 C 
BRANCH  14  15
ATOM     15  C   UNL     1      33.879  25.579  24.859  0.00  0.00    +0.000 A 
ATOM     16  C   UNL     1      34.737  24.606  24.435  0.00  0.00    +0.000 A 
ATOM     17  C   UNL     1      36.080  24.855  24.259  0.00  0.00    +0.000 A 
ATOM     18  C   UNL     1      36.615  26.100  24.502  0.00  0.00    +0.000 A 
ATOM     19  C   UNL     1      35.763  27.098  24.932  0.00  0.00    +0.000 A 
ATOM     20  C   UNL     1      34.411  26.841  25.108  0.00  0.00    +0.000 A 
ENDBRANCH  14  15
ENDBRANCH   5  13
TORSDOF 2
ENDMDL
