MODEL 1
REMARK VINA RESULT:      -8.7      0.000      0.000
REMARK  Name = 
REMARK  7 active torsions:
REMARK  status: ('A' for Active; 'I' for Inactive)
REMARK    1  A    between atoms: O_2  and  C_3
REMARK    2  A    between atoms: C_8  and  N_9
REMARK    3  A    between atoms: N_12  and  C_13
REMARK    4  A    between atoms: C_13  and  C_14
REMARK    5  A    between atoms: C_14  and  C_15
REMARK    6  A    between atoms: C_15  and  O_16
REMARK    7  A    between atoms: O_16  and  C_17
REMARK                            x       y       z     vdW  Elec       q    Type
REMARK                         _______ _______ _______ _____ _____    ______ ____
ROOT
ATOM      1  C   UNL     1      14.846   0.165  26.887  0.00  0.00    +0.000 C 
ENDROOT
BRANCH   1   2
ATOM      2  C   UNL     1      13.401  -0.184  26.905  0.00  0.00    +0.000 C 
BRANCH   2   6
ATOM      3  N   UNL     1      10.378   0.933  26.598  0.00  0.00    +0.000 N 
ATOM      4  C   UNL     1      10.448  -0.343  27.250  0.00  0.00    +0.000 C 
ATOM      5  C   UNL     1      11.524  -0.458  28.273  0.00  0.00    +0.000 C 
ATOM      6  N   UNL     1      12.676   0.368  28.017  0.00  0.00    +0.000 NA
ATOM      7  C   UNL     1      12.335   1.735  27.686  0.00  0.00    +0.000 C 
ATOM      8  C   UNL     1      11.582   1.672  26.349  0.00  0.00    +0.000 C 
BRANCH   3  14
ATOM      9  C   UNL     1       8.413   2.274  27.075  0.00  0.00    +0.000 A 
ATOM     10  C   UNL     1       7.192   2.768  26.669  0.00  0.00    +0.000 A 
ATOM     11  C   UNL     1       6.635   2.494  25.439  0.00  0.00    +0.000 A 
ATOM     12  C   UNL     1       7.350   1.674  24.575  0.00  0.00    +0.000 A 
ATOM     13  C   UNL     1       8.555   1.182  24.968  0.00  0.00    +0.000 A 
ATOM     14  C   UNL     1       9.130   1.450  26.206  0.00  0.00    +0.000 A 
BRANCH   9  16
ATOM     15  C   UNL     1       9.328   3.906  28.593  0.00  0.00    +0.000 C 
ATOM     16  O   UNL     1       8.946   2.572  28.326  0.00  0.00    +0.000 OA
ENDBRANCH   9  16
ENDBRANCH   3  14
ENDBRANCH   2   6
ENDBRANCH   1   2
BRANCH   1  17
ATOM     17  C   UNL     1      15.470   0.202  28.262  0.00  0.00    +0.000 C 
BRANCH  17  18
ATOM     18  O   UNL     1      16.859   0.248  28.232  0.00  0.00    +0.000 OA
BRANCH  18  19
ATOM     19  C   UNL     1      17.549   0.201  27.041  0.00  0.00    +0.000 A 
ATOM     20  C   UNL     1      17.802   1.375  26.370  0.00  0.00    +0.000 A 
ATOM     21  C   UNL     1      18.488   1.392  25.174  0.00  0.00    +0.000 A 
ATOM     22  C   UNL     1      18.953   0.228  24.593  0.00  0.00    +0.000 A 
ATOM     23  C   UNL     1      18.696  -0.946  25.271  0.00  0.00    +0.000 A 
ATOM     24  C   UNL     1      18.007  -0.969  26.474  0.00  0.00    +0.000 A 
ATOM     25  N   UNL     1      19.247  -1.925  24.504  0.00  0.00    +0.000 NA
ATOM     26  C   UNL     1      19.821  -1.416  23.406  0.00  0.00    +0.000 A 
ATOM     27  C   UNL     1      20.504  -1.963  22.325  0.00  0.00    +0.000 A 
ATOM     28  C   UNL     1      20.996  -1.166  21.313  0.00  0.00    +0.000 A 
ATOM     29  C   UNL     1      20.832   0.204  21.329  0.00  0.00    +0.000 A 
ATOM     30  C   UNL     1      20.148   0.746  22.414  0.00  0.00    +0.000 A 
ATOM     31  C   UNL     1      19.655  -0.049  23.428  0.00  0.00    +0.000 A 
ENDBRANCH  18  19
ENDBRANCH  17  18
ENDBRANCH   1  17
TORSDOF 7
ENDMDL
MODEL 2
REMARK VINA RESULT:      -8.7      1.444      2.303
REMARK  Name = 
REMARK  7 active torsions:
REMARK  status: ('A' for Active; 'I' for Inactive)
REMARK    1  A    between atoms: O_2  and  C_3
REMARK    2  A    between atoms: C_8  and  N_9
REMARK    3  A    between atoms: N_12  and  C_13
REMARK    4  A    between atoms: C_13  and  C_14
REMARK    5  A    between atoms: C_14  and  C_15
REMARK    6  A    between atoms: C_15  and  O_16
REMARK    7  A    between atoms: O_16  and  C_17
REMARK                            x       y       z     vdW  Elec       q    Type
REMARK                         _______ _______ _______ _____ _____    ______ ____
ROOT
ATOM      1  C   UNL     1      13.661   0.024  27.962  0.00  0.00    +0.000 C 
ENDROOT
BRANCH   1   2
ATOM      2  C   UNL     1      13.053   1.266  27.416  0.00  0.00    +0.000 C 
BRANCH   2   6
ATOM      3  N   UNL     1       9.929   1.860  26.812  0.00  0.00    +0.000 N 
ATOM      4  C   UNL     1      10.132   0.803  27.760  0.00  0.00    +0.000 C 
ATOM      5  C   UNL     1      11.170   1.087  28.791  0.00  0.00    +0.000 C 
ATOM      6  N   UNL     1      12.217   1.972  28.350  0.00  0.00    +0.000 NA
ATOM      7  C   UNL     1      11.719   3.157  27.686  0.00  0.00    +0.000 C 
ATOM      8  C   UNL     1      11.039   2.670  26.399  0.00  0.00    +0.000 C 
BRANCH   3  14
ATOM      9  C   UNL     1       8.244   1.467  25.109  0.00  0.00    +0.000 A 
ATOM     10  C   UNL     1       6.980   1.713  24.619  0.00  0.00    +0.000 A 
ATOM     11  C   UNL     1       6.077   2.551  25.236  0.00  0.00    +0.000 A 
ATOM     12  C   UNL     1       6.476   3.174  26.413  0.00  0.00    +0.000 A 
ATOM     13  C   UNL     1       7.721   2.937  26.904  0.00  0.00    +0.000 A 
ATOM     14  C   UNL     1       8.643   2.094  26.291  0.00  0.00    +0.000 A 
BRANCH   9  16
ATOM     15  C   UNL     1       8.738  -0.725  24.239  0.00  0.00    +0.000 C 
ATOM     16  O   UNL     1       9.132   0.614  24.458  0.00  0.00    +0.000 OA
ENDBRANCH   9  16
ENDBRANCH   3  14
ENDBRANCH   2   6
ENDBRANCH   1   2
BRANCH   1  17
ATOM     17  C   UNL     1      15.137   0.159  28.257  0.00  0.00    +0.000 C 
BRANCH  17  18
ATOM     18  O   UNL     1      15.791   1.027  27.392  0.00  0.00    +0.000 OA
BRANCH  18  19
ATOM     19  C   UNL     1      16.699   0.563  26.466  0.00  0.00    +0.000 A 
ATOM     20  C   UNL     1      16.703  -0.775  26.150  0.00  0.00    +0.000 A 
ATOM     21  C   UNL     1      17.589  -1.300  25.232  0.00  0.00    +0.000 A 
ATOM     22  C   UNL     1      18.513  -0.501  24.585  0.00  0.00    +0.000 A 
ATOM     23  C   UNL     1      18.502   0.840  24.906  0.00  0.00    +0.000 A 
ATOM     24  C   UNL     1      17.615   1.373  25.830  0.00  0.00    +0.000 A 
ATOM     25  N   UNL     1      19.487   1.393  24.148  0.00  0.00    +0.000 NA
ATOM     26  C   UNL     1      20.091   0.469  23.389  0.00  0.00    +0.000 A 
ATOM     27  C   UNL     1      21.128   0.500  22.462  0.00  0.00    +0.000 A 
ATOM     28  C   UNL     1      21.546  -0.646  21.819  0.00  0.00    +0.000 A 
ATOM     29  C   UNL     1      20.957  -1.868  22.066  0.00  0.00    +0.000 A 
ATOM     30  C   UNL     1      19.919  -1.893  22.994  0.00  0.00    +0.000 A 
ATOM     31  C   UNL     1      19.498  -0.749  23.639  0.00  0.00    +0.000 A 
ENDBRANCH  18  19
ENDBRANCH  17  18
ENDBRANCH   1  17
TORSDOF 7
ENDMDL
MODEL 3
REMARK VINA RESULT:      -8.4      1.646      3.096
REMARK  Name = 
REMARK  7 active torsions:
REMARK  status: ('A' for Active; 'I' for Inactive)
REMARK    1  A    between atoms: O_2  and  C_3
REMARK    2  A    between atoms: C_8  and  N_9
REMARK    3  A    between atoms: N_12  and  C_13
REMARK    4  A    between atoms: C_13  and  C_14
REMARK    5  A    between atoms: C_14  and  C_15
REMARK    6  A    between atoms: C_15  and  O_16
REMARK    7  A    between atoms: O_16  and  C_17
REMARK                            x       y       z     vdW  Elec       q    Type
REMARK                         _______ _______ _______ _____ _____    ______ ____
ROOT
ATOM      1  C   UNL     1      12.857  -0.053  26.658  0.00  0.00    +0.000 C 
ENDROOT
BRANCH   1   2
ATOM      2  C   UNL     1      12.241   1.150  27.276  0.00  0.00    +0.000 C 
BRANCH   2   6
ATOM      3  N   UNL     1      10.202   3.365  28.469  0.00  0.00    +0.000 N 
ATOM      4  C   UNL     1      11.249   3.931  27.666  0.00  0.00    +0.000 C 
ATOM      5  C   UNL     1      11.523   3.197  26.399  0.00  0.00    +0.000 C 
ATOM      6  N   UNL     1      11.242   1.785  26.459  0.00  0.00    +0.000 NA
ATOM      7  C   UNL     1       9.948   1.486  27.033  0.00  0.00    +0.000 C 
ATOM      8  C   UNL     1      10.017   1.943  28.498  0.00  0.00    +0.000 C 
BRANCH   3  14
ATOM      9  C   UNL     1       8.196   4.718  28.656  0.00  0.00    +0.000 A 
ATOM     10  C   UNL     1       7.394   5.543  29.415  0.00  0.00    +0.000 A 
ATOM     11  C   UNL     1       7.682   5.894  30.715  0.00  0.00    +0.000 A 
ATOM     12  C   UNL     1       8.846   5.385  31.278  0.00  0.00    +0.000 A 
ATOM     13  C   UNL     1       9.645   4.572  30.537  0.00  0.00    +0.000 A 
ATOM     14  C   UNL     1       9.366   4.208  29.223  0.00  0.00    +0.000 A 
BRANCH   9  16
ATOM     15  C   UNL     1       6.743   3.568  27.117  0.00  0.00    +0.000 C 
ATOM     16  O   UNL     1       7.874   4.384  27.344  0.00  0.00    +0.000 OA
ENDBRANCH   9  16
ENDBRANCH   3  14
ENDBRANCH   2   6
ENDBRANCH   1   2
BRANCH   1  17
ATOM     17  C   UNL     1      13.937  -0.678  27.511  0.00  0.00    +0.000 C 
BRANCH  17  18
ATOM     18  O   UNL     1      15.014   0.170  27.738  0.00  0.00    +0.000 OA
BRANCH  18  19
ATOM     19  C   UNL     1      16.084   0.214  26.872  0.00  0.00    +0.000 A 
ATOM     20  C   UNL     1      16.722   1.414  26.661  0.00  0.00    +0.000 A 
ATOM     21  C   UNL     1      17.798   1.521  25.805  0.00  0.00    +0.000 A 
ATOM     22  C   UNL     1      18.285   0.425  25.120  0.00  0.00    +0.000 A 
ATOM     23  C   UNL     1      17.641  -0.776  25.336  0.00  0.00    +0.000 A 
ATOM     24  C   UNL     1      16.558  -0.889  26.195  0.00  0.00    +0.000 A 
ATOM     25  N   UNL     1      18.301  -1.676  24.559  0.00  0.00    +0.000 NA
ATOM     26  C   UNL     1      19.303  -1.095  23.887  0.00  0.00    +0.000 A 
ATOM     27  C   UNL     1      20.259  -1.549  22.985  0.00  0.00    +0.000 A 
ATOM     28  C   UNL     1      21.193  -0.692  22.442  0.00  0.00    +0.000 A 
ATOM     29  C   UNL     1      21.220   0.648  22.769  0.00  0.00    +0.000 A 
ATOM     30  C   UNL     1      20.261   1.097  23.673  0.00  0.00    +0.000 A 
ATOM     31  C   UNL     1      19.325   0.242  24.218  0.00  0.00    +0.000 A 
ENDBRANCH  18  19
ENDBRANCH  17  18
ENDBRANCH   1  17
TORSDOF 7
ENDMDL
MODEL 4
REMARK VINA RESULT:      -7.9     23.474     27.083
REMARK  Name = 
REMARK  7 active torsions:
REMARK  status: ('A' for Active; 'I' for Inactive)
REMARK    1  A    between atoms: O_2  and  C_3
REMARK    2  A    between atoms: C_8  and  N_9
REMARK    3  A    between atoms: N_12  and  C_13
REMARK    4  A    between atoms: C_13  and  C_14
REMARK    5  A    between atoms: C_14  and  C_15
REMARK    6  A    between atoms: C_15  and  O_16
REMARK    7  A    between atoms: O_16  and  C_17
REMARK                            x       y       z     vdW  Elec       q    Type
REMARK                         _______ _______ _______ _____ _____    ______ ____
ROOT
ATOM      1  C   UNL     1      38.441   1.279  11.744  0.00  0.00    +0.000 C 
ENDROOT
BRANCH   1   2
ATOM      2  C   UNL     1      37.871   0.320  12.727  0.00  0.00    +0.000 C 
BRANCH   2   6
ATOM      3  N   UNL     1      38.036  -1.290  15.531  0.00  0.00    +0.000 N 
ATOM      4  C   UNL     1      37.166  -1.908  14.573  0.00  0.00    +0.000 C 
ATOM      5  C   UNL     1      37.713  -1.968  13.188  0.00  0.00    +0.000 C 
ATOM      6  N   UNL     1      38.622  -0.899  12.863  0.00  0.00    +0.000 NA
ATOM      7  C   UNL     1      39.633  -0.683  13.876  0.00  0.00    +0.000 C 
ATOM      8  C   UNL     1      38.883  -0.204  15.128  0.00  0.00    +0.000 C 
BRANCH   3  14
ATOM      9  C   UNL     1      37.354  -1.053  17.849  0.00  0.00    +0.000 A 
ATOM     10  C   UNL     1      37.386  -1.524  19.143  0.00  0.00    +0.000 A 
ATOM     11  C   UNL     1      38.074  -2.657  19.522  0.00  0.00    +0.000 A 
ATOM     12  C   UNL     1      38.768  -3.349  18.537  0.00  0.00    +0.000 A 
ATOM     13  C   UNL     1      38.742  -2.892  17.257  0.00  0.00    +0.000 A 
ATOM     14  C   UNL     1      38.052  -1.751  16.860  0.00  0.00    +0.000 A 
BRANCH   9  16
ATOM     15  C   UNL     1      35.255   0.122  17.729  0.00  0.00    +0.000 C 
ATOM     16  O   UNL     1      36.649   0.095  17.501  0.00  0.00    +0.000 OA
ENDBRANCH   9  16
ENDBRANCH   3  14
ENDBRANCH   2   6
ENDBRANCH   1   2
BRANCH   1  17
ATOM     17  C   UNL     1      38.498   2.698  12.257  0.00  0.00    +0.000 C 
BRANCH  17  18
ATOM     18  O   UNL     1      37.670   2.919  13.351  0.00  0.00    +0.000 OA
BRANCH  18  19
ATOM     19  C   UNL     1      38.126   3.581  14.470  0.00  0.00    +0.000 A 
ATOM     20  C   UNL     1      37.432   3.451  15.650  0.00  0.00    +0.000 A 
ATOM     21  C   UNL     1      37.838   4.089  16.803  0.00  0.00    +0.000 A 
ATOM     22  C   UNL     1      38.963   4.890  16.824  0.00  0.00    +0.000 A 
ATOM     23  C   UNL     1      39.655   5.017  15.637  0.00  0.00    +0.000 A 
ATOM     24  C   UNL     1      39.251   4.378  14.475  0.00  0.00    +0.000 A 
ATOM     25  N   UNL     1      40.698   5.841  15.922  0.00  0.00    +0.000 NA
ATOM     26  C   UNL     1      40.681   6.220  17.207  0.00  0.00    +0.000 A 
ATOM     27  C   UNL     1      41.494   7.032  17.991  0.00  0.00    +0.000 A 
ATOM     28  C   UNL     1      41.218   7.243  19.325  0.00  0.00    +0.000 A 
ATOM     29  C   UNL     1      40.128   6.661  19.938  0.00  0.00    +0.000 A 
ATOM     30  C   UNL     1      39.318   5.848  19.149  0.00  0.00    +0.000 A 
ATOM     31  C   UNL     1      39.592   5.635  17.814  0.00  0.00    +0.000 A 
ENDBRANCH  18  19
ENDBRANCH  17  18
ENDBRANCH   1  17
TORSDOF 7
ENDMDL
MODEL 5
REMARK VINA RESULT:      -7.8     23.653     27.004
REMARK  Name = 
REMARK  7 active torsions:
REMARK  status: ('A' for Active; 'I' for Inactive)
REMARK    1  A    between atoms: O_2  and  C_3
REMARK    2  A    between atoms: C_8  and  N_9
REMARK    3  A    between atoms: N_12  and  C_13
REMARK    4  A    between atoms: C_13  and  C_14
REMARK    5  A    between atoms: C_14  and  C_15
REMARK    6  A    between atoms: C_15  and  O_16
REMARK    7  A    between atoms: O_16  and  C_17
REMARK                            x       y       z     vdW  Elec       q    Type
REMARK                         _______ _______ _______ _____ _____    ______ ____
ROOT
ATOM      1  C   UNL     1      37.122   6.362  13.454  0.00  0.00    +0.000 C 
ENDROOT
BRANCH   1   2
ATOM      2  C   UNL     1      38.151   6.139  14.504  0.00  0.00    +0.000 C 
BRANCH   2   6
ATOM      3  N   UNL     1      40.166   6.552  17.004  0.00  0.00    +0.000 N 
ATOM      4  C   UNL     1      39.523   7.764  16.587  0.00  0.00    +0.000 C 
ATOM      5  C   UNL     1      38.066   7.628  16.305  0.00  0.00    +0.000 C 
ATOM      6  N   UNL     1      37.671   6.321  15.847  0.00  0.00    +0.000 NA
ATOM      7  C   UNL     1      38.208   5.248  16.656  0.00  0.00    +0.000 C 
ATOM      8  C   UNL     1      39.731   5.294  16.467  0.00  0.00    +0.000 C 
BRANCH   3  14
ATOM      9  C   UNL     1      40.944   6.543  19.303  0.00  0.00    +0.000 A 
ATOM     10  C   UNL     1      41.993   6.595  20.196  0.00  0.00    +0.000 A 
ATOM     11  C   UNL     1      43.311   6.704  19.811  0.00  0.00    +0.000 A 
ATOM     12  C   UNL     1      43.583   6.763  18.449  0.00  0.00    +0.000 A 
ATOM     13  C   UNL     1      42.555   6.712  17.562  0.00  0.00    +0.000 A 
ATOM     14  C   UNL     1      41.219   6.603  17.935  0.00  0.00    +0.000 A 
BRANCH   9  16
ATOM     15  C   UNL     1      39.016   7.559  20.329  0.00  0.00    +0.000 C 
ATOM     16  O   UNL     1      39.623   6.434  19.728  0.00  0.00    +0.000 OA
ENDBRANCH   9  16
ENDBRANCH   3  14
ENDBRANCH   2   6
ENDBRANCH   1   2
BRANCH   1  17
ATOM     17  C   UNL     1      36.446   5.090  12.999  0.00  0.00    +0.000 C 
BRANCH  17  18
ATOM     18  O   UNL     1      35.476   4.638  13.885  0.00  0.00    +0.000 OA
BRANCH  18  19
ATOM     19  C   UNL     1      35.639   3.462  14.584  0.00  0.00    +0.000 A 
ATOM     20  C   UNL     1      34.668   3.078  15.478  0.00  0.00    +0.000 A 
ATOM     21  C   UNL     1      34.775   1.912  16.207  0.00  0.00    +0.000 A 
ATOM     22  C   UNL     1      35.866   1.075  16.071  0.00  0.00    +0.000 A 
ATOM     23  C   UNL     1      36.837   1.467  15.172  0.00  0.00    +0.000 A 
ATOM     24  C   UNL     1      36.734   2.638  14.437  0.00  0.00    +0.000 A 
ATOM     25  N   UNL     1      37.782   0.491  15.227  0.00  0.00    +0.000 NA
ATOM     26  C   UNL     1      37.444  -0.466  16.101  0.00  0.00    +0.000 A 
ATOM     27  C   UNL     1      38.039  -1.649  16.525  0.00  0.00    +0.000 A 
ATOM     28  C   UNL     1      37.436  -2.454  17.468  0.00  0.00    +0.000 A 
ATOM     29  C   UNL     1      36.221  -2.121  18.031  0.00  0.00    +0.000 A 
ATOM     30  C   UNL     1      35.630  -0.936  17.603  0.00  0.00    +0.000 A 
ATOM     31  C   UNL     1      36.231  -0.129  16.659  0.00  0.00    +0.000 A 
ENDBRANCH  18  19
ENDBRANCH  17  18
ENDBRANCH   1  17
TORSDOF 7
ENDMDL
MODEL 6
REMARK VINA RESULT:      -7.8      2.153      2.780
REMARK  Name = 
REMARK  7 active torsions:
REMARK  status: ('A' for Active; 'I' for Inactive)
REMARK    1  A    between atoms: O_2  and  C_3
REMARK    2  A    between atoms: C_8  and  N_9
REMARK    3  A    between atoms: N_12  and  C_13
REMARK    4  A    between atoms: C_13  and  C_14
REMARK    5  A    between atoms: C_14  and  C_15
REMARK    6  A    between atoms: C_15  and  O_16
REMARK    7  A    between atoms: O_16  and  C_17
REMARK                            x       y       z     vdW  Elec       q    Type
REMARK                         _______ _______ _______ _____ _____    ______ ____
ROOT
ATOM      1  C   UNL     1      13.257   0.161  28.071  0.00  0.00    +0.000 C 
ENDROOT
BRANCH   1   2
ATOM      2  C   UNL     1      12.059   0.448  27.239  0.00  0.00    +0.000 C 
BRANCH   2   6
ATOM      3  N   UNL     1       9.848  -0.871  25.276  0.00  0.00    +0.000 N 
ATOM      4  C   UNL     1      10.627  -1.843  25.988  0.00  0.00    +0.000 C 
ATOM      5  C   UNL     1      10.834  -1.535  27.430  0.00  0.00    +0.000 C 
ATOM      6  N   UNL     1      10.841  -0.129  27.741  0.00  0.00    +0.000 NA
ATOM      7  C   UNL     1       9.735   0.591  27.148  0.00  0.00    +0.000 C 
ATOM      8  C   UNL     1       9.945   0.516  25.629  0.00  0.00    +0.000 C 
BRANCH   3  14
ATOM      9  C   UNL     1       7.645  -1.528  24.498  0.00  0.00    +0.000 A 
ATOM     10  C   UNL     1       6.829  -1.932  23.463  0.00  0.00    +0.000 A 
ATOM     11  C   UNL     1       7.275  -2.108  22.171  0.00  0.00    +0.000 A 
ATOM     12  C   UNL     1       8.618  -1.864  21.913  0.00  0.00    +0.000 A 
ATOM     13  C   UNL     1       9.430  -1.466  22.928  0.00  0.00    +0.000 A 
ATOM     14  C   UNL     1       8.994  -1.283  24.237  0.00  0.00    +0.000 A 
BRANCH   9  16
ATOM     15  C   UNL     1       5.911  -0.725  25.965  0.00  0.00    +0.000 C 
ATOM     16  O   UNL     1       7.161  -1.361  25.793  0.00  0.00    +0.000 OA
ENDBRANCH   9  16
ENDBRANCH   3  14
ENDBRANCH   2   6
ENDBRANCH   1   2
BRANCH   1  17
ATOM     17  C   UNL     1      14.513   0.831  27.564  0.00  0.00    +0.000 C 
BRANCH  17  18
ATOM     18  O   UNL     1      15.639   0.022  27.654  0.00  0.00    +0.000 OA
BRANCH  18  19
ATOM     19  C   UNL     1      16.620   0.053  26.686  0.00  0.00    +0.000 A 
ATOM     20  C   UNL     1      17.157   1.265  26.322  0.00  0.00    +0.000 A 
ATOM     21  C   UNL     1      18.140   1.361  25.359  0.00  0.00    +0.000 A 
ATOM     22  C   UNL     1      18.631   0.241  24.717  0.00  0.00    +0.000 A 
ATOM     23  C   UNL     1      18.088  -0.972  25.088  0.00  0.00    +0.000 A 
ATOM     24  C   UNL     1      17.099  -1.074  26.055  0.00  0.00    +0.000 A 
ATOM     25  N   UNL     1      18.731  -1.895  24.324  0.00  0.00    +0.000 NA
ATOM     26  C   UNL     1      19.628  -1.317  23.514  0.00  0.00    +0.000 A 
ATOM     27  C   UNL     1      20.523  -1.790  22.561  0.00  0.00    +0.000 A 
ATOM     28  C   UNL     1      21.346  -0.930  21.865  0.00  0.00    +0.000 A 
ATOM     29  C   UNL     1      21.316   0.433  22.082  0.00  0.00    +0.000 A 
ATOM     30  C   UNL     1      20.418   0.900  23.038  0.00  0.00    +0.000 A 
ATOM     31  C   UNL     1      19.594   0.043  23.736  0.00  0.00    +0.000 A 
ENDBRANCH  18  19
ENDBRANCH  17  18
ENDBRANCH   1  17
TORSDOF 7
ENDMDL
MODEL 7
REMARK VINA RESULT:      -7.7     23.042     26.954
REMARK  Name = 
REMARK  7 active torsions:
REMARK  status: ('A' for Active; 'I' for Inactive)
REMARK    1  A    between atoms: O_2  and  C_3
REMARK    2  A    between atoms: C_8  and  N_9
REMARK    3  A    between atoms: N_12  and  C_13
REMARK    4  A    between atoms: C_13  and  C_14
REMARK    5  A    between atoms: C_14  and  C_15
REMARK    6  A    between atoms: C_15  and  O_16
REMARK    7  A    between atoms: O_16  and  C_17
REMARK                            x       y       z     vdW  Elec       q    Type
REMARK                         _______ _______ _______ _____ _____    ______ ____
ROOT
ATOM      1  C   UNL     1      38.999   2.542  11.842  0.00  0.00    +0.000 C 
ENDROOT
BRANCH   1   2
ATOM      2  C   UNL     1      39.370   1.544  12.879  0.00  0.00    +0.000 C 
BRANCH   2   6
ATOM      3  N   UNL     1      37.085  -0.019  14.560  0.00  0.00    +0.000 N 
ATOM      4  C   UNL     1      36.635   0.434  13.275  0.00  0.00    +0.000 C 
ATOM      5  C   UNL     1      37.597   0.197  12.163  0.00  0.00    +0.000 C 
ATOM      6  N   UNL     1      38.980   0.195  12.565  0.00  0.00    +0.000 NA
ATOM      7  C   UNL     1      39.233  -0.620  13.733  0.00  0.00    +0.000 C 
ATOM      8  C   UNL     1      38.480   0.051  14.891  0.00  0.00    +0.000 C 
BRANCH   3  14
ATOM      9  C   UNL     1      35.940  -1.903  15.574  0.00  0.00    +0.000 A 
ATOM     10  C   UNL     1      35.026  -2.376  16.490  0.00  0.00    +0.000 A 
ATOM     11  C   UNL     1      34.307  -1.559  17.335  0.00  0.00    +0.000 A 
ATOM     12  C   UNL     1      34.524  -0.189  17.247  0.00  0.00    +0.000 A 
ATOM     13  C   UNL     1      35.424   0.287  16.346  0.00  0.00    +0.000 A 
ATOM     14  C   UNL     1      36.157  -0.526  15.487  0.00  0.00    +0.000 A 
BRANCH   9  16
ATOM     15  C   UNL     1      36.107  -4.034  14.463  0.00  0.00    +0.000 C 
ATOM     16  O   UNL     1      36.650  -2.758  14.735  0.00  0.00    +0.000 OA
ENDBRANCH   9  16
ENDBRANCH   3  14
ENDBRANCH   2   6
ENDBRANCH   1   2
BRANCH   1  17
ATOM     17  C   UNL     1      38.414   3.811  12.414  0.00  0.00    +0.000 C 
BRANCH  17  18
ATOM     18  O   UNL     1      37.841   3.633  13.668  0.00  0.00    +0.000 OA
BRANCH  18  19
ATOM     19  C   UNL     1      38.399   4.198  14.794  0.00  0.00    +0.000 A 
ATOM     20  C   UNL     1      37.751   4.060  15.999  0.00  0.00    +0.000 A 
ATOM     21  C   UNL     1      38.259   4.602  17.161  0.00  0.00    +0.000 A 
ATOM     22  C   UNL     1      39.445   5.311  17.166  0.00  0.00    +0.000 A 
ATOM     23  C   UNL     1      40.090   5.445  15.954  0.00  0.00    +0.000 A 
ATOM     24  C   UNL     1      39.584   4.902  14.783  0.00  0.00    +0.000 A 
ATOM     25  N   UNL     1      41.209   6.169  16.228  0.00  0.00    +0.000 NA
ATOM     26  C   UNL     1      41.280   6.479  17.529  0.00  0.00    +0.000 A 
ATOM     27  C   UNL     1      42.190   7.183  18.310  0.00  0.00    +0.000 A 
ATOM     28  C   UNL     1      41.993   7.344  19.666  0.00  0.00    +0.000 A 
ATOM     29  C   UNL     1      40.888   6.817  20.302  0.00  0.00    +0.000 A 
ATOM     30  C   UNL     1      39.981   6.114  19.515  0.00  0.00    +0.000 A 
ATOM     31  C   UNL     1      40.175   5.950  18.159  0.00  0.00    +0.000 A 
ENDBRANCH  18  19
ENDBRANCH  17  18
ENDBRANCH   1  17
TORSDOF 7
ENDMDL
MODEL 8
REMARK VINA RESULT:      -7.6      1.502      2.288
REMARK  Name = 
REMARK  7 active torsions:
REMARK  status: ('A' for Active; 'I' for Inactive)
REMARK    1  A    between atoms: O_2  and  C_3
REMARK    2  A    between atoms: C_8  and  N_9
REMARK    3  A    between atoms: N_12  and  C_13
REMARK    4  A    between atoms: C_13  and  C_14
REMARK    5  A    between atoms: C_14  and  C_15
REMARK    6  A    between atoms: C_15  and  O_16
REMARK    7  A    between atoms: O_16  and  C_17
REMARK                            x       y       z     vdW  Elec       q    Type
REMARK                         _______ _______ _______ _____ _____    ______ ____
ROOT
ATOM      1  C   UNL     1      12.995   0.126  28.607  0.00  0.00    +0.000 C 
ENDROOT
BRANCH   1   2
ATOM      2  C   UNL     1      12.273   0.766  27.475  0.00  0.00    +0.000 C 
BRANCH   2   6
ATOM      3  N   UNL     1       9.362   2.123  27.068  0.00  0.00    +0.000 N 
ATOM      4  C   UNL     1      10.059   1.894  25.835  0.00  0.00    +0.000 C 
ATOM      5  C   UNL     1      10.722   0.564  25.736  0.00  0.00    +0.000 C 
ATOM      6  N   UNL     1      11.142   0.015  27.000  0.00  0.00    +0.000 NA
ATOM      7  C   UNL     1      10.114   0.076  28.016  0.00  0.00    +0.000 C 
ATOM      8  C   UNL     1       9.873   1.568  28.288  0.00  0.00    +0.000 C 
BRANCH   3  14
ATOM      9  C   UNL     1       8.107   4.045  27.855  0.00  0.00    +0.000 A 
ATOM     10  C   UNL     1       6.941   4.780  27.844  0.00  0.00    +0.000 A 
ATOM     11  C   UNL     1       5.836   4.437  27.095  0.00  0.00    +0.000 A 
ATOM     12  C   UNL     1       5.915   3.289  26.317  0.00  0.00    +0.000 A 
ATOM     13  C   UNL     1       7.060   2.558  26.322  0.00  0.00    +0.000 A 
ATOM     14  C   UNL     1       8.184   2.891  27.073  0.00  0.00    +0.000 A 
BRANCH   9  16
ATOM     15  C   UNL     1       8.985   4.801  29.967  0.00  0.00    +0.000 C 
ATOM     16  O   UNL     1       9.205   4.420  28.625  0.00  0.00    +0.000 OA
ENDBRANCH   9  16
ENDBRANCH   3  14
ENDBRANCH   2   6
ENDBRANCH   1   2
BRANCH   1  17
ATOM     17  C   UNL     1      14.438  -0.194  28.293  0.00  0.00    +0.000 C 
BRANCH  17  18
ATOM     18  O   UNL     1      15.061   0.784  27.528  0.00  0.00    +0.000 OA
BRANCH  18  19
ATOM     19  C   UNL     1      16.087   0.468  26.663  0.00  0.00    +0.000 A 
ATOM     20  C   UNL     1      16.242  -0.838  26.263  0.00  0.00    +0.000 A 
ATOM     21  C   UNL     1      17.250  -1.217  25.400  0.00  0.00    +0.000 A 
ATOM     22  C   UNL     1      18.150  -0.297  24.897  0.00  0.00    +0.000 A 
ATOM     23  C   UNL     1      17.988   1.012  25.302  0.00  0.00    +0.000 A 
ATOM     24  C   UNL     1      16.977   1.398  26.170  0.00  0.00    +0.000 A 
ATOM     25  N   UNL     1      18.981   1.700  24.678  0.00  0.00    +0.000 NA
ATOM     26  C   UNL     1      19.732   0.890  23.921  0.00  0.00    +0.000 A 
ATOM     27  C   UNL     1      20.839   1.077  23.101  0.00  0.00    +0.000 A 
ATOM     28  C   UNL     1      21.416   0.021  22.427  0.00  0.00    +0.000 A 
ATOM     29  C   UNL     1      20.922  -1.262  22.538  0.00  0.00    +0.000 A 
ATOM     30  C   UNL     1      19.814  -1.444  23.360  0.00  0.00    +0.000 A 
ATOM     31  C   UNL     1      19.234  -0.389  24.035  0.00  0.00    +0.000 A 
ENDBRANCH  18  19
ENDBRANCH  17  18
ENDBRANCH   1  17
TORSDOF 7
ENDMDL
MODEL 9
REMARK VINA RESULT:      -7.5     23.109     27.574
REMARK  Name = 
REMARK  7 active torsions:
REMARK  status: ('A' for Active; 'I' for Inactive)
REMARK    1  A    between atoms: O_2  and  C_3
REMARK    2  A    between atoms: C_8  and  N_9
REMARK    3  A    between atoms: N_12  and  C_13
REMARK    4  A    between atoms: C_13  and  C_14
REMARK    5  A    between atoms: C_14  and  C_15
REMARK    6  A    between atoms: C_15  and  O_16
REMARK    7  A    between atoms: O_16  and  C_17
REMARK                            x       y       z     vdW  Elec       q    Type
REMARK                         _______ _______ _______ _____ _____    ______ ____
ROOT
ATOM      1  C   UNL     1      39.408   1.576  10.839  0.00  0.00    +0.000 C 
ENDROOT
BRANCH   1   2
ATOM      2  C   UNL     1      39.187   0.821  12.101  0.00  0.00    +0.000 C 
BRANCH   2   6
ATOM      3  N   UNL     1      37.247  -0.163  14.498  0.00  0.00    +0.000 N 
ATOM      4  C   UNL     1      38.639  -0.198  14.844  0.00  0.00    +0.000 C 
ATOM      5  C   UNL     1      39.413   1.003  14.422  0.00  0.00    +0.000 C 
ATOM      6  N   UNL     1      38.903   1.651  13.241  0.00  0.00    +0.000 NA
ATOM      7  C   UNL     1      37.473   1.868  13.282  0.00  0.00    +0.000 C 
ATOM      8  C   UNL     1      36.832   0.473  13.281  0.00  0.00    +0.000 C 
BRANCH   3  14
ATOM      9  C   UNL     1      35.634   0.026  16.302  0.00  0.00    +0.000 A 
ATOM     10  C   UNL     1      34.710  -0.575  17.128  0.00  0.00    +0.000 A 
ATOM     11  C   UNL     1      34.401  -1.917  17.071  0.00  0.00    +0.000 A 
ATOM     12  C   UNL     1      35.064  -2.691  16.126  0.00  0.00    +0.000 A 
ATOM     13  C   UNL     1      35.977  -2.107  15.307  0.00  0.00    +0.000 A 
ATOM     14  C   UNL     1      36.299  -0.754  15.354  0.00  0.00    +0.000 A 
BRANCH   9  16
ATOM     15  C   UNL     1      34.861   2.307  16.241  0.00  0.00    +0.000 C 
ATOM     16  O   UNL     1      35.922   1.386  16.388  0.00  0.00    +0.000 OA
ENDBRANCH   9  16
ENDBRANCH   3  14
ENDBRANCH   2   6
ENDBRANCH   1   2
BRANCH   1  17
ATOM     17  C   UNL     1      38.455   1.186   9.734  0.00  0.00    +0.000 C 
BRANCH  17  18
ATOM     18  O   UNL     1      37.282   1.932   9.732  0.00  0.00    +0.000 OA
BRANCH  18  19
ATOM     19  C   UNL     1      36.715   2.368   8.555  0.00  0.00    +0.000 A 
ATOM     20  C   UNL     1      36.730   1.536   7.460  0.00  0.00    +0.000 A 
ATOM     21  C   UNL     1      36.178   1.916   6.254  0.00  0.00    +0.000 A 
ATOM     22  C   UNL     1      35.585   3.153   6.092  0.00  0.00    +0.000 A 
ATOM     23  C   UNL     1      35.573   3.982   7.194  0.00  0.00    +0.000 A 
ATOM     24  C   UNL     1      36.127   3.605   8.409  0.00  0.00    +0.000 A 
ATOM     25  N   UNL     1      34.945   5.114   6.778  0.00  0.00    +0.000 NA
ATOM     26  C   UNL     1      34.576   5.021   5.494  0.00  0.00    +0.000 A 
ATOM     27  C   UNL     1      33.921   5.868   4.607  0.00  0.00    +0.000 A 
ATOM     28  C   UNL     1      33.672   5.487   3.305  0.00  0.00    +0.000 A 
ATOM     29  C   UNL     1      34.061   4.252   2.828  0.00  0.00    +0.000 A 
ATOM     30  C   UNL     1      34.715   3.408   3.720  0.00  0.00    +0.000 A 
ATOM     31  C   UNL     1      34.965   3.786   5.023  0.00  0.00    +0.000 A 
ENDBRANCH  18  19
ENDBRANCH  17  18
ENDBRANCH   1  17
TORSDOF 7
ENDMDL
MODEL 10
REMARK VINA RESULT:      -7.3     26.590     29.215
REMARK  Name = 
REMARK  7 active torsions:
REMARK  status: ('A' for Active; 'I' for Inactive)
REMARK    1  A    between atoms: O_2  and  C_3
REMARK    2  A    between atoms: C_8  and  N_9
REMARK    3  A    between atoms: N_12  and  C_13
REMARK    4  A    between atoms: C_13  and  C_14
REMARK    5  A    between atoms: C_14  and  C_15
REMARK    6  A    between atoms: C_15  and  O_16
REMARK    7  A    between atoms: O_16  and  C_17
REMARK                            x       y       z     vdW  Elec       q    Type
REMARK                         _______ _______ _______ _____ _____    ______ ____
ROOT
ATOM      1  C   UNL     1      45.573   7.208  24.638  0.00  0.00    +0.000 C 
ENDROOT
BRANCH   1   2
ATOM      2  C   UNL     1      44.434   6.755  25.479  0.00  0.00    +0.000 C 
BRANCH   2   6
ATOM      3  N   UNL     1      42.389   6.134  27.911  0.00  0.00    +0.000 N 
ATOM      4  C   UNL     1      42.587   5.014  27.037  0.00  0.00    +0.000 C 
ATOM      5  C   UNL     1      44.005   4.775  26.648  0.00  0.00    +0.000 C 
ATOM      6  N   UNL     1      44.819   5.963  26.615  0.00  0.00    +0.000 NA
ATOM      7  C   UNL     1      44.674   6.786  27.796  0.00  0.00    +0.000 C 
ATOM      8  C   UNL     1      43.224   7.294  27.783  0.00  0.00    +0.000 C 
BRANCH   3  14
ATOM      9  C   UNL     1      41.547   5.309  30.033  0.00  0.00    +0.000 A 
ATOM     10  C   UNL     1      40.541   5.280  30.974  0.00  0.00    +0.000 A 
ATOM     11  C   UNL     1      39.365   5.987  30.849  0.00  0.00    +0.000 A 
ATOM     12  C   UNL     1      39.198   6.764  29.708  0.00  0.00    +0.000 A 
ATOM     13  C   UNL     1      40.185   6.797  28.774  0.00  0.00    +0.000 A 
ATOM     14  C   UNL     1      41.377   6.089  28.887  0.00  0.00    +0.000 A 
BRANCH   9  16
ATOM     15  C   UNL     1      42.656   3.172  30.119  0.00  0.00    +0.000 C 
ATOM     16  O   UNL     1      42.724   4.581  30.192  0.00  0.00    +0.000 OA
ENDBRANCH   9  16
ENDBRANCH   3  14
ENDBRANCH   2   6
ENDBRANCH   1   2
BRANCH   1  17
ATOM     17  C   UNL     1      45.211   8.330  23.694  0.00  0.00    +0.000 C 
BRANCH  17  18
ATOM     18  O   UNL     1      45.241   7.953  22.357  0.00  0.00    +0.000 OA
BRANCH  18  19
ATOM     19  C   UNL     1      44.081   7.664  21.670  0.00  0.00    +0.000 A 
ATOM     20  C   UNL     1      43.712   6.350  21.510  0.00  0.00    +0.000 A 
ATOM     21  C   UNL     1      42.563   5.998  20.832  0.00  0.00    +0.000 A 
ATOM     22  C   UNL     1      41.730   6.954  20.283  0.00  0.00    +0.000 A 
ATOM     23  C   UNL     1      42.106   8.270  20.448  0.00  0.00    +0.000 A 
ATOM     24  C   UNL     1      43.261   8.630  21.128  0.00  0.00    +0.000 A 
ATOM     25  N   UNL     1      41.137   8.995  19.827  0.00  0.00    +0.000 NA
ATOM     26  C   UNL     1      40.199   8.199  19.298  0.00  0.00    +0.000 A 
ATOM     27  C   UNL     1      39.029   8.422  18.581  0.00  0.00    +0.000 A 
ATOM     28  C   UNL     1      38.241   7.373  18.155  0.00  0.00    +0.000 A 
ATOM     29  C   UNL     1      38.580   6.062  18.421  0.00  0.00    +0.000 A 
ATOM     30  C   UNL     1      39.752   5.845  19.140  0.00  0.00    +0.000 A 
ATOM     31  C   UNL     1      40.541   6.893  19.568  0.00  0.00    +0.000 A 
ENDBRANCH  18  19
ENDBRANCH  17  18
ENDBRANCH   1  17
TORSDOF 7
ENDMDL
