MODEL 1
REMARK VINA RESULT:      -7.5      0.000      0.000
REMARK  Name = 
REMARK  9 active torsions:
REMARK  status: ('A' for Active; 'I' for Inactive)
REMARK    1  A    between atoms: C_2  and  O_3
REMARK    2  A    between atoms: O_3  and  C_4
REMARK    3  A    between atoms: C_4  and  C_6
REMARK    4  A    between atoms: C_9  and  N_10
REMARK    5  A    between atoms: N_10  and  C_11
REMARK    6  A    between atoms: C_11  and  C_12
REMARK    7  A    between atoms: C_11  and  C_22
REMARK    8  A    between atoms: C_15  and  O_16
REMARK    9  A    between atoms: C_18  and  O_19
REMARK                            x       y       z     vdW  Elec       q    Type
REMARK                         _______ _______ _______ _____ _____    ______ ____
ROOT
ATOM      1  C   UNL     1      38.823  -3.150  16.555  0.00  0.00    +0.000 C 
ENDROOT
BRANCH   1   2
ATOM      2  C   UNL     1      38.092  -2.469  17.818  0.00  0.00    +0.000 A 
ATOM      3  C   UNL     1      38.197  -2.786  19.102  0.00  0.00    +0.000 A 
ATOM      4  C   UNL     1      39.012  -3.881  19.686  0.00  0.00    +0.000 C 
ATOM      5  N   UNL     1      37.407  -1.926  19.781  0.00  0.00    +0.000 NA
ATOM      6  C   UNL     1      36.821  -1.081  18.903  0.00  0.00    +0.000 A 
ATOM      7  C   UNL     1      35.934  -0.027  19.069  0.00  0.00    +0.000 A 
ATOM      8  C   UNL     1      35.469   0.696  18.000  0.00  0.00    +0.000 A 
ATOM      9  C   UNL     1      35.902   0.354  16.749  0.00  0.00    +0.000 A 
ATOM     10  C   UNL     1      36.790  -0.695  16.533  0.00  0.00    +0.000 A 
ATOM     11  C   UNL     1      37.239  -1.403  17.629  0.00  0.00    +0.000 A 
ENDBRANCH   1   2
BRANCH   1  12
ATOM     12  C   UNL     1      37.530  -3.993  16.087  0.00  0.00    +0.000 A 
ATOM     13  C   UNL     1      36.833  -3.434  15.038  0.00  0.00    +0.000 A 
ATOM     14  C   UNL     1      35.714  -4.109  14.595  0.00  0.00    +0.000 A 
ATOM     15  C   UNL     1      35.317  -5.291  15.180  0.00  0.00    +0.000 A 
ATOM     16  C   UNL     1      36.059  -5.785  16.217  0.00  0.00    +0.000 A 
ATOM     17  C   UNL     1      37.176  -5.115  16.662  0.00  0.00    +0.000 A 
BRANCH  15  18
ATOM     18  O   UNL     1      34.187  -5.993  14.748  0.00  0.00    +0.000 OA
ATOM     19  C   UNL     1      33.522  -5.668  13.550  0.00  0.00    +0.000 C 
ENDBRANCH  15  18
BRANCH  16  20
ATOM     20  O   UNL     1      35.673  -6.973  16.817  0.00  0.00    +0.000 OA
ATOM     21  C   UNL     1      36.575  -7.741  17.608  0.00  0.00    +0.000 C 
ENDBRANCH  16  20
ENDBRANCH   1  12
BRANCH   1  22
ATOM     22  N   UNL     1      38.646  -1.921  15.578  0.00  0.00    +0.000 NA
BRANCH  22  26
ATOM     23  C   UNL     1      42.331  -0.528  14.002  0.00  0.00    +0.000 A 
ATOM     24  C   UNL     1      42.165  -1.832  14.413  0.00  0.00    +0.000 A 
ATOM     25  C   UNL     1      40.965  -2.256  14.919  0.00  0.00    +0.000 A 
ATOM     26  C   UNL     1      39.877  -1.431  15.045  0.00  0.00    +0.000 A 
ATOM     27  C   UNL     1      40.036  -0.128  14.636  0.00  0.00    +0.000 A 
ATOM     28  C   UNL     1      41.255   0.308  14.122  0.00  0.00    +0.000 A 
BRANCH  23  29
ATOM     29  C   UNL     1      43.592  -0.034  13.459  0.00  0.00    +0.000 C 
ATOM     30  O   UNL     1      43.826  -0.124  12.246  0.00  0.00    +0.000 OA
BRANCH  29  31
ATOM     31  O   UNL     1      44.567   0.547  14.271  0.00  0.00    +0.000 OA
BRANCH  31  33
ATOM     32  C   UNL     1      45.335  -0.215  16.366  0.00  0.00    +0.000 C 
ATOM     33  C   UNL     1      45.563  -0.239  14.881  0.00  0.00    +0.000 C 
ENDBRANCH  31  33
ENDBRANCH  29  31
ENDBRANCH  23  29
ENDBRANCH  22  26
ENDBRANCH   1  22
TORSDOF 9
ENDMDL
MODEL 2
REMARK VINA RESULT:      -7.5     24.004     27.527
REMARK  Name = 
REMARK  9 active torsions:
REMARK  status: ('A' for Active; 'I' for Inactive)
REMARK    1  A    between atoms: C_2  and  O_3
REMARK    2  A    between atoms: O_3  and  C_4
REMARK    3  A    between atoms: C_4  and  C_6
REMARK    4  A    between atoms: C_9  and  N_10
REMARK    5  A    between atoms: N_10  and  C_11
REMARK    6  A    between atoms: C_11  and  C_12
REMARK    7  A    between atoms: C_11  and  C_22
REMARK    8  A    between atoms: C_15  and  O_16
REMARK    9  A    between atoms: C_18  and  O_19
REMARK                            x       y       z     vdW  Elec       q    Type
REMARK                         _______ _______ _______ _____ _____    ______ ____
ROOT
ATOM      1  C   UNL     1      13.563   0.910  27.595  0.00  0.00    +0.000 C 
ENDROOT
BRANCH   1   2
ATOM      2  C   UNL     1      12.292   0.211  26.895  0.00  0.00    +0.000 A 
ATOM      3  C   UNL     1      12.033  -1.083  26.760  0.00  0.00    +0.000 A 
ATOM      4  C   UNL     1      12.882  -2.215  27.212  0.00  0.00    +0.000 C 
ATOM      5  N   UNL     1      10.847  -1.179  26.119  0.00  0.00    +0.000 NA
ATOM      6  C   UNL     1      10.385   0.066  25.865  0.00  0.00    +0.000 A 
ATOM      7  C   UNL     1       9.234   0.527  25.240  0.00  0.00    +0.000 A 
ATOM      8  C   UNL     1       8.982   1.868  25.098  0.00  0.00    +0.000 A 
ATOM      9  C   UNL     1       9.898   2.755  25.590  0.00  0.00    +0.000 A 
ATOM     10  C   UNL     1      11.066   2.341  26.223  0.00  0.00    +0.000 A 
ATOM     11  C   UNL     1      11.291   0.986  26.350  0.00  0.00    +0.000 A 
ENDBRANCH   1   2
BRANCH   1  12
ATOM     12  C   UNL     1      13.048   0.651  29.101  0.00  0.00    +0.000 A 
ATOM     13  C   UNL     1      11.895   1.329  29.436  0.00  0.00    +0.000 A 
ATOM     14  C   UNL     1      11.408   1.148  30.713  0.00  0.00    +0.000 A 
ATOM     15  C   UNL     1      12.050   0.323  31.611  0.00  0.00    +0.000 A 
ATOM     16  C   UNL     1      13.188  -0.316  31.207  0.00  0.00    +0.000 A 
ATOM     17  C   UNL     1      13.678  -0.139  29.934  0.00  0.00    +0.000 A 
BRANCH  15  18
ATOM     18  O   UNL     1      11.573   0.125  32.911  0.00  0.00    +0.000 OA
ATOM     19  C   UNL     1      11.742   1.091  33.922  0.00  0.00    +0.000 C 
ENDBRANCH  15  18
BRANCH  16  20
ATOM     20  O   UNL     1      13.846  -1.149  32.099  0.00  0.00    +0.000 OA
ATOM     21  C   UNL     1      14.982  -0.709  32.837  0.00  0.00    +0.000 C 
ENDBRANCH  16  20
ENDBRANCH   1  12
BRANCH   1  22
ATOM     22  N   UNL     1      14.524  -0.339  27.477  0.00  0.00    +0.000 NA
BRANCH  22  26
ATOM     23  C   UNL     1      18.027   0.360  25.185  0.00  0.00    +0.000 A 
ATOM     24  C   UNL     1      17.405  -0.870  25.202  0.00  0.00    +0.000 A 
ATOM     25  C   UNL     1      16.275  -1.069  25.952  0.00  0.00    +0.000 A 
ATOM     26  C   UNL     1      15.703  -0.082  26.713  0.00  0.00    +0.000 A 
ATOM     27  C   UNL     1      16.319   1.147  26.700  0.00  0.00    +0.000 A 
ATOM     28  C   UNL     1      17.469   1.355  25.940  0.00  0.00    +0.000 A 
BRANCH  23  29
ATOM     29  C   UNL     1      19.231   0.615  24.403  0.00  0.00    +0.000 C 
ATOM     30  O   UNL     1      19.616   1.776  24.212  0.00  0.00    +0.000 OA
BRANCH  29  31
ATOM     31  O   UNL     1      19.982  -0.422  23.847  0.00  0.00    +0.000 OA
BRANCH  31  33
ATOM     32  C   UNL     1      20.789  -1.654  22.006  0.00  0.00    +0.000 C 
ATOM     33  C   UNL     1      20.582  -0.282  22.580  0.00  0.00    +0.000 C 
ENDBRANCH  31  33
ENDBRANCH  29  31
ENDBRANCH  23  29
ENDBRANCH  22  26
ENDBRANCH   1  22
TORSDOF 9
ENDMDL
MODEL 3
REMARK VINA RESULT:      -7.5     23.757     27.282
REMARK  Name = 
REMARK  9 active torsions:
REMARK  status: ('A' for Active; 'I' for Inactive)
REMARK    1  A    between atoms: C_2  and  O_3
REMARK    2  A    between atoms: O_3  and  C_4
REMARK    3  A    between atoms: C_4  and  C_6
REMARK    4  A    between atoms: C_9  and  N_10
REMARK    5  A    between atoms: N_10  and  C_11
REMARK    6  A    between atoms: C_11  and  C_12
REMARK    7  A    between atoms: C_11  and  C_22
REMARK    8  A    between atoms: C_15  and  O_16
REMARK    9  A    between atoms: C_18  and  O_19
REMARK                            x       y       z     vdW  Elec       q    Type
REMARK                         _______ _______ _______ _____ _____    ______ ____
ROOT
ATOM      1  C   UNL     1      13.486  -0.482  26.438  0.00  0.00    +0.000 C 
ENDROOT
BRANCH   1   2
ATOM      2  C   UNL     1      12.880  -1.399  27.615  0.00  0.00    +0.000 A 
ATOM      3  C   UNL     1      12.193  -2.530  27.509  0.00  0.00    +0.000 A 
ATOM      4  C   UNL     1      11.794  -3.217  26.254  0.00  0.00    +0.000 C 
ATOM      5  N   UNL     1      11.914  -2.936  28.767  0.00  0.00    +0.000 NA
ATOM      6  C   UNL     1      12.435  -2.045  29.640  0.00  0.00    +0.000 A 
ATOM      7  C   UNL     1      12.435  -1.986  31.027  0.00  0.00    +0.000 A 
ATOM      8  C   UNL     1      13.044  -0.959  31.702  0.00  0.00    +0.000 A 
ATOM      9  C   UNL     1      13.660   0.020  30.973  0.00  0.00    +0.000 A 
ATOM     10  C   UNL     1      13.685   0.004  29.583  0.00  0.00    +0.000 A 
ATOM     11  C   UNL     1      13.063  -1.042  28.933  0.00  0.00    +0.000 A 
ENDBRANCH   1   2
BRANCH   1  12
ATOM     12  C   UNL     1      12.424   0.715  26.639  0.00  0.00    +0.000 A 
ATOM     13  C   UNL     1      12.961   1.877  27.148  0.00  0.00    +0.000 A 
ATOM     14  C   UNL     1      12.099   2.937  27.343  0.00  0.00    +0.000 A 
ATOM     15  C   UNL     1      10.760   2.831  27.040  0.00  0.00    +0.000 A 
ATOM     16  C   UNL     1      10.299   1.646  26.538  0.00  0.00    +0.000 A 
ATOM     17  C   UNL     1      11.155   0.587  26.341  0.00  0.00    +0.000 A 
BRANCH  15  18
ATOM     18  O   UNL     1       9.868   3.891  27.230  0.00  0.00    +0.000 OA
ATOM     19  C   UNL     1       9.259   4.138  28.475  0.00  0.00    +0.000 C 
ENDBRANCH  15  18
BRANCH  16  20
ATOM     20  O   UNL     1       8.953   1.523  26.228  0.00  0.00    +0.000 OA
ATOM     21  C   UNL     1       8.500   1.433  24.881  0.00  0.00    +0.000 C 
ENDBRANCH  16  20
ENDBRANCH   1  12
BRANCH   1  22
ATOM     22  N   UNL     1      14.664   0.129  27.296  0.00  0.00    +0.000 NA
BRANCH  22  26
ATOM     23  C   UNL     1      18.386   0.089  25.257  0.00  0.00    +0.000 A 
ATOM     24  C   UNL     1      17.543  -1.001  25.249  0.00  0.00    +0.000 A 
ATOM     25  C   UNL     1      16.347  -0.962  25.916  0.00  0.00    +0.000 A 
ATOM     26  C   UNL     1      15.921   0.137  26.617  0.00  0.00    +0.000 A 
ATOM     27  C   UNL     1      16.758   1.227  26.630  0.00  0.00    +0.000 A 
ATOM     28  C   UNL     1      17.976   1.192  25.953  0.00  0.00    +0.000 A 
BRANCH  23  29
ATOM     29  C   UNL     1      19.669   0.090  24.562  0.00  0.00    +0.000 C 
ATOM     30  O   UNL     1      20.696   0.456  25.150  0.00  0.00    +0.000 OA
BRANCH  29  31
ATOM     31  O   UNL     1      19.786  -0.313  23.231  0.00  0.00    +0.000 OA
BRANCH  31  33
ATOM     32  C   UNL     1      20.804  -1.261  21.328  0.00  0.00    +0.000 C 
ATOM     33  C   UNL     1      21.035  -0.677  22.693  0.00  0.00    +0.000 C 
ENDBRANCH  31  33
ENDBRANCH  29  31
ENDBRANCH  23  29
ENDBRANCH  22  26
ENDBRANCH   1  22
TORSDOF 9
ENDMDL
MODEL 4
REMARK VINA RESULT:      -7.3      2.303      3.512
REMARK  Name = 
REMARK  9 active torsions:
REMARK  status: ('A' for Active; 'I' for Inactive)
REMARK    1  A    between atoms: C_2  and  O_3
REMARK    2  A    between atoms: O_3  and  C_4
REMARK    3  A    between atoms: C_4  and  C_6
REMARK    4  A    between atoms: C_9  and  N_10
REMARK    5  A    between atoms: N_10  and  C_11
REMARK    6  A    between atoms: C_11  and  C_12
REMARK    7  A    between atoms: C_11  and  C_22
REMARK    8  A    between atoms: C_15  and  O_16
REMARK    9  A    between atoms: C_18  and  O_19
REMARK                            x       y       z     vdW  Elec       q    Type
REMARK                         _______ _______ _______ _____ _____    ______ ____
ROOT
ATOM      1  C   UNL     1      38.519  -2.151  16.706  0.00  0.00    +0.000 C 
ENDROOT
BRANCH   1   2
ATOM      2  C   UNL     1      37.390  -1.237  17.401  0.00  0.00    +0.000 A 
ATOM      3  C   UNL     1      36.980  -1.250  18.663  0.00  0.00    +0.000 A 
ATOM      4  C   UNL     1      37.461  -2.142  19.748  0.00  0.00    +0.000 C 
ATOM      5  N   UNL     1      36.028  -0.297  18.773  0.00  0.00    +0.000 NA
ATOM      6  C   UNL     1      35.860   0.296  17.570  0.00  0.00    +0.000 A 
ATOM      7  C   UNL     1      35.023   1.316  17.139  0.00  0.00    +0.000 A 
ATOM      8  C   UNL     1      35.036   1.755  15.839  0.00  0.00    +0.000 A 
ATOM      9  C   UNL     1      35.901   1.159  14.963  0.00  0.00    +0.000 A 
ATOM     10  C   UNL     1      36.757   0.134  15.349  0.00  0.00    +0.000 A 
ATOM     11  C   UNL     1      36.720  -0.285  16.662  0.00  0.00    +0.000 A 
ENDBRANCH   1   2
BRANCH   1  12
ATOM     12  C   UNL     1      37.589  -3.464  16.607  0.00  0.00    +0.000 A 
ATOM     13  C   UNL     1      38.190  -4.625  17.045  0.00  0.00    +0.000 A 
ATOM     14  C   UNL     1      37.443  -5.783  16.983  0.00  0.00    +0.000 A 
ATOM     15  C   UNL     1      36.152  -5.773  16.502  0.00  0.00    +0.000 A 
ATOM     16  C   UNL     1      35.623  -4.584  16.085  0.00  0.00    +0.000 A 
ATOM     17  C   UNL     1      36.364  -3.426  16.145  0.00  0.00    +0.000 A 
BRANCH  15  18
ATOM     18  O   UNL     1      35.377  -6.935  16.429  0.00  0.00    +0.000 OA
ATOM     19  C   UNL     1      35.576  -8.019  17.305  0.00  0.00    +0.000 C 
ENDBRANCH  15  18
BRANCH  16  20
ATOM     20  O   UNL     1      34.325  -4.557  15.598  0.00  0.00    +0.000 OA
ATOM     21  C   UNL     1      34.045  -4.654  14.205  0.00  0.00    +0.000 C 
ENDBRANCH  16  20
ENDBRANCH   1  12
BRANCH   1  22
ATOM     22  N   UNL     1      38.288  -1.611  15.238  0.00  0.00    +0.000 NA
BRANCH  22  26
ATOM     23  C   UNL     1      41.119  -2.997  12.397  0.00  0.00    +0.000 A 
ATOM     24  C   UNL     1      39.802  -2.772  12.059  0.00  0.00    +0.000 A 
ATOM     25  C   UNL     1      38.908  -2.325  12.996  0.00  0.00    +0.000 A 
ATOM     26  C   UNL     1      39.256  -2.077  14.299  0.00  0.00    +0.000 A 
ATOM     27  C   UNL     1      40.569  -2.299  14.643  0.00  0.00    +0.000 A 
ATOM     28  C   UNL     1      41.482  -2.755  13.694  0.00  0.00    +0.000 A 
BRANCH  23  29
ATOM     29  C   UNL     1      42.103  -3.474  11.433  0.00  0.00    +0.000 C 
ATOM     30  O   UNL     1      43.264  -3.043  11.462  0.00  0.00    +0.000 OA
BRANCH  29  31
ATOM     31  O   UNL     1      41.781  -4.416  10.455  0.00  0.00    +0.000 OA
BRANCH  31  33
ATOM     32  C   UNL     1      41.025  -3.196   8.585  0.00  0.00    +0.000 C 
ATOM     33  C   UNL     1      42.050  -4.169   9.095  0.00  0.00    +0.000 C 
ENDBRANCH  31  33
ENDBRANCH  29  31
ENDBRANCH  23  29
ENDBRANCH  22  26
ENDBRANCH   1  22
TORSDOF 9
ENDMDL
MODEL 5
REMARK VINA RESULT:      -7.3      1.990      7.888
REMARK  Name = 
REMARK  9 active torsions:
REMARK  status: ('A' for Active; 'I' for Inactive)
REMARK    1  A    between atoms: C_2  and  O_3
REMARK    2  A    between atoms: O_3  and  C_4
REMARK    3  A    between atoms: C_4  and  C_6
REMARK    4  A    between atoms: C_9  and  N_10
REMARK    5  A    between atoms: N_10  and  C_11
REMARK    6  A    between atoms: C_11  and  C_12
REMARK    7  A    between atoms: C_11  and  C_22
REMARK    8  A    between atoms: C_15  and  O_16
REMARK    9  A    between atoms: C_18  and  O_19
REMARK                            x       y       z     vdW  Elec       q    Type
REMARK                         _______ _______ _______ _____ _____    ______ ____
ROOT
ATOM      1  C   UNL     1      36.821  -1.953  15.096  0.00  0.00    +0.000 C 
ENDROOT
BRANCH   1   2
ATOM      2  C   UNL     1      36.632  -0.735  16.132  0.00  0.00    +0.000 A 
ATOM      3  C   UNL     1      36.918  -0.702  17.428  0.00  0.00    +0.000 A 
ATOM      4  C   UNL     1      37.469  -1.811  18.248  0.00  0.00    +0.000 C 
ATOM      5  N   UNL     1      36.600   0.536  17.866  0.00  0.00    +0.000 NA
ATOM      6  C   UNL     1      36.119   1.258  16.828  0.00  0.00    +0.000 A 
ATOM      7  C   UNL     1      35.656   2.562  16.733  0.00  0.00    +0.000 A 
ATOM      8  C   UNL     1      35.208   3.080  15.544  0.00  0.00    +0.000 A 
ATOM      9  C   UNL     1      35.227   2.275  14.439  0.00  0.00    +0.000 A 
ATOM     10  C   UNL     1      35.681   0.962  14.487  0.00  0.00    +0.000 A 
ATOM     11  C   UNL     1      36.124   0.470  15.697  0.00  0.00    +0.000 A 
ENDBRANCH   1   2
BRANCH   1  12
ATOM     12  C   UNL     1      38.413  -1.751  14.937  0.00  0.00    +0.000 A 
ATOM     13  C   UNL     1      39.161  -2.879  15.195  0.00  0.00    +0.000 A 
ATOM     14  C   UNL     1      40.531  -2.766  15.077  0.00  0.00    +0.000 A 
ATOM     15  C   UNL     1      41.119  -1.574  14.716  0.00  0.00    +0.000 A 
ATOM     16  C   UNL     1      40.312  -0.498  14.476  0.00  0.00    +0.000 A 
ATOM     17  C   UNL     1      38.945  -0.605  14.592  0.00  0.00    +0.000 A 
BRANCH  15  18
ATOM     18  O   UNL     1      42.506  -1.437  14.591  0.00  0.00    +0.000 OA
ATOM     19  C   UNL     1      43.232  -2.104  13.585  0.00  0.00    +0.000 C 
ENDBRANCH  15  18
BRANCH  16  20
ATOM     20  O   UNL     1      40.889   0.710  14.113  0.00  0.00    +0.000 OA
ATOM     21  C   UNL     1      40.938   1.139  12.756  0.00  0.00    +0.000 C 
ENDBRANCH  16  20
ENDBRANCH   1  12
BRANCH   1  22
ATOM     22  N   UNL     1      36.856  -3.095  16.188  0.00  0.00    +0.000 NA
BRANCH  22  26
ATOM     23  C   UNL     1      34.392  -6.438  15.312  0.00  0.00    +0.000 A 
ATOM     24  C   UNL     1      35.453  -6.528  16.187  0.00  0.00    +0.000 A 
ATOM     25  C   UNL     1      36.233  -5.433  16.452  0.00  0.00    +0.000 A 
ATOM     26  C   UNL     1      36.015  -4.207  15.879  0.00  0.00    +0.000 A 
ATOM     27  C   UNL     1      34.957  -4.110  15.005  0.00  0.00    +0.000 A 
ATOM     28  C   UNL     1      34.161  -5.221  14.732  0.00  0.00    +0.000 A 
BRANCH  23  29
ATOM     29  C   UNL     1      33.537  -7.577  15.001  0.00  0.00    +0.000 C 
ATOM     30  O   UNL     1      32.504  -7.779  15.654  0.00  0.00    +0.000 OA
BRANCH  29  31
ATOM     31  O   UNL     1      33.845  -8.471  13.974  0.00  0.00    +0.000 OA
BRANCH  31  33
ATOM     32  C   UNL     1      32.683  -8.996  11.992  0.00  0.00    +0.000 C 
ATOM     33  C   UNL     1      33.706  -8.097  12.624  0.00  0.00    +0.000 C 
ENDBRANCH  31  33
ENDBRANCH  29  31
ENDBRANCH  23  29
ENDBRANCH  22  26
ENDBRANCH   1  22
TORSDOF 9
ENDMDL
MODEL 6
REMARK VINA RESULT:      -7.2      1.111      2.184
REMARK  Name = 
REMARK  9 active torsions:
REMARK  status: ('A' for Active; 'I' for Inactive)
REMARK    1  A    between atoms: C_2  and  O_3
REMARK    2  A    between atoms: O_3  and  C_4
REMARK    3  A    between atoms: C_4  and  C_6
REMARK    4  A    between atoms: C_9  and  N_10
REMARK    5  A    between atoms: N_10  and  C_11
REMARK    6  A    between atoms: C_11  and  C_12
REMARK    7  A    between atoms: C_11  and  C_22
REMARK    8  A    between atoms: C_15  and  O_16
REMARK    9  A    between atoms: C_18  and  O_19
REMARK                            x       y       z     vdW  Elec       q    Type
REMARK                         _______ _______ _______ _____ _____    ______ ____
ROOT
ATOM      1  C   UNL     1      38.552  -2.253  16.936  0.00  0.00    +0.000 C 
ENDROOT
BRANCH   1   2
ATOM      2  C   UNL     1      37.401  -1.341  17.598  0.00  0.00    +0.000 A 
ATOM      3  C   UNL     1      36.962  -1.348  18.850  0.00  0.00    +0.000 A 
ATOM      4  C   UNL     1      37.422  -2.230  19.952  0.00  0.00    +0.000 C 
ATOM      5  N   UNL     1      36.002  -0.400  18.931  0.00  0.00    +0.000 NA
ATOM      6  C   UNL     1      35.860   0.184  17.720  0.00  0.00    +0.000 A 
ATOM      7  C   UNL     1      35.027   1.195  17.262  0.00  0.00    +0.000 A 
ATOM      8  C   UNL     1      35.067   1.625  15.960  0.00  0.00    +0.000 A 
ATOM      9  C   UNL     1      35.956   1.029  15.109  0.00  0.00    +0.000 A 
ATOM     10  C   UNL     1      36.809   0.011  15.522  0.00  0.00    +0.000 A 
ATOM     11  C   UNL     1      36.744  -0.398  16.837  0.00  0.00    +0.000 A 
ENDBRANCH   1   2
BRANCH   1  12
ATOM     12  C   UNL     1      37.582  -3.507  16.645  0.00  0.00    +0.000 A 
ATOM     13  C   UNL     1      37.925  -4.663  17.312  0.00  0.00    +0.000 A 
ATOM     14  C   UNL     1      37.131  -5.771  17.101  0.00  0.00    +0.000 A 
ATOM     15  C   UNL     1      36.043  -5.719  16.258  0.00  0.00    +0.000 A 
ATOM     16  C   UNL     1      35.764  -4.537  15.630  0.00  0.00    +0.000 A 
ATOM     17  C   UNL     1      36.553  -3.428  15.838  0.00  0.00    +0.000 A 
BRANCH  15  18
ATOM     18  O   UNL     1      35.225  -6.829  16.028  0.00  0.00    +0.000 OA
ATOM     19  C   UNL     1      35.295  -7.984  16.831  0.00  0.00    +0.000 C 
ENDBRANCH  15  18
BRANCH  16  20
ATOM     20  O   UNL     1      34.673  -4.467  14.778  0.00  0.00    +0.000 OA
ATOM     21  C   UNL     1      33.363  -4.187  15.260  0.00  0.00    +0.000 C 
ENDBRANCH  16  20
ENDBRANCH   1  12
BRANCH   1  22
ATOM     22  N   UNL     1      38.484  -1.589  15.503  0.00  0.00    +0.000 NA
BRANCH  22  26
ATOM     23  C   UNL     1      42.251  -1.181  13.591  0.00  0.00    +0.000 A 
ATOM     24  C   UNL     1      41.323  -0.163  13.590  0.00  0.00    +0.000 A 
ATOM     25  C   UNL     1      40.113  -0.321  14.215  0.00  0.00    +0.000 A 
ATOM     26  C   UNL     1      39.757  -1.473  14.866  0.00  0.00    +0.000 A 
ATOM     27  C   UNL     1      40.678  -2.494  14.871  0.00  0.00    +0.000 A 
ATOM     28  C   UNL     1      41.909  -2.338  14.236  0.00  0.00    +0.000 A 
BRANCH  23  29
ATOM     29  C   UNL     1      43.549  -1.056  12.938  0.00  0.00    +0.000 C 
ATOM     30  O   UNL     1      43.622  -0.990  11.704  0.00  0.00    +0.000 OA
BRANCH  29  31
ATOM     31  O   UNL     1      44.739  -1.009  13.666  0.00  0.00    +0.000 OA
BRANCH  31  33
ATOM     32  C   UNL     1      45.022  -0.407  15.928  0.00  0.00    +0.000 C 
ATOM     33  C   UNL     1      45.029   0.082  14.508  0.00  0.00    +0.000 C 
ENDBRANCH  31  33
ENDBRANCH  29  31
ENDBRANCH  23  29
ENDBRANCH  22  26
ENDBRANCH   1  22
TORSDOF 9
ENDMDL
MODEL 7
REMARK VINA RESULT:      -7.1     23.925     27.518
REMARK  Name = 
REMARK  9 active torsions:
REMARK  status: ('A' for Active; 'I' for Inactive)
REMARK    1  A    between atoms: C_2  and  O_3
REMARK    2  A    between atoms: O_3  and  C_4
REMARK    3  A    between atoms: C_4  and  C_6
REMARK    4  A    between atoms: C_9  and  N_10
REMARK    5  A    between atoms: N_10  and  C_11
REMARK    6  A    between atoms: C_11  and  C_12
REMARK    7  A    between atoms: C_11  and  C_22
REMARK    8  A    between atoms: C_15  and  O_16
REMARK    9  A    between atoms: C_18  and  O_19
REMARK                            x       y       z     vdW  Elec       q    Type
REMARK                         _______ _______ _______ _____ _____    ______ ____
ROOT
ATOM      1  C   UNL     1      13.696   0.986  27.485  0.00  0.00    +0.000 C 
ENDROOT
BRANCH   1   2
ATOM      2  C   UNL     1      12.390   0.407  26.743  0.00  0.00    +0.000 A 
ATOM      3  C   UNL     1      11.371   1.079  26.223  0.00  0.00    +0.000 A 
ATOM      4  C   UNL     1      11.180   2.551  26.224  0.00  0.00    +0.000 C 
ATOM      5  N   UNL     1      10.527   0.163  25.698  0.00  0.00    +0.000 NA
ATOM      6  C   UNL     1      11.040  -1.072  25.902  0.00  0.00    +0.000 A 
ATOM      7  C   UNL     1      10.584  -2.340  25.569  0.00  0.00    +0.000 A 
ATOM      8  C   UNL     1      11.297  -3.467  25.890  0.00  0.00    +0.000 A 
ATOM      9  C   UNL     1      12.482  -3.316  26.555  0.00  0.00    +0.000 A 
ATOM     10  C   UNL     1      12.979  -2.066  26.909  0.00  0.00    +0.000 A 
ATOM     11  C   UNL     1      12.238  -0.952  26.572  0.00  0.00    +0.000 A 
ENDBRANCH   1   2
BRANCH   1  12
ATOM     12  C   UNL     1      13.144   0.701  28.974  0.00  0.00    +0.000 A 
ATOM     13  C   UNL     1      13.985  -0.055  29.761  0.00  0.00    +0.000 A 
ATOM     14  C   UNL     1      13.565  -0.333  31.045  0.00  0.00    +0.000 A 
ATOM     15  C   UNL     1      12.355   0.128  31.514  0.00  0.00    +0.000 A 
ATOM     16  C   UNL     1      11.574   0.874  30.676  0.00  0.00    +0.000 A 
ATOM     17  C   UNL     1      11.989   1.154  29.394  0.00  0.00    +0.000 A 
BRANCH  15  18
ATOM     18  O   UNL     1      11.908  -0.141  32.812  0.00  0.00    +0.000 OA
ATOM     19  C   UNL     1      12.379   0.580  33.926  0.00  0.00    +0.000 C 
ENDBRANCH  15  18
BRANCH  16  20
ATOM     20  O   UNL     1      10.353   1.346  31.132  0.00  0.00    +0.000 OA
ATOM     21  C   UNL     1       9.185   1.313  30.319  0.00  0.00    +0.000 C 
ENDBRANCH  16  20
ENDBRANCH   1  12
BRANCH   1  22
ATOM     22  N   UNL     1      14.570  -0.321  27.325  0.00  0.00    +0.000 NA
BRANCH  22  26
ATOM     23  C   UNL     1      18.154   0.353  25.155  0.00  0.00    +0.000 A 
ATOM     24  C   UNL     1      17.535   1.360  25.863  0.00  0.00    +0.000 A 
ATOM     25  C   UNL     1      16.378   1.115  26.555  0.00  0.00    +0.000 A 
ATOM     26  C   UNL     1      15.776  -0.116  26.588  0.00  0.00    +0.000 A 
ATOM     27  C   UNL     1      16.389  -1.125  25.884  0.00  0.00    +0.000 A 
ATOM     28  C   UNL     1      17.566  -0.882  25.177  0.00  0.00    +0.000 A 
BRANCH  23  29
ATOM     29  C   UNL     1      19.385   0.569  24.404  0.00  0.00    +0.000 C 
ATOM     30  O   UNL     1      19.751   1.719  24.123  0.00  0.00    +0.000 OA
BRANCH  29  31
ATOM     31  O   UNL     1      20.185  -0.493  23.977  0.00  0.00    +0.000 OA
BRANCH  31  33
ATOM     32  C   UNL     1      20.491  -1.956  22.154  0.00  0.00    +0.000 C 
ATOM     33  C   UNL     1      20.665  -0.550  22.654  0.00  0.00    +0.000 C 
ENDBRANCH  31  33
ENDBRANCH  29  31
ENDBRANCH  23  29
ENDBRANCH  22  26
ENDBRANCH   1  22
TORSDOF 9
ENDMDL
MODEL 8
REMARK VINA RESULT:      -7.0      5.587      8.383
REMARK  Name = 
REMARK  9 active torsions:
REMARK  status: ('A' for Active; 'I' for Inactive)
REMARK    1  A    between atoms: C_2  and  O_3
REMARK    2  A    between atoms: O_3  and  C_4
REMARK    3  A    between atoms: C_4  and  C_6
REMARK    4  A    between atoms: C_9  and  N_10
REMARK    5  A    between atoms: N_10  and  C_11
REMARK    6  A    between atoms: C_11  and  C_12
REMARK    7  A    between atoms: C_11  and  C_22
REMARK    8  A    between atoms: C_15  and  O_16
REMARK    9  A    between atoms: C_18  and  O_19
REMARK                            x       y       z     vdW  Elec       q    Type
REMARK                         _______ _______ _______ _____ _____    ______ ____
ROOT
ATOM      1  C   UNL     1      39.128   2.929  14.251  0.00  0.00    +0.000 C 
ENDROOT
BRANCH   1   2
ATOM      2  C   UNL     1      38.401   1.536  14.603  0.00  0.00    +0.000 A 
ATOM      3  C   UNL     1      37.118   1.315  14.858  0.00  0.00    +0.000 A 
ATOM      4  C   UNL     1      36.031   2.327  14.903  0.00  0.00    +0.000 C 
ATOM      5  N   UNL     1      36.987  -0.011  15.083  0.00  0.00    +0.000 NA
ATOM      6  C   UNL     1      38.199  -0.597  14.962  0.00  0.00    +0.000 A 
ATOM      7  C   UNL     1      38.617  -1.914  15.091  0.00  0.00    +0.000 A 
ATOM      8  C   UNL     1      39.931  -2.271  14.919  0.00  0.00    +0.000 A 
ATOM      9  C   UNL     1      40.833  -1.291  14.614  0.00  0.00    +0.000 A 
ATOM     10  C   UNL     1      40.461   0.042  14.475  0.00  0.00    +0.000 A 
ATOM     11  C   UNL     1      39.133   0.369  14.655  0.00  0.00    +0.000 A 
ENDBRANCH   1   2
BRANCH   1  12
ATOM     12  C   UNL     1      38.499   3.040  12.770  0.00  0.00    +0.000 A 
ATOM     13  C   UNL     1      37.746   4.173  12.552  0.00  0.00    +0.000 A 
ATOM     14  C   UNL     1      37.180   4.322  11.302  0.00  0.00    +0.000 A 
ATOM     15  C   UNL     1      37.364   3.375  10.319  0.00  0.00    +0.000 A 
ATOM     16  C   UNL     1      38.125   2.277  10.609  0.00  0.00    +0.000 A 
ATOM     17  C   UNL     1      38.691   2.124  11.854  0.00  0.00    +0.000 A 
BRANCH  15  18
ATOM     18  O   UNL     1      36.801   3.505   9.046  0.00  0.00    +0.000 OA
ATOM     19  C   UNL     1      35.988   4.601   8.700  0.00  0.00    +0.000 C 
ENDBRANCH  15  18
BRANCH  16  20
ATOM     20  O   UNL     1      38.320   1.314   9.631  0.00  0.00    +0.000 OA
ATOM     21  C   UNL     1      39.500   0.518   9.588  0.00  0.00    +0.000 C 
ENDBRANCH  16  20
ENDBRANCH   1  12
BRANCH   1  22
ATOM     22  N   UNL     1      38.084   3.852  14.998  0.00  0.00    +0.000 NA
BRANCH  22  26
ATOM     23  C   UNL     1      39.624   5.717  18.486  0.00  0.00    +0.000 A 
ATOM     24  C   UNL     1      38.636   4.759  18.552  0.00  0.00    +0.000 A 
ATOM     25  C   UNL     1      38.156   4.172  17.410  0.00  0.00    +0.000 A 
ATOM     26  C   UNL     1      38.616   4.492  16.159  0.00  0.00    +0.000 A 
ATOM     27  C   UNL     1      39.602   5.448  16.086  0.00  0.00    +0.000 A 
ATOM     28  C   UNL     1      40.093   6.048  17.244  0.00  0.00    +0.000 A 
BRANCH  23  29
ATOM     29  C   UNL     1      40.162   6.368  19.675  0.00  0.00    +0.000 C 
ATOM     30  O   UNL     1      41.358   6.238  19.969  0.00  0.00    +0.000 OA
BRANCH  29  31
ATOM     31  O   UNL     1      39.364   7.146  20.514  0.00  0.00    +0.000 OA
BRANCH  31  33
ATOM     32  C   UNL     1      37.656   8.565  19.723  0.00  0.00    +0.000 C 
ATOM     33  C   UNL     1      39.078   8.489  20.199  0.00  0.00    +0.000 C 
ENDBRANCH  31  33
ENDBRANCH  29  31
ENDBRANCH  23  29
ENDBRANCH  22  26
ENDBRANCH   1  22
TORSDOF 9
ENDMDL
MODEL 9
REMARK VINA RESULT:      -7.0      5.975      8.937
REMARK  Name = 
REMARK  9 active torsions:
REMARK  status: ('A' for Active; 'I' for Inactive)
REMARK    1  A    between atoms: C_2  and  O_3
REMARK    2  A    between atoms: O_3  and  C_4
REMARK    3  A    between atoms: C_4  and  C_6
REMARK    4  A    between atoms: C_9  and  N_10
REMARK    5  A    between atoms: N_10  and  C_11
REMARK    6  A    between atoms: C_11  and  C_12
REMARK    7  A    between atoms: C_11  and  C_22
REMARK    8  A    between atoms: C_15  and  O_16
REMARK    9  A    between atoms: C_18  and  O_19
REMARK                            x       y       z     vdW  Elec       q    Type
REMARK                         _______ _______ _______ _____ _____    ______ ____
ROOT
ATOM      1  C   UNL     1      37.822   3.794  15.376  0.00  0.00    +0.000 C 
ENDROOT
BRANCH   1   2
ATOM      2  C   UNL     1      39.135   4.701  15.592  0.00  0.00    +0.000 A 
ATOM      3  C   UNL     1      40.040   5.069  14.694  0.00  0.00    +0.000 A 
ATOM      4  C   UNL     1      40.068   4.705  13.255  0.00  0.00    +0.000 C 
ATOM      5  N   UNL     1      40.945   5.834  15.344  0.00  0.00    +0.000 NA
ATOM      6  C   UNL     1      40.584   5.930  16.644  0.00  0.00    +0.000 A 
ATOM      7  C   UNL     1      41.156   6.585  17.726  0.00  0.00    +0.000 A 
ATOM      8  C   UNL     1      40.592   6.533  18.976  0.00  0.00    +0.000 A 
ATOM      9  C   UNL     1      39.441   5.814  19.138  0.00  0.00    +0.000 A 
ATOM     10  C   UNL     1      38.833   5.141  18.083  0.00  0.00    +0.000 A 
ATOM     11  C   UNL     1      39.424   5.212  16.839  0.00  0.00    +0.000 A 
ENDBRANCH   1   2
BRANCH   1  12
ATOM     12  C   UNL     1      37.046   4.889  14.483  0.00  0.00    +0.000 A 
ATOM     13  C   UNL     1      36.658   4.442  13.239  0.00  0.00    +0.000 A 
ATOM     14  C   UNL     1      35.990   5.336  12.428  0.00  0.00    +0.000 A 
ATOM     15  C   UNL     1      35.726   6.621  12.850  0.00  0.00    +0.000 A 
ATOM     16  C   UNL     1      36.141   6.993  14.098  0.00  0.00    +0.000 A 
ATOM     17  C   UNL     1      36.807   6.104  14.911  0.00  0.00    +0.000 A 
BRANCH  15  18
ATOM     18  O   UNL     1      35.051   7.544  12.045  0.00  0.00    +0.000 OA
ATOM     19  C   UNL     1      33.807   7.248  11.454  0.00  0.00    +0.000 C 
ENDBRANCH  15  18
BRANCH  16  20
ATOM     20  O   UNL     1      35.882   8.282  14.538  0.00  0.00    +0.000 OA
ATOM     21  C   UNL     1      36.730   8.938  15.476  0.00  0.00    +0.000 C 
ENDBRANCH  16  20
ENDBRANCH   1  12
BRANCH   1  22
ATOM     22  N   UNL     1      38.412   2.929  14.193  0.00  0.00    +0.000 NA
BRANCH  22  26
ATOM     23  C   UNL     1      39.181  -1.116  15.220  0.00  0.00    +0.000 A 
ATOM     24  C   UNL     1      40.162  -0.302  14.697  0.00  0.00    +0.000 A 
ATOM     25  C   UNL     1      39.887   1.001  14.373  0.00  0.00    +0.000 A 
ATOM     26  C   UNL     1      38.649   1.565  14.544  0.00  0.00    +0.000 A 
ATOM     27  C   UNL     1      37.666   0.758  15.066  0.00  0.00    +0.000 A 
ATOM     28  C   UNL     1      37.941  -0.568  15.397  0.00  0.00    +0.000 A 
BRANCH  23  29
ATOM     29  C   UNL     1      39.430  -2.508  15.577  0.00  0.00    +0.000 C 
ATOM     30  O   UNL     1      40.563  -2.992  15.449  0.00  0.00    +0.000 OA
BRANCH  29  31
ATOM     31  O   UNL     1      38.418  -3.336  16.066  0.00  0.00    +0.000 OA
BRANCH  31  33
ATOM     32  C   UNL     1      38.576  -2.925  18.382  0.00  0.00    +0.000 C 
ATOM     33  C   UNL     1      38.549  -3.979  17.312  0.00  0.00    +0.000 C 
ENDBRANCH  31  33
ENDBRANCH  29  31
ENDBRANCH  23  29
ENDBRANCH  22  26
ENDBRANCH   1  22
TORSDOF 9
ENDMDL
MODEL 10
REMARK VINA RESULT:      -7.0      6.685      8.926
REMARK  Name = 
REMARK  9 active torsions:
REMARK  status: ('A' for Active; 'I' for Inactive)
REMARK    1  A    between atoms: C_2  and  O_3
REMARK    2  A    between atoms: O_3  and  C_4
REMARK    3  A    between atoms: C_4  and  C_6
REMARK    4  A    between atoms: C_9  and  N_10
REMARK    5  A    between atoms: N_10  and  C_11
REMARK    6  A    between atoms: C_11  and  C_12
REMARK    7  A    between atoms: C_11  and  C_22
REMARK    8  A    between atoms: C_15  and  O_16
REMARK    9  A    between atoms: C_18  and  O_19
REMARK                            x       y       z     vdW  Elec       q    Type
REMARK                         _______ _______ _______ _____ _____    ______ ____
ROOT
ATOM      1  C   UNL     1      38.095   4.016  14.333  0.00  0.00    +0.000 C 
ENDROOT
BRANCH   1   2
ATOM      2  C   UNL     1      38.247   4.248  15.920  0.00  0.00    +0.000 A 
ATOM      3  C   UNL     1      37.490   3.770  16.900  0.00  0.00    +0.000 A 
ATOM      4  C   UNL     1      36.287   2.911  16.760  0.00  0.00    +0.000 C 
ATOM      5  N   UNL     1      38.018   4.226  18.057  0.00  0.00    +0.000 NA
ATOM      6  C   UNL     1      39.102   4.985  17.776  0.00  0.00    +0.000 A 
ATOM      7  C   UNL     1      39.992   5.679  18.583  0.00  0.00    +0.000 A 
ATOM      8  C   UNL     1      41.036   6.393  18.053  0.00  0.00    +0.000 A 
ATOM      9  C   UNL     1      41.185   6.409  16.694  0.00  0.00    +0.000 A 
ATOM     10  C   UNL     1      40.318   5.730  15.845  0.00  0.00    +0.000 A 
ATOM     11  C   UNL     1      39.278   5.021  16.409  0.00  0.00    +0.000 A 
ENDBRANCH   1   2
BRANCH   1  12
ATOM     12  C   UNL     1      38.359   2.426  14.403  0.00  0.00    +0.000 A 
ATOM     13  C   UNL     1      39.688   2.069  14.473  0.00  0.00    +0.000 A 
ATOM     14  C   UNL     1      39.975   0.721  14.533  0.00  0.00    +0.000 A 
ATOM     15  C   UNL     1      38.972  -0.223  14.523  0.00  0.00    +0.000 A 
ATOM     16  C   UNL     1      37.677   0.207  14.452  0.00  0.00    +0.000 A 
ATOM     17  C   UNL     1      37.384   1.551  14.393  0.00  0.00    +0.000 A 
BRANCH  15  18
ATOM     18  O   UNL     1      39.240  -1.594  14.583  0.00  0.00    +0.000 OA
ATOM     19  C   UNL     1      40.393  -2.154  13.999  0.00  0.00    +0.000 C 
ENDBRANCH  15  18
BRANCH  16  20
ATOM     20  O   UNL     1      36.655  -0.730  14.441  0.00  0.00    +0.000 OA
ATOM     21  C   UNL     1      35.898  -1.027  15.611  0.00  0.00    +0.000 C 
ENDBRANCH  16  20
ENDBRANCH   1  12
BRANCH   1  22
ATOM     22  N   UNL     1      36.515   3.973  14.323  0.00  0.00    +0.000 NA
BRANCH  22  26
ATOM     23  C   UNL     1      34.715   6.768  11.686  0.00  0.00    +0.000 A 
ATOM     24  C   UNL     1      34.273   6.604  12.981  0.00  0.00    +0.000 A 
ATOM     25  C   UNL     1      34.871   5.693  13.812  0.00  0.00    +0.000 A 
ATOM     26  C   UNL     1      35.924   4.907  13.420  0.00  0.00    +0.000 A 
ATOM     27  C   UNL     1      36.370   5.066  12.129  0.00  0.00    +0.000 A 
ATOM     28  C   UNL     1      35.764   5.990  11.279  0.00  0.00    +0.000 A 
BRANCH  23  29
ATOM     29  C   UNL     1      34.106   7.724  10.768  0.00  0.00    +0.000 C 
ATOM     30  O   UNL     1      34.134   8.936  11.022  0.00  0.00    +0.000 OA
BRANCH  29  31
ATOM     31  O   UNL     1      33.479   7.317   9.590  0.00  0.00    +0.000 OA
BRANCH  31  33
ATOM     32  C   UNL     1      33.485   6.497   7.380  0.00  0.00    +0.000 C 
ATOM     33  C   UNL     1      34.118   7.459   8.343  0.00  0.00    +0.000 C 
ENDBRANCH  31  33
ENDBRANCH  29  31
ENDBRANCH  23  29
ENDBRANCH  22  26
ENDBRANCH   1  22
TORSDOF 9
ENDMDL
