MODEL 1
REMARK VINA RESULT:      -7.5      0.000      0.000
REMARK  Name = 
REMARK  8 active torsions:
REMARK  status: ('A' for Active; 'I' for Inactive)
REMARK    1  A    between atoms: C_2  and  O_3
REMARK    2  A    between atoms: O_3  and  C_4
REMARK    3  A    between atoms: C_9  and  N_10
REMARK    4  A    between atoms: N_10  and  C_11
REMARK    5  A    between atoms: C_12  and  S_13
REMARK    6  A    between atoms: S_13  and  C_14
REMARK    7  A    between atoms: N_22  and  C_23
REMARK    8  A    between atoms: C_26  and  C_27
REMARK                            x       y       z     vdW  Elec       q    Type
REMARK                         _______ _______ _______ _____ _____    ______ ____
ROOT
ATOM      1  C   UNL     1      38.100   5.659  16.255  0.00  0.00    +0.000 C 
ATOM      2  C   UNL     1      37.393   5.814  15.126  0.00  0.00    +0.000 C 
ATOM      3  C   UNL     1      36.679   4.579  14.882  0.00  0.00    +0.000 C 
ATOM      4  O   UNL     1      35.901   4.287  13.935  0.00  0.00    +0.000 OA
ATOM      5  N   UNL     1      36.985   3.634  15.938  0.00  0.00    +0.000 N 
ATOM      6  C   UNL     1      37.877   4.330  16.787  0.00  0.00    +0.000 C 
ATOM      7  O   UNL     1      38.379   3.848  17.833  0.00  0.00    +0.000 OA
ENDROOT
BRANCH   5   8
ATOM      8  C   UNL     1      36.492   2.310  16.074  0.00  0.00    +0.000 A 
ATOM      9  C   UNL     1      35.352   2.047  16.802  0.00  0.00    +0.000 A 
ATOM     10  C   UNL     1      34.868   0.765  16.937  0.00  0.00    +0.000 A 
ATOM     11  C   UNL     1      35.525  -0.289  16.338  0.00  0.00    +0.000 A 
ATOM     12  C   UNL     1      36.668  -0.028  15.607  0.00  0.00    +0.000 A 
ATOM     13  C   UNL     1      37.143   1.257  15.479  0.00  0.00    +0.000 A 
BRANCH  11  14
ATOM     14  C   UNL     1      35.033  -1.703  16.457  0.00  0.00    +0.000 C 
ATOM     15  C   UNL     1      35.620  -2.571  15.367  0.00  0.00    +0.000 C 
ENDBRANCH  11  14
ENDBRANCH   5   8
BRANCH   1  16
ATOM     16  N   UNL     1      38.948   6.616  16.877  0.00  0.00    +0.000 NA
BRANCH  16  22
ATOM     17  C   UNL     1      39.305   7.070  19.222  0.00  0.00    +0.000 A 
ATOM     18  C   UNL     1      38.993   7.709  20.393  0.00  0.00    +0.000 A 
ATOM     19  C   UNL     1      37.942   8.600  20.405  0.00  0.00    +0.000 A 
ATOM     20  C   UNL     1      37.203   8.859  19.273  0.00  0.00    +0.000 A 
ATOM     21  C   UNL     1      37.542   8.199  18.114  0.00  0.00    +0.000 A 
ATOM     22  C   UNL     1      38.585   7.304  18.068  0.00  0.00    +0.000 A 
BRANCH  17  23
ATOM     23  O   UNL     1      40.346   6.176  19.176  0.00  0.00    +0.000 OA
BRANCH  23  25
ATOM     24  C   UNL     1      42.392   6.589  18.021  0.00  0.00    +0.000 C 
ATOM     25  C   UNL     1      41.692   6.488  19.355  0.00  0.00    +0.000 C 
ENDBRANCH  23  25
ENDBRANCH  17  23
ENDBRANCH  16  22
ENDBRANCH   1  16
BRANCH   2  26
ATOM     26  S   UNL     1      37.419   7.302  14.206  0.00  0.00    +0.000 S 
BRANCH  26  27
ATOM     27  C   UNL     1      36.180   8.488  14.624  0.00  0.00    +0.000 A 
ATOM     28  C   UNL     1      36.380   9.806  14.936  0.00  0.00    +0.000 A 
ATOM     29  C   UNL     1      35.364  10.683  15.254  0.00  0.00    +0.000 A 
ATOM     30  C   UNL     1      34.048  10.269  15.276  0.00  0.00    +0.000 A 
ATOM     31  C   UNL     1      33.826   8.945  14.965  0.00  0.00    +0.000 A 
ATOM     32  C   UNL     1      34.839   8.080  14.651  0.00  0.00    +0.000 A 
ENDBRANCH  26  27
ENDBRANCH   2  26
TORSDOF 8
ENDMDL
MODEL 2
REMARK VINA RESULT:      -7.3      2.560      7.988
REMARK  Name = 
REMARK  8 active torsions:
REMARK  status: ('A' for Active; 'I' for Inactive)
REMARK    1  A    between atoms: C_2  and  O_3
REMARK    2  A    between atoms: O_3  and  C_4
REMARK    3  A    between atoms: C_9  and  N_10
REMARK    4  A    between atoms: N_10  and  C_11
REMARK    5  A    between atoms: C_12  and  S_13
REMARK    6  A    between atoms: S_13  and  C_14
REMARK    7  A    between atoms: N_22  and  C_23
REMARK    8  A    between atoms: C_26  and  C_27
REMARK                            x       y       z     vdW  Elec       q    Type
REMARK                         _______ _______ _______ _____ _____    ______ ____
ROOT
ATOM      1  C   UNL     1      37.055   4.570  14.414  0.00  0.00    +0.000 C 
ATOM      2  C   UNL     1      36.682   3.625  15.289  0.00  0.00    +0.000 C 
ATOM      3  C   UNL     1      37.430   3.839  16.509  0.00  0.00    +0.000 C 
ATOM      4  O   UNL     1      37.394   3.185  17.587  0.00  0.00    +0.000 OA
ATOM      5  N   UNL     1      38.300   4.986  16.342  0.00  0.00    +0.000 N 
ATOM      6  C   UNL     1      38.050   5.429  15.022  0.00  0.00    +0.000 C 
ATOM      7  O   UNL     1      38.615   6.416  14.488  0.00  0.00    +0.000 OA
ENDROOT
BRANCH   5   8
ATOM      8  C   UNL     1      39.197   5.530  17.299  0.00  0.00    +0.000 A 
ATOM      9  C   UNL     1      38.793   5.776  18.592  0.00  0.00    +0.000 A 
ATOM     10  C   UNL     1      39.658   6.303  19.526  0.00  0.00    +0.000 A 
ATOM     11  C   UNL     1      40.959   6.595  19.175  0.00  0.00    +0.000 A 
ATOM     12  C   UNL     1      41.368   6.349  17.878  0.00  0.00    +0.000 A 
ATOM     13  C   UNL     1      40.495   5.823  16.954  0.00  0.00    +0.000 A 
BRANCH  11  14
ATOM     14  C   UNL     1      41.937   7.169  20.159  0.00  0.00    +0.000 C 
ATOM     15  C   UNL     1      42.707   6.070  20.857  0.00  0.00    +0.000 C 
ENDBRANCH  11  14
ENDBRANCH   5   8
BRANCH   1  16
ATOM     16  N   UNL     1      36.578   4.749  13.086  0.00  0.00    +0.000 NA
BRANCH  16  22
ATOM     17  C   UNL     1      35.497   6.182  11.470  0.00  0.00    +0.000 A 
ATOM     18  C   UNL     1      34.531   7.082  11.106  0.00  0.00    +0.000 A 
ATOM     19  C   UNL     1      33.608   7.486  12.046  0.00  0.00    +0.000 A 
ATOM     20  C   UNL     1      33.636   7.007  13.336  0.00  0.00    +0.000 A 
ATOM     21  C   UNL     1      34.621   6.105  13.670  0.00  0.00    +0.000 A 
ATOM     22  C   UNL     1      35.556   5.682  12.755  0.00  0.00    +0.000 A 
BRANCH  17  23
ATOM     23  O   UNL     1      36.432   5.760  10.558  0.00  0.00    +0.000 OA
BRANCH  23  25
ATOM     24  C   UNL     1      36.699   3.677   9.426  0.00  0.00    +0.000 C 
ATOM     25  C   UNL     1      36.159   5.086   9.369  0.00  0.00    +0.000 C 
ENDBRANCH  23  25
ENDBRANCH  17  23
ENDBRANCH  16  22
ENDBRANCH   1  16
BRANCH   2  26
ATOM     26  S   UNL     1      35.489   2.407  14.897  0.00  0.00    +0.000 S 
BRANCH  26  27
ATOM     27  C   UNL     1      35.629   0.881  15.771  0.00  0.00    +0.000 A 
ATOM     28  C   UNL     1      36.382  -0.204  15.410  0.00  0.00    +0.000 A 
ATOM     29  C   UNL     1      36.449  -1.370  16.142  0.00  0.00    +0.000 A 
ATOM     30  C   UNL     1      35.740  -1.516  17.317  0.00  0.00    +0.000 A 
ATOM     31  C   UNL     1      34.976  -0.434  17.697  0.00  0.00    +0.000 A 
ATOM     32  C   UNL     1      34.913   0.721  16.966  0.00  0.00    +0.000 A 
ENDBRANCH  26  27
ENDBRANCH   2  26
TORSDOF 8
ENDMDL
MODEL 3
REMARK VINA RESULT:      -7.3      3.332      8.991
REMARK  Name = 
REMARK  8 active torsions:
REMARK  status: ('A' for Active; 'I' for Inactive)
REMARK    1  A    between atoms: C_2  and  O_3
REMARK    2  A    between atoms: O_3  and  C_4
REMARK    3  A    between atoms: C_9  and  N_10
REMARK    4  A    between atoms: N_10  and  C_11
REMARK    5  A    between atoms: C_12  and  S_13
REMARK    6  A    between atoms: S_13  and  C_14
REMARK    7  A    between atoms: N_22  and  C_23
REMARK    8  A    between atoms: C_26  and  C_27
REMARK                            x       y       z     vdW  Elec       q    Type
REMARK                         _______ _______ _______ _____ _____    ______ ____
ROOT
ATOM      1  C   UNL     1      38.525   2.618  14.386  0.00  0.00    +0.000 C 
ATOM      2  C   UNL     1      37.452   2.189  15.067  0.00  0.00    +0.000 C 
ATOM      3  C   UNL     1      37.261   3.081  16.191  0.00  0.00    +0.000 C 
ATOM      4  O   UNL     1      36.375   3.049  17.087  0.00  0.00    +0.000 OA
ATOM      5  N   UNL     1      38.288   4.103  16.169  0.00  0.00    +0.000 N 
ATOM      6  C   UNL     1      39.069   3.795  15.032  0.00  0.00    +0.000 C 
ATOM      7  O   UNL     1      40.072   4.456  14.662  0.00  0.00    +0.000 OA
ENDROOT
BRANCH   5   8
ATOM      8  C   UNL     1      38.457   5.169  17.093  0.00  0.00    +0.000 A 
ATOM      9  C   UNL     1      37.973   6.429  16.821  0.00  0.00    +0.000 A 
ATOM     10  C   UNL     1      38.134   7.467  17.712  0.00  0.00    +0.000 A 
ATOM     11  C   UNL     1      38.790   7.256  18.906  0.00  0.00    +0.000 A 
ATOM     12  C   UNL     1      39.276   5.993  19.183  0.00  0.00    +0.000 A 
ATOM     13  C   UNL     1      39.110   4.964  18.284  0.00  0.00    +0.000 A 
BRANCH  11  14
ATOM     14  C   UNL     1      38.987   8.357  19.909  0.00  0.00    +0.000 C 
ATOM     15  C   UNL     1      37.659   8.943  20.333  0.00  0.00    +0.000 C 
ENDBRANCH  11  14
ENDBRANCH   5   8
BRANCH   1  16
ATOM     16  N   UNL     1      39.081   2.047  13.209  0.00  0.00    +0.000 NA
BRANCH  16  22
ATOM     17  C   UNL     1      39.550  -0.085  12.176  0.00  0.00    +0.000 A 
ATOM     18  C   UNL     1      40.190  -1.296  12.134  0.00  0.00    +0.000 A 
ATOM     19  C   UNL     1      41.064  -1.622  13.148  0.00  0.00    +0.000 A 
ATOM     20  C   UNL     1      41.308  -0.762  14.195  0.00  0.00    +0.000 A 
ATOM     21  C   UNL     1      40.648   0.446  14.206  0.00  0.00    +0.000 A 
ATOM     22  C   UNL     1      39.769   0.801  13.211  0.00  0.00    +0.000 A 
BRANCH  17  23
ATOM     23  O   UNL     1      38.672   0.270  11.182  0.00  0.00    +0.000 OA
BRANCH  23  25
ATOM     24  C   UNL     1      38.205   1.932   9.536  0.00  0.00    +0.000 C 
ATOM     25  C   UNL     1      39.023   0.719   9.911  0.00  0.00    +0.000 C 
ENDBRANCH  23  25
ENDBRANCH  17  23
ENDBRANCH  16  22
ENDBRANCH   1  16
BRANCH   2  26
ATOM     26  S   UNL     1      36.534   0.783  14.574  0.00  0.00    +0.000 S 
BRANCH  26  27
ATOM     27  C   UNL     1      37.238  -0.781  14.988  0.00  0.00    +0.000 A 
ATOM     28  C   UNL     1      37.972  -1.080  16.105  0.00  0.00    +0.000 A 
ATOM     29  C   UNL     1      38.494  -2.328  16.368  0.00  0.00    +0.000 A 
ATOM     30  C   UNL     1      38.303  -3.380  15.496  0.00  0.00    +0.000 A 
ATOM     31  C   UNL     1      37.567  -3.099  14.365  0.00  0.00    +0.000 A 
ATOM     32  C   UNL     1      37.051  -1.857  14.108  0.00  0.00    +0.000 A 
ENDBRANCH  26  27
ENDBRANCH   2  26
TORSDOF 8
ENDMDL
MODEL 4
REMARK VINA RESULT:      -7.2      3.091      8.925
REMARK  Name = 
REMARK  8 active torsions:
REMARK  status: ('A' for Active; 'I' for Inactive)
REMARK    1  A    between atoms: C_2  and  O_3
REMARK    2  A    between atoms: O_3  and  C_4
REMARK    3  A    between atoms: C_9  and  N_10
REMARK    4  A    between atoms: N_10  and  C_11
REMARK    5  A    between atoms: C_12  and  S_13
REMARK    6  A    between atoms: S_13  and  C_14
REMARK    7  A    between atoms: N_22  and  C_23
REMARK    8  A    between atoms: C_26  and  C_27
REMARK                            x       y       z     vdW  Elec       q    Type
REMARK                         _______ _______ _______ _____ _____    ______ ____
ROOT
ATOM      1  C   UNL     1      37.252   1.680  14.940  0.00  0.00    +0.000 C 
ATOM      2  C   UNL     1      38.294   2.026  14.169  0.00  0.00    +0.000 C 
ATOM      3  C   UNL     1      38.856   3.244  14.711  0.00  0.00    +0.000 C 
ATOM      4  O   UNL     1      39.841   3.915  14.300  0.00  0.00    +0.000 OA
ATOM      5  N   UNL     1      38.095   3.642  15.879  0.00  0.00    +0.000 N 
ATOM      6  C   UNL     1      37.096   2.650  16.005  0.00  0.00    +0.000 C 
ATOM      7  O   UNL     1      36.223   2.635  16.908  0.00  0.00    +0.000 OA
ENDROOT
BRANCH   5   8
ATOM      8  C   UNL     1      38.318   4.778  16.702  0.00  0.00    +0.000 A 
ATOM      9  C   UNL     1      38.818   4.645  17.978  0.00  0.00    +0.000 A 
ATOM     10  C   UNL     1      39.037   5.742  18.781  0.00  0.00    +0.000 A 
ATOM     11  C   UNL     1      38.755   7.008  18.312  0.00  0.00    +0.000 A 
ATOM     12  C   UNL     1      38.254   7.145  17.032  0.00  0.00    +0.000 A 
ATOM     13  C   UNL     1      38.039   6.041  16.240  0.00  0.00    +0.000 A 
BRANCH  11  14
ATOM     14  C   UNL     1      38.979   8.233  19.151  0.00  0.00    +0.000 C 
ATOM     15  C   UNL     1      39.020   7.879  20.621  0.00  0.00    +0.000 C 
ENDBRANCH  11  14
ENDBRANCH   5   8
BRANCH   1  16
ATOM     16  N   UNL     1      36.403   0.550  14.783  0.00  0.00    +0.000 NA
BRANCH  16  22
ATOM     17  C   UNL     1      37.332  -1.259  16.085  0.00  0.00    +0.000 A 
ATOM     18  C   UNL     1      37.800  -2.540  16.217  0.00  0.00    +0.000 A 
ATOM     19  C   UNL     1      37.816  -3.360  15.109  0.00  0.00    +0.000 A 
ATOM     20  C   UNL     1      37.374  -2.923  13.882  0.00  0.00    +0.000 A 
ATOM     21  C   UNL     1      36.911  -1.631  13.784  0.00  0.00    +0.000 A 
ATOM     22  C   UNL     1      36.881  -0.787  14.869  0.00  0.00    +0.000 A 
BRANCH  17  23
ATOM     23  O   UNL     1      37.302  -0.417  17.168  0.00  0.00    +0.000 OA
BRANCH  23  25
ATOM     24  C   UNL     1      37.161  -1.213  19.413  0.00  0.00    +0.000 C 
ATOM     25  C   UNL     1      36.452  -0.534  18.265  0.00  0.00    +0.000 C 
ENDBRANCH  23  25
ENDBRANCH  17  23
ENDBRANCH  16  22
ENDBRANCH   1  16
BRANCH   2  26
ATOM     26  S   UNL     1      38.782   1.080  12.780  0.00  0.00    +0.000 S 
BRANCH  26  27
ATOM     27  C   UNL     1      39.879  -0.262  13.109  0.00  0.00    +0.000 A 
ATOM     28  C   UNL     1      40.240  -1.259  12.242  0.00  0.00    +0.000 A 
ATOM     29  C   UNL     1      41.107  -2.281  12.564  0.00  0.00    +0.000 A 
ATOM     30  C   UNL     1      41.679  -2.362  13.817  0.00  0.00    +0.000 A 
ATOM     31  C   UNL     1      41.328  -1.368  14.705  0.00  0.00    +0.000 A 
ATOM     32  C   UNL     1      40.466  -0.356  14.379  0.00  0.00    +0.000 A 
ENDBRANCH  26  27
ENDBRANCH   2  26
TORSDOF 8
ENDMDL
MODEL 5
REMARK VINA RESULT:      -7.2      1.066      2.394
REMARK  Name = 
REMARK  8 active torsions:
REMARK  status: ('A' for Active; 'I' for Inactive)
REMARK    1  A    between atoms: C_2  and  O_3
REMARK    2  A    between atoms: O_3  and  C_4
REMARK    3  A    between atoms: C_9  and  N_10
REMARK    4  A    between atoms: N_10  and  C_11
REMARK    5  A    between atoms: C_12  and  S_13
REMARK    6  A    between atoms: S_13  and  C_14
REMARK    7  A    between atoms: N_22  and  C_23
REMARK    8  A    between atoms: C_26  and  C_27
REMARK                            x       y       z     vdW  Elec       q    Type
REMARK                         _______ _______ _______ _____ _____    ______ ____
ROOT
ATOM      1  C   UNL     1      38.115   5.632  15.891  0.00  0.00    +0.000 C 
ATOM      2  C   UNL     1      37.335   5.761  14.808  0.00  0.00    +0.000 C 
ATOM      3  C   UNL     1      36.574   4.538  14.667  0.00  0.00    +0.000 C 
ATOM      4  O   UNL     1      35.724   4.230  13.789  0.00  0.00    +0.000 OA
ATOM      5  N   UNL     1      36.929   3.629  15.738  0.00  0.00    +0.000 N 
ATOM      6  C   UNL     1      37.896   4.333  16.493  0.00  0.00    +0.000 C 
ATOM      7  O   UNL     1      38.458   3.879  17.521  0.00  0.00    +0.000 OA
ENDROOT
BRANCH   5   8
ATOM      8  C   UNL     1      36.412   2.326  15.964  0.00  0.00    +0.000 A 
ATOM      9  C   UNL     1      36.995   1.220  15.387  0.00  0.00    +0.000 A 
ATOM     10  C   UNL     1      36.498  -0.047  15.602  0.00  0.00    +0.000 A 
ATOM     11  C   UNL     1      35.396  -0.229  16.409  0.00  0.00    +0.000 A 
ATOM     12  C   UNL     1      34.808   0.879  16.990  0.00  0.00    +0.000 A 
ATOM     13  C   UNL     1      35.313   2.139  16.767  0.00  0.00    +0.000 A 
BRANCH  11  14
ATOM     14  C   UNL     1      34.820  -1.591  16.672  0.00  0.00    +0.000 C 
ATOM     15  C   UNL     1      35.355  -2.602  15.683  0.00  0.00    +0.000 C 
ENDBRANCH  11  14
ENDBRANCH   5   8
BRANCH   1  16
ATOM     16  N   UNL     1      39.030   6.588  16.412  0.00  0.00    +0.000 NA
BRANCH  16  22
ATOM     17  C   UNL     1      38.210   7.880  18.281  0.00  0.00    +0.000 A 
ATOM     18  C   UNL     1      38.223   8.239  19.603  0.00  0.00    +0.000 A 
ATOM     19  C   UNL     1      39.125   7.632  20.449  0.00  0.00    +0.000 A 
ATOM     20  C   UNL     1      40.008   6.678  19.997  0.00  0.00    +0.000 A 
ATOM     21  C   UNL     1      39.970   6.341  18.663  0.00  0.00    +0.000 A 
ATOM     22  C   UNL     1      39.082   6.928  17.793  0.00  0.00    +0.000 A 
BRANCH  17  23
ATOM     23  O   UNL     1      37.324   8.466  17.411  0.00  0.00    +0.000 OA
BRANCH  23  25
ATOM     24  C   UNL     1      36.754  10.781  17.344  0.00  0.00    +0.000 C 
ATOM     25  C   UNL     1      36.339   9.388  17.756  0.00  0.00    +0.000 C 
ENDBRANCH  23  25
ENDBRANCH  17  23
ENDBRANCH  16  22
ENDBRANCH   1  16
BRANCH   2  26
ATOM     26  S   UNL     1      37.334   7.210  13.826  0.00  0.00    +0.000 S 
BRANCH  26  27
ATOM     27  C   UNL     1      36.014   8.342  14.124  0.00  0.00    +0.000 A 
ATOM     28  C   UNL     1      34.786   8.048  14.654  0.00  0.00    +0.000 A 
ATOM     29  C   UNL     1      33.796   8.984  14.863  0.00  0.00    +0.000 A 
ATOM     30  C   UNL     1      33.991  10.312  14.541  0.00  0.00    +0.000 A 
ATOM     31  C   UNL     1      35.222  10.628  14.007  0.00  0.00    +0.000 A 
ATOM     32  C   UNL     1      36.201   9.693  13.801  0.00  0.00    +0.000 A 
ENDBRANCH  26  27
ENDBRANCH   2  26
TORSDOF 8
ENDMDL
MODEL 6
REMARK VINA RESULT:      -7.1      0.747      2.141
REMARK  Name = 
REMARK  8 active torsions:
REMARK  status: ('A' for Active; 'I' for Inactive)
REMARK    1  A    between atoms: C_2  and  O_3
REMARK    2  A    between atoms: O_3  and  C_4
REMARK    3  A    between atoms: C_9  and  N_10
REMARK    4  A    between atoms: N_10  and  C_11
REMARK    5  A    between atoms: C_12  and  S_13
REMARK    6  A    between atoms: S_13  and  C_14
REMARK    7  A    between atoms: N_22  and  C_23
REMARK    8  A    between atoms: C_26  and  C_27
REMARK                            x       y       z     vdW  Elec       q    Type
REMARK                         _______ _______ _______ _____ _____    ______ ____
ROOT
ATOM      1  C   UNL     1      37.913   5.719  16.450  0.00  0.00    +0.000 C 
ATOM      2  C   UNL     1      37.372   5.873  15.233  0.00  0.00    +0.000 C 
ATOM      3  C   UNL     1      36.844   4.589  14.822  0.00  0.00    +0.000 C 
ATOM      4  O   UNL     1      36.255   4.280  13.752  0.00  0.00    +0.000 OA
ATOM      5  N   UNL     1      37.091   3.615  15.867  0.00  0.00    +0.000 N 
ATOM      6  C   UNL     1      37.761   4.343  16.877  0.00  0.00    +0.000 C 
ATOM      7  O   UNL     1      38.151   3.849  17.964  0.00  0.00    +0.000 OA
ENDROOT
BRANCH   5   8
ATOM      8  C   UNL     1      36.732   2.241  15.861  0.00  0.00    +0.000 A 
ATOM      9  C   UNL     1      35.605   1.798  16.515  0.00  0.00    +0.000 A 
ATOM     10  C   UNL     1      35.251   0.467  16.513  0.00  0.00    +0.000 A 
ATOM     11  C   UNL     1      36.031  -0.454  15.846  0.00  0.00    +0.000 A 
ATOM     12  C   UNL     1      37.163  -0.012  15.187  0.00  0.00    +0.000 A 
ATOM     13  C   UNL     1      37.506   1.320  15.197  0.00  0.00    +0.000 A 
BRANCH  11  14
ATOM     14  C   UNL     1      35.684  -1.915  15.815  0.00  0.00    +0.000 C 
ATOM     15  C   UNL     1      34.649  -2.245  16.867  0.00  0.00    +0.000 C 
ENDBRANCH  11  14
ENDBRANCH   5   8
BRANCH   1  16
ATOM     16  N   UNL     1      38.546   6.716  17.242  0.00  0.00    +0.000 NA
BRANCH  16  22
ATOM     17  C   UNL     1      40.254   6.698  18.949  0.00  0.00    +0.000 A 
ATOM     18  C   UNL     1      41.562   6.633  19.353  0.00  0.00    +0.000 A 
ATOM     19  C   UNL     1      42.548   6.513  18.398  0.00  0.00    +0.000 A 
ATOM     20  C   UNL     1      42.250   6.457  17.056  0.00  0.00    +0.000 A 
ATOM     21  C   UNL     1      40.926   6.526  16.684  0.00  0.00    +0.000 A 
ATOM     22  C   UNL     1      39.918   6.646  17.612  0.00  0.00    +0.000 A 
BRANCH  17  23
ATOM     23  O   UNL     1      39.248   6.818  19.875  0.00  0.00    +0.000 OA
BRANCH  23  25
ATOM     24  C   UNL     1      37.793   8.679  20.201  0.00  0.00    +0.000 C 
ATOM     25  C   UNL     1      39.013   7.930  20.680  0.00  0.00    +0.000 C 
ENDBRANCH  23  25
ENDBRANCH  17  23
ENDBRANCH  16  22
ENDBRANCH   1  16
BRANCH   2  26
ATOM     26  S   UNL     1      37.370   7.411  14.399  0.00  0.00    +0.000 S 
BRANCH  26  27
ATOM     27  C   UNL     1      36.164   8.580  14.941  0.00  0.00    +0.000 A 
ATOM     28  C   UNL     1      36.380   9.669  15.742  0.00  0.00    +0.000 A 
ATOM     29  C   UNL     1      35.389  10.547  16.128  0.00  0.00    +0.000 A 
ATOM     30  C   UNL     1      34.083  10.372  15.718  0.00  0.00    +0.000 A 
ATOM     31  C   UNL     1      33.845   9.280  14.911  0.00  0.00    +0.000 A 
ATOM     32  C   UNL     1      34.834   8.412  14.531  0.00  0.00    +0.000 A 
ENDBRANCH  26  27
ENDBRANCH   2  26
TORSDOF 8
ENDMDL
MODEL 7
REMARK VINA RESULT:      -7.1      1.563      2.122
REMARK  Name = 
REMARK  8 active torsions:
REMARK  status: ('A' for Active; 'I' for Inactive)
REMARK    1  A    between atoms: C_2  and  O_3
REMARK    2  A    between atoms: O_3  and  C_4
REMARK    3  A    between atoms: C_9  and  N_10
REMARK    4  A    between atoms: N_10  and  C_11
REMARK    5  A    between atoms: C_12  and  S_13
REMARK    6  A    between atoms: S_13  and  C_14
REMARK    7  A    between atoms: N_22  and  C_23
REMARK    8  A    between atoms: C_26  and  C_27
REMARK                            x       y       z     vdW  Elec       q    Type
REMARK                         _______ _______ _______ _____ _____    ______ ____
ROOT
ATOM      1  C   UNL     1      37.949   5.635  16.091  0.00  0.00    +0.000 C 
ATOM      2  C   UNL     1      37.144   5.775  15.027  0.00  0.00    +0.000 C 
ATOM      3  C   UNL     1      36.434   4.526  14.848  0.00  0.00    +0.000 C 
ATOM      4  O   UNL     1      35.582   4.217  13.972  0.00  0.00    +0.000 OA
ATOM      5  N   UNL     1      36.848   3.589  15.874  0.00  0.00    +0.000 N 
ATOM      6  C   UNL     1      37.797   4.304  16.641  0.00  0.00    +0.000 C 
ATOM      7  O   UNL     1      38.397   3.833  17.640  0.00  0.00    +0.000 OA
ENDROOT
BRANCH   5   8
ATOM      8  C   UNL     1      36.392   2.257  16.053  0.00  0.00    +0.000 A 
ATOM      9  C   UNL     1      37.068   1.193  15.498  0.00  0.00    +0.000 A 
ATOM     10  C   UNL     1      36.631  -0.102  15.669  0.00  0.00    +0.000 A 
ATOM     11  C   UNL     1      35.495  -0.356  16.407  0.00  0.00    +0.000 A 
ATOM     12  C   UNL     1      34.814   0.709  16.965  0.00  0.00    +0.000 A 
ATOM     13  C   UNL     1      35.260   1.998  16.788  0.00  0.00    +0.000 A 
BRANCH  11  14
ATOM     14  C   UNL     1      34.982  -1.752  16.620  0.00  0.00    +0.000 C 
ATOM     15  C   UNL     1      36.089  -2.665  17.099  0.00  0.00    +0.000 C 
ENDBRANCH  11  14
ENDBRANCH   5   8
BRANCH   1  16
ATOM     16  N   UNL     1      38.830   6.608  16.636  0.00  0.00    +0.000 NA
BRANCH  16  22
ATOM     17  C   UNL     1      39.540   6.921  18.923  0.00  0.00    +0.000 A 
ATOM     18  C   UNL     1      39.392   7.459  20.174  0.00  0.00    +0.000 A 
ATOM     19  C   UNL     1      38.314   8.282  20.421  0.00  0.00    +0.000 A 
ATOM     20  C   UNL     1      37.390   8.573  19.443  0.00  0.00    +0.000 A 
ATOM     21  C   UNL     1      37.568   8.015  18.198  0.00  0.00    +0.000 A 
ATOM     22  C   UNL     1      38.632   7.190  17.919  0.00  0.00    +0.000 A 
BRANCH  17  23
ATOM     23  O   UNL     1      40.602   6.097  18.644  0.00  0.00    +0.000 OA
BRANCH  23  25
ATOM     24  C   UNL     1      42.446   6.536  17.196  0.00  0.00    +0.000 C 
ATOM     25  C   UNL     1      41.942   6.480  18.618  0.00  0.00    +0.000 C 
ENDBRANCH  23  25
ENDBRANCH  17  23
ENDBRANCH  16  22
ENDBRANCH   1  16
BRANCH   2  26
ATOM     26  S   UNL     1      37.062   7.260  14.107  0.00  0.00    +0.000 S 
BRANCH  26  27
ATOM     27  C   UNL     1      36.058   7.214  12.656  0.00  0.00    +0.000 A 
ATOM     28  C   UNL     1      36.473   6.939  11.381  0.00  0.00    +0.000 A 
ATOM     29  C   UNL     1      35.632   6.918  10.288  0.00  0.00    +0.000 A 
ATOM     30  C   UNL     1      34.284   7.180  10.420  0.00  0.00    +0.000 A 
ATOM     31  C   UNL     1      33.847   7.459  11.697  0.00  0.00    +0.000 A 
ATOM     32  C   UNL     1      34.686   7.479  12.779  0.00  0.00    +0.000 A 
ENDBRANCH  26  27
ENDBRANCH   2  26
TORSDOF 8
ENDMDL
MODEL 8
REMARK VINA RESULT:      -7.1      2.590      7.004
REMARK  Name = 
REMARK  8 active torsions:
REMARK  status: ('A' for Active; 'I' for Inactive)
REMARK    1  A    between atoms: C_2  and  O_3
REMARK    2  A    between atoms: O_3  and  C_4
REMARK    3  A    between atoms: C_9  and  N_10
REMARK    4  A    between atoms: N_10  and  C_11
REMARK    5  A    between atoms: C_12  and  S_13
REMARK    6  A    between atoms: S_13  and  C_14
REMARK    7  A    between atoms: N_22  and  C_23
REMARK    8  A    between atoms: C_26  and  C_27
REMARK                            x       y       z     vdW  Elec       q    Type
REMARK                         _______ _______ _______ _____ _____    ______ ____
ROOT
ATOM      1  C   UNL     1      36.880   4.299  14.911  0.00  0.00    +0.000 C 
ATOM      2  C   UNL     1      36.569   5.596  14.767  0.00  0.00    +0.000 C 
ATOM      3  C   UNL     1      37.528   6.364  15.532  0.00  0.00    +0.000 C 
ATOM      4  O   UNL     1      37.609   7.614  15.677  0.00  0.00    +0.000 OA
ATOM      5  N   UNL     1      38.467   5.460  16.167  0.00  0.00    +0.000 N 
ATOM      6  C   UNL     1      38.043   4.172  15.765  0.00  0.00    +0.000 C 
ATOM      7  O   UNL     1      38.606   3.103  16.109  0.00  0.00    +0.000 OA
ENDROOT
BRANCH   5   8
ATOM      8  C   UNL     1      39.561   5.807  17.002  0.00  0.00    +0.000 A 
ATOM      9  C   UNL     1      40.790   6.125  16.469  0.00  0.00    +0.000 A 
ATOM     10  C   UNL     1      41.856   6.464  17.273  0.00  0.00    +0.000 A 
ATOM     11  C   UNL     1      41.706   6.490  18.644  0.00  0.00    +0.000 A 
ATOM     12  C   UNL     1      40.473   6.171  19.182  0.00  0.00    +0.000 A 
ATOM     13  C   UNL     1      39.417   5.835  18.369  0.00  0.00    +0.000 A 
BRANCH  11  14
ATOM     14  C   UNL     1      42.839   6.853  19.560  0.00  0.00    +0.000 C 
ATOM     15  C   UNL     1      42.693   6.162  20.897  0.00  0.00    +0.000 C 
ENDBRANCH  11  14
ENDBRANCH   5   8
BRANCH   1  16
ATOM     16  N   UNL     1      36.210   3.185  14.335  0.00  0.00    +0.000 NA
BRANCH  16  22
ATOM     17  C   UNL     1      36.375   0.803  14.698  0.00  0.00    +0.000 A 
ATOM     18  C   UNL     1      36.072  -0.340  15.389  0.00  0.00    +0.000 A 
ATOM     19  C   UNL     1      35.242  -0.254  16.486  0.00  0.00    +0.000 A 
ATOM     20  C   UNL     1      34.716   0.948  16.900  0.00  0.00    +0.000 A 
ATOM     21  C   UNL     1      35.040   2.077  16.183  0.00  0.00    +0.000 A 
ATOM     22  C   UNL     1      35.865   2.026  15.084  0.00  0.00    +0.000 A 
BRANCH  17  23
ATOM     23  O   UNL     1      37.199   0.753  13.601  0.00  0.00    +0.000 OA
BRANCH  23  25
ATOM     24  C   UNL     1      39.473   0.377  14.214  0.00  0.00    +0.000 C 
ATOM     25  C   UNL     1      38.276  -0.114  13.434  0.00  0.00    +0.000 C 
ENDBRANCH  23  25
ENDBRANCH  17  23
ENDBRANCH  16  22
ENDBRANCH   1  16
BRANCH   2  26
ATOM     26  S   UNL     1      35.215   6.129  13.796  0.00  0.00    +0.000 S 
BRANCH  26  27
ATOM     27  C   UNL     1      35.459   6.095  12.049  0.00  0.00    +0.000 A 
ATOM     28  C   UNL     1      36.349   5.314  11.361  0.00  0.00    +0.000 A 
ATOM     29  C   UNL     1      36.488   5.335   9.989  0.00  0.00    +0.000 A 
ATOM     30  C   UNL     1      35.716   6.170   9.207  0.00  0.00    +0.000 A 
ATOM     31  C   UNL     1      34.815   6.965   9.882  0.00  0.00    +0.000 A 
ATOM     32  C   UNL     1      34.681   6.939  11.244  0.00  0.00    +0.000 A 
ENDBRANCH  26  27
ENDBRANCH   2  26
TORSDOF 8
ENDMDL
MODEL 9
REMARK VINA RESULT:      -7.1      2.028      6.664
REMARK  Name = 
REMARK  8 active torsions:
REMARK  status: ('A' for Active; 'I' for Inactive)
REMARK    1  A    between atoms: C_2  and  O_3
REMARK    2  A    between atoms: O_3  and  C_4
REMARK    3  A    between atoms: C_9  and  N_10
REMARK    4  A    between atoms: N_10  and  C_11
REMARK    5  A    between atoms: C_12  and  S_13
REMARK    6  A    between atoms: S_13  and  C_14
REMARK    7  A    between atoms: N_22  and  C_23
REMARK    8  A    between atoms: C_26  and  C_27
REMARK                            x       y       z     vdW  Elec       q    Type
REMARK                         _______ _______ _______ _____ _____    ______ ____
ROOT
ATOM      1  C   UNL     1      36.838   4.246  14.828  0.00  0.00    +0.000 C 
ATOM      2  C   UNL     1      36.556   5.542  14.632  0.00  0.00    +0.000 C 
ATOM      3  C   UNL     1      37.515   6.319  15.388  0.00  0.00    +0.000 C 
ATOM      4  O   UNL     1      37.617   7.571  15.489  0.00  0.00    +0.000 OA
ATOM      5  N   UNL     1      38.422   5.421  16.074  0.00  0.00    +0.000 N 
ATOM      6  C   UNL     1      37.981   4.128  15.711  0.00  0.00    +0.000 C 
ATOM      7  O   UNL     1      38.516   3.061  16.105  0.00  0.00    +0.000 OA
ENDROOT
BRANCH   5   8
ATOM      8  C   UNL     1      39.506   5.778  16.919  0.00  0.00    +0.000 A 
ATOM      9  C   UNL     1      40.736   6.110  16.396  0.00  0.00    +0.000 A 
ATOM     10  C   UNL     1      41.791   6.458  17.210  0.00  0.00    +0.000 A 
ATOM     11  C   UNL     1      41.630   6.479  18.579  0.00  0.00    +0.000 A 
ATOM     12  C   UNL     1      40.397   6.147  19.107  0.00  0.00    +0.000 A 
ATOM     13  C   UNL     1      39.350   5.801  18.284  0.00  0.00    +0.000 A 
BRANCH  11  14
ATOM     14  C   UNL     1      42.752   6.853  19.505  0.00  0.00    +0.000 C 
ATOM     15  C   UNL     1      42.611   6.145  20.834  0.00  0.00    +0.000 C 
ENDBRANCH  11  14
ENDBRANCH   5   8
BRANCH   1  16
ATOM     16  N   UNL     1      36.158   3.124  14.280  0.00  0.00    +0.000 NA
BRANCH  16  22
ATOM     17  C   UNL     1      36.300   0.742  14.653  0.00  0.00    +0.000 A 
ATOM     18  C   UNL     1      36.007  -0.391  15.364  0.00  0.00    +0.000 A 
ATOM     19  C   UNL     1      35.224  -0.285  16.493  0.00  0.00    +0.000 A 
ATOM     20  C   UNL     1      34.734   0.928  16.919  0.00  0.00    +0.000 A 
ATOM     21  C   UNL     1      35.047   2.047  16.182  0.00  0.00    +0.000 A 
ATOM     22  C   UNL     1      35.825   1.975  15.050  0.00  0.00    +0.000 A 
BRANCH  17  23
ATOM     23  O   UNL     1      37.077   0.671  13.523  0.00  0.00    +0.000 OA
BRANCH  23  25
ATOM     24  C   UNL     1      39.090  -0.604  13.420  0.00  0.00    +0.000 C 
ATOM     25  C   UNL     1      37.644  -0.489  13.000  0.00  0.00    +0.000 C 
ENDBRANCH  23  25
ENDBRANCH  17  23
ENDBRANCH  16  22
ENDBRANCH   1  16
BRANCH   2  26
ATOM     26  S   UNL     1      35.232   6.065  13.614  0.00  0.00    +0.000 S 
BRANCH  26  27
ATOM     27  C   UNL     1      34.821   7.778  13.705  0.00  0.00    +0.000 A 
ATOM     28  C   UNL     1      35.122   8.744  12.782  0.00  0.00    +0.000 A 
ATOM     29  C   UNL     1      34.768  10.070  12.914  0.00  0.00    +0.000 A 
ATOM     30  C   UNL     1      34.070  10.514  14.018  0.00  0.00    +0.000 A 
ATOM     31  C   UNL     1      33.758   9.557  14.960  0.00  0.00    +0.000 A 
ATOM     32  C   UNL     1      34.112   8.242  14.823  0.00  0.00    +0.000 A 
ENDBRANCH  26  27
ENDBRANCH   2  26
TORSDOF 8
ENDMDL
MODEL 10
REMARK VINA RESULT:      -7.0      4.586      7.380
REMARK  Name = 
REMARK  8 active torsions:
REMARK  status: ('A' for Active; 'I' for Inactive)
REMARK    1  A    between atoms: C_2  and  O_3
REMARK    2  A    between atoms: O_3  and  C_4
REMARK    3  A    between atoms: C_9  and  N_10
REMARK    4  A    between atoms: N_10  and  C_11
REMARK    5  A    between atoms: C_12  and  S_13
REMARK    6  A    between atoms: S_13  and  C_14
REMARK    7  A    between atoms: N_22  and  C_23
REMARK    8  A    between atoms: C_26  and  C_27
REMARK                            x       y       z     vdW  Elec       q    Type
REMARK                         _______ _______ _______ _____ _____    ______ ____
ROOT
ATOM      1  C   UNL     1      37.134  -0.838  15.750  0.00  0.00    +0.000 C 
ATOM      2  C   UNL     1      36.100  -0.551  16.554  0.00  0.00    +0.000 C 
ATOM      3  C   UNL     1      35.228  -1.706  16.577  0.00  0.00    +0.000 C 
ATOM      4  O   UNL     1      34.145  -1.870  17.201  0.00  0.00    +0.000 OA
ATOM      5  N   UNL     1      35.786  -2.742  15.731  0.00  0.00    +0.000 N 
ATOM      6  C   UNL     1      36.979  -2.179  15.222  0.00  0.00    +0.000 C 
ATOM      7  O   UNL     1      37.762  -2.770  14.439  0.00  0.00    +0.000 OA
ENDROOT
BRANCH   5   8
ATOM      8  C   UNL     1      35.242  -4.030  15.480  0.00  0.00    +0.000 A 
ATOM      9  C   UNL     1      34.233  -4.209  14.560  0.00  0.00    +0.000 A 
ATOM     10  C   UNL     1      33.702  -5.455  14.312  0.00  0.00    +0.000 A 
ATOM     11  C   UNL     1      34.178  -6.557  14.990  0.00  0.00    +0.000 A 
ATOM     12  C   UNL     1      35.191  -6.381  15.914  0.00  0.00    +0.000 A 
ATOM     13  C   UNL     1      35.714  -5.131  16.154  0.00  0.00    +0.000 A 
BRANCH  11  14
ATOM     14  C   UNL     1      33.630  -7.934  14.751  0.00  0.00    +0.000 C 
ATOM     15  C   UNL     1      33.968  -8.415  13.358  0.00  0.00    +0.000 C 
ENDBRANCH  11  14
ENDBRANCH   5   8
BRANCH   1  16
ATOM     16  N   UNL     1      38.236   0.002  15.432  0.00  0.00    +0.000 NA
BRANCH  16  22
ATOM     17  C   UNL     1      39.669   0.832  13.674  0.00  0.00    +0.000 A 
ATOM     18  C   UNL     1      39.871   1.414  12.451  0.00  0.00    +0.000 A 
ATOM     19  C   UNL     1      38.776   1.781  11.699  0.00  0.00    +0.000 A 
ATOM     20  C   UNL     1      37.491   1.575  12.148  0.00  0.00    +0.000 A 
ATOM     21  C   UNL     1      37.323   0.988  13.381  0.00  0.00    +0.000 A 
ATOM     22  C   UNL     1      38.395   0.611  14.157  0.00  0.00    +0.000 A 
BRANCH  17  23
ATOM     23  O   UNL     1      40.738   0.455  14.448  0.00  0.00    +0.000 OA
BRANCH  23  25
ATOM     24  C   UNL     1      41.274  -1.867  14.543  0.00  0.00    +0.000 C 
ATOM     25  C   UNL     1      41.701  -0.488  14.098  0.00  0.00    +0.000 C 
ENDBRANCH  23  25
ENDBRANCH  17  23
ENDBRANCH  16  22
ENDBRANCH   1  16
BRANCH   2  26
ATOM     26  S   UNL     1      35.954   0.989  17.373  0.00  0.00    +0.000 S 
BRANCH  26  27
ATOM     27  C   UNL     1      35.972   2.417  16.337  0.00  0.00    +0.000 A 
ATOM     28  C   UNL     1      36.991   3.323  16.209  0.00  0.00    +0.000 A 
ATOM     29  C   UNL     1      36.941   4.421  15.376  0.00  0.00    +0.000 A 
ATOM     30  C   UNL     1      35.829   4.678  14.601  0.00  0.00    +0.000 A 
ATOM     31  C   UNL     1      34.793   3.777  14.717  0.00  0.00    +0.000 A 
ATOM     32  C   UNL     1      34.848   2.689  15.545  0.00  0.00    +0.000 A 
ENDBRANCH  26  27
ENDBRANCH   2  26
TORSDOF 8
ENDMDL
