MODEL 1
REMARK VINA RESULT:      -8.2      0.000      0.000
REMARK  Name = 
REMARK  7 active torsions:
REMARK  status: ('A' for Active; 'I' for Inactive)
REMARK    1  A    between atoms: C_2  and  C_4
REMARK    2  A    between atoms: C_4  and  C_5
REMARK    3  A    between atoms: C_5  and  N_6
REMARK    4  A    between atoms: C_9  and  C_10
REMARK    5  A    between atoms: N_12  and  C_13
REMARK    6  A    between atoms: C_13  and  C_14
REMARK    7  A    between atoms: C_14  and  C_15
REMARK                            x       y       z     vdW  Elec       q    Type
REMARK                         _______ _______ _______ _____ _____    ______ ____
ROOT
ATOM      1  N   UNL     1      39.134   0.620  13.917  0.00  0.00    +0.000 N 
ATOM      2  C   UNL     1      39.365   1.922  14.097  0.00  0.00    +0.000 A 
ATOM      3  N   UNL     1      40.388   2.737  13.517  0.00  0.00    +0.000 NA
ATOM      4  C   UNL     1      38.415   2.383  14.975  0.00  0.00    +0.000 A 
ATOM      5  C   UNL     1      37.617   1.316  15.306  0.00  0.00    +0.000 A 
ATOM      6  N   UNL     1      36.536   1.198  16.126  0.00  0.00    +0.000 NA
ATOM      7  C   UNL     1      35.939   0.015  16.267  0.00  0.00    +0.000 A 
ATOM      8  C   UNL     1      34.840  -0.097  17.102  0.00  0.00    +0.000 A 
ATOM      9  C   UNL     1      34.170  -1.288  17.299  0.00  0.00    +0.000 A 
ATOM     10  C   UNL     1      34.649  -2.390  16.615  0.00  0.00    +0.000 A 
ATOM     11  C   UNL     1      35.747  -2.312  15.771  0.00  0.00    +0.000 A 
ATOM     12  C   UNL     1      36.389  -1.100  15.603  0.00  0.00    +0.000 A 
ATOM     13  N   UNL     1      37.470  -0.965  14.788  0.00  0.00    +0.000 NA
ATOM     14  C   UNL     1      38.077   0.215  14.638  0.00  0.00    +0.000 A 
ENDROOT
BRANCH   4  15
ATOM     15  C   UNL     1      38.274   3.755  15.467  0.00  0.00    +0.000 C 
ATOM     16  O   UNL     1      37.912   4.656  14.674  0.00  0.00    +0.000 OA
ATOM     17  N   UNL     1      38.541   4.058  16.812  0.00  0.00    +0.000 NA
BRANCH  17  18
ATOM     18  C   UNL     1      38.415   5.401  17.342  0.00  0.00    +0.000 C 
BRANCH  18  19
ATOM     19  C   UNL     1      38.963   5.424  18.762  0.00  0.00    +0.000 C 
BRANCH  19  20
ATOM     20  C   UNL     1      40.342   5.964  18.783  0.00  0.00    +0.000 A 
ATOM     21  C   UNL     1      40.896   6.252  20.005  0.00  0.00    +0.000 A 
ATOM     22  C   UNL     1      42.171   6.756  20.113  0.00  0.00    +0.000 A 
ATOM     23  C   UNL     1      42.885   6.967  18.959  0.00  0.00    +0.000 A 
ATOM     24  C   UNL     1      42.363   6.690  17.721  0.00  0.00    +0.000 A 
ATOM     25  C   UNL     1      41.082   6.185  17.641  0.00  0.00    +0.000 A 
ENDBRANCH  19  20
ENDBRANCH  18  19
ENDBRANCH  17  18
ENDBRANCH   4  15
BRANCH   1  26
ATOM     26  C   UNL     1      39.944  -0.226  13.043  0.00  0.00    +0.000 C 
BRANCH  26  27
ATOM     27  C   UNL     1      41.002  -0.859  13.947  0.00  0.00    +0.000 C 
BRANCH  27  29
ATOM     28  C   UNL     1      39.952  -2.857  12.848  0.00  0.00    +0.000 C 
ATOM     29  C   UNL     1      40.913  -2.356  13.888  0.00  0.00    +0.000 C 
ATOM     30  C   UNL     1      40.465  -2.862  15.243  0.00  0.00    +0.000 C 
ENDBRANCH  27  29
ENDBRANCH  26  27
ENDBRANCH   1  26
TORSDOF 7
ENDMDL
MODEL 2
REMARK VINA RESULT:      -8.2      1.570      4.453
REMARK  Name = 
REMARK  7 active torsions:
REMARK  status: ('A' for Active; 'I' for Inactive)
REMARK    1  A    between atoms: C_2  and  C_4
REMARK    2  A    between atoms: C_4  and  C_5
REMARK    3  A    between atoms: C_5  and  N_6
REMARK    4  A    between atoms: C_9  and  C_10
REMARK    5  A    between atoms: N_12  and  C_13
REMARK    6  A    between atoms: C_13  and  C_14
REMARK    7  A    between atoms: C_14  and  C_15
REMARK                            x       y       z     vdW  Elec       q    Type
REMARK                         _______ _______ _______ _____ _____    ______ ____
ROOT
ATOM      1  N   UNL     1      36.363  -1.415  16.499  0.00  0.00    +0.000 N 
ATOM      2  C   UNL     1      35.854  -0.188  16.633  0.00  0.00    +0.000 A 
ATOM      3  N   UNL     1      34.599   0.201  17.199  0.00  0.00    +0.000 NA
ATOM      4  C   UNL     1      36.772   0.690  16.113  0.00  0.00    +0.000 A 
ATOM      5  C   UNL     1      37.838  -0.054  15.671  0.00  0.00    +0.000 A 
ATOM      6  N   UNL     1      39.015   0.291  15.076  0.00  0.00    +0.000 NA
ATOM      7  C   UNL     1      39.890  -0.657  14.743  0.00  0.00    +0.000 A 
ATOM      8  C   UNL     1      41.084  -0.298  14.139  0.00  0.00    +0.000 A 
ATOM      9  C   UNL     1      42.039  -1.222  13.765  0.00  0.00    +0.000 A 
ATOM     10  C   UNL     1      41.752  -2.550  14.022  0.00  0.00    +0.000 A 
ATOM     11  C   UNL     1      40.566  -2.943  14.626  0.00  0.00    +0.000 A 
ATOM     12  C   UNL     1      39.636  -1.985  14.984  0.00  0.00    +0.000 A 
ATOM     13  N   UNL     1      38.457  -2.312  15.578  0.00  0.00    +0.000 NA
ATOM     14  C   UNL     1      37.572  -1.373  15.917  0.00  0.00    +0.000 A 
ENDROOT
BRANCH   4  15
ATOM     15  C   UNL     1      36.645   2.147  16.043  0.00  0.00    +0.000 C 
ATOM     16  O   UNL     1      35.734   2.649  15.343  0.00  0.00    +0.000 OA
ATOM     17  N   UNL     1      37.533   2.972  16.752  0.00  0.00    +0.000 NA
BRANCH  17  18
ATOM     18  C   UNL     1      37.444   4.418  16.711  0.00  0.00    +0.000 C 
BRANCH  18  19
ATOM     19  C   UNL     1      38.729   4.973  16.112  0.00  0.00    +0.000 C 
BRANCH  19  20
ATOM     20  C   UNL     1      39.597   5.542  17.168  0.00  0.00    +0.000 A 
ATOM     21  C   UNL     1      39.103   5.582  18.448  0.00  0.00    +0.000 A 
ATOM     22  C   UNL     1      39.844   6.094  19.487  0.00  0.00    +0.000 A 
ATOM     23  C   UNL     1      41.104   6.569  19.213  0.00  0.00    +0.000 A 
ATOM     24  C   UNL     1      41.629   6.545  17.946  0.00  0.00    +0.000 A 
ATOM     25  C   UNL     1      40.864   6.025  16.922  0.00  0.00    +0.000 A 
ENDBRANCH  19  20
ENDBRANCH  18  19
ENDBRANCH  17  18
ENDBRANCH   4  15
BRANCH   1  26
ATOM     26  C   UNL     1      35.672  -2.625  16.940  0.00  0.00    +0.000 C 
BRANCH  26  27
ATOM     27  C   UNL     1      34.627  -2.918  15.862  0.00  0.00    +0.000 C 
BRANCH  27  29
ATOM     28  C   UNL     1      33.956  -4.792  14.334  0.00  0.00    +0.000 C 
ATOM     29  C   UNL     1      35.085  -4.044  14.983  0.00  0.00    +0.000 C 
ATOM     30  C   UNL     1      35.884  -5.014  15.827  0.00  0.00    +0.000 C 
ENDBRANCH  27  29
ENDBRANCH  26  27
ENDBRANCH   1  26
TORSDOF 7
ENDMDL
MODEL 3
REMARK VINA RESULT:      -8.1      1.334      1.939
REMARK  Name = 
REMARK  7 active torsions:
REMARK  status: ('A' for Active; 'I' for Inactive)
REMARK    1  A    between atoms: C_2  and  C_4
REMARK    2  A    between atoms: C_4  and  C_5
REMARK    3  A    between atoms: C_5  and  N_6
REMARK    4  A    between atoms: C_9  and  C_10
REMARK    5  A    between atoms: N_12  and  C_13
REMARK    6  A    between atoms: C_13  and  C_14
REMARK    7  A    between atoms: C_14  and  C_15
REMARK                            x       y       z     vdW  Elec       q    Type
REMARK                         _______ _______ _______ _____ _____    ______ ____
ROOT
ATOM      1  N   UNL     1      39.123   0.499  14.011  0.00  0.00    +0.000 N 
ATOM      2  C   UNL     1      39.310   1.813  14.154  0.00  0.00    +0.000 A 
ATOM      3  N   UNL     1      40.332   2.637  13.586  0.00  0.00    +0.000 NA
ATOM      4  C   UNL     1      38.314   2.276  14.978  0.00  0.00    +0.000 A 
ATOM      5  C   UNL     1      37.533   1.198  15.315  0.00  0.00    +0.000 A 
ATOM      6  N   UNL     1      36.424   1.076  16.097  0.00  0.00    +0.000 NA
ATOM      7  C   UNL     1      35.855  -0.118  16.256  0.00  0.00    +0.000 A 
ATOM      8  C   UNL     1      34.727  -0.234  17.050  0.00  0.00    +0.000 A 
ATOM      9  C   UNL     1      34.083  -1.436  17.263  0.00  0.00    +0.000 A 
ATOM     10  C   UNL     1      34.619  -2.547  16.637  0.00  0.00    +0.000 A 
ATOM     11  C   UNL     1      35.747  -2.465  15.834  0.00  0.00    +0.000 A 
ATOM     12  C   UNL     1      36.362  -1.241  15.649  0.00  0.00    +0.000 A 
ATOM     13  N   UNL     1      37.470  -1.102  14.872  0.00  0.00    +0.000 NA
ATOM     14  C   UNL     1      38.050   0.088  14.704  0.00  0.00    +0.000 A 
ENDROOT
BRANCH   4  15
ATOM     15  C   UNL     1      38.115   3.659  15.416  0.00  0.00    +0.000 C 
ATOM     16  O   UNL     1      37.457   4.443  14.691  0.00  0.00    +0.000 OA
ATOM     17  N   UNL     1      38.655   4.103  16.634  0.00  0.00    +0.000 NA
BRANCH  17  18
ATOM     18  C   UNL     1      38.484   5.462  17.106  0.00  0.00    +0.000 C 
BRANCH  18  19
ATOM     19  C   UNL     1      39.272   5.639  18.396  0.00  0.00    +0.000 C 
BRANCH  19  20
ATOM     20  C   UNL     1      38.842   6.862  19.111  0.00  0.00    +0.000 A 
ATOM     21  C   UNL     1      37.793   7.573  18.584  0.00  0.00    +0.000 A 
ATOM     22  C   UNL     1      37.331   8.720  19.186  0.00  0.00    +0.000 A 
ATOM     23  C   UNL     1      37.949   9.143  20.338  0.00  0.00    +0.000 A 
ATOM     24  C   UNL     1      39.000   8.456  20.891  0.00  0.00    +0.000 A 
ATOM     25  C   UNL     1      39.443   7.308  20.268  0.00  0.00    +0.000 A 
ENDBRANCH  19  20
ENDBRANCH  18  19
ENDBRANCH  17  18
ENDBRANCH   4  15
BRANCH   1  26
ATOM     26  C   UNL     1      39.990  -0.352  13.200  0.00  0.00    +0.000 C 
BRANCH  26  27
ATOM     27  C   UNL     1      41.099  -0.826  14.139  0.00  0.00    +0.000 C 
BRANCH  27  29
ATOM     28  C   UNL     1      40.681  -2.929  12.834  0.00  0.00    +0.000 C 
ATOM     29  C   UNL     1      41.215  -2.322  14.099  0.00  0.00    +0.000 C 
ATOM     30  C   UNL     1      40.443  -2.892  15.271  0.00  0.00    +0.000 C 
ENDBRANCH  27  29
ENDBRANCH  26  27
ENDBRANCH   1  26
TORSDOF 7
ENDMDL
MODEL 4
REMARK VINA RESULT:      -7.9      1.310      4.218
REMARK  Name = 
REMARK  7 active torsions:
REMARK  status: ('A' for Active; 'I' for Inactive)
REMARK    1  A    between atoms: C_2  and  C_4
REMARK    2  A    between atoms: C_4  and  C_5
REMARK    3  A    between atoms: C_5  and  N_6
REMARK    4  A    between atoms: C_9  and  C_10
REMARK    5  A    between atoms: N_12  and  C_13
REMARK    6  A    between atoms: C_13  and  C_14
REMARK    7  A    between atoms: C_14  and  C_15
REMARK                            x       y       z     vdW  Elec       q    Type
REMARK                         _______ _______ _______ _____ _____    ______ ____
ROOT
ATOM      1  N   UNL     1      36.453   1.087  15.669  0.00  0.00    +0.000 N 
ATOM      2  C   UNL     1      36.599   2.397  15.457  0.00  0.00    +0.000 A 
ATOM      3  N   UNL     1      35.636   3.442  15.625  0.00  0.00    +0.000 NA
ATOM      4  C   UNL     1      37.888   2.596  15.028  0.00  0.00    +0.000 A 
ATOM      5  C   UNL     1      38.498   1.367  14.994  0.00  0.00    +0.000 A 
ATOM      6  N   UNL     1      39.757   0.976  14.649  0.00  0.00    +0.000 NA
ATOM      7  C   UNL     1      40.089  -0.313  14.710  0.00  0.00    +0.000 A 
ATOM      8  C   UNL     1      41.370  -0.703  14.359  0.00  0.00    +0.000 A 
ATOM      9  C   UNL     1      41.788  -2.018  14.395  0.00  0.00    +0.000 A 
ATOM     10  C   UNL     1      40.856  -2.954  14.805  0.00  0.00    +0.000 A 
ATOM     11  C   UNL     1      39.564  -2.597  15.164  0.00  0.00    +0.000 A 
ATOM     12  C   UNL     1      39.188  -1.268  15.113  0.00  0.00    +0.000 A 
ATOM     13  N   UNL     1      37.935  -0.861  15.453  0.00  0.00    +0.000 NA
ATOM     14  C   UNL     1      37.590   0.427  15.397  0.00  0.00    +0.000 A 
ENDROOT
BRANCH   4  15
ATOM     15  C   UNL     1      38.502   3.877  14.674  0.00  0.00    +0.000 C 
ATOM     16  O   UNL     1      38.230   4.402  13.568  0.00  0.00    +0.000 OA
ATOM     17  N   UNL     1      39.387   4.511  15.562  0.00  0.00    +0.000 NA
BRANCH  17  18
ATOM     18  C   UNL     1      40.018   5.778  15.252  0.00  0.00    +0.000 C 
BRANCH  18  19
ATOM     19  C   UNL     1      39.544   6.822  16.254  0.00  0.00    +0.000 C 
BRANCH  19  20
ATOM     20  C   UNL     1      40.257   6.675  17.543  0.00  0.00    +0.000 A 
ATOM     21  C   UNL     1      41.629   6.724  17.522  0.00  0.00    +0.000 A 
ATOM     22  C   UNL     1      42.368   6.596  18.674  0.00  0.00    +0.000 A 
ATOM     23  C   UNL     1      41.697   6.416  19.859  0.00  0.00    +0.000 A 
ATOM     24  C   UNL     1      40.328   6.363  19.916  0.00  0.00    +0.000 A 
ATOM     25  C   UNL     1      39.610   6.494  18.746  0.00  0.00    +0.000 A 
ENDBRANCH  19  20
ENDBRANCH  18  19
ENDBRANCH  17  18
ENDBRANCH   4  15
BRANCH   1  26
ATOM     26  C   UNL     1      35.207   0.483  16.135  0.00  0.00    +0.000 C 
BRANCH  26  27
ATOM     27  C   UNL     1      35.258   0.559  17.661  0.00  0.00    +0.000 C 
BRANCH  27  29
ATOM     28  C   UNL     1      36.553  -1.269  18.794  0.00  0.00    +0.000 C 
ATOM     29  C   UNL     1      35.225  -0.819  18.255  0.00  0.00    +0.000 C 
ATOM     30  C   UNL     1      34.786  -1.791  17.181  0.00  0.00    +0.000 C 
ENDBRANCH  27  29
ENDBRANCH  26  27
ENDBRANCH   1  26
TORSDOF 7
ENDMDL
MODEL 5
REMARK VINA RESULT:      -7.8      2.968      5.839
REMARK  Name = 
REMARK  7 active torsions:
REMARK  status: ('A' for Active; 'I' for Inactive)
REMARK    1  A    between atoms: C_2  and  C_4
REMARK    2  A    between atoms: C_4  and  C_5
REMARK    3  A    between atoms: C_5  and  N_6
REMARK    4  A    between atoms: C_9  and  C_10
REMARK    5  A    between atoms: N_12  and  C_13
REMARK    6  A    between atoms: C_13  and  C_14
REMARK    7  A    between atoms: C_14  and  C_15
REMARK                            x       y       z     vdW  Elec       q    Type
REMARK                         _______ _______ _______ _____ _____    ______ ____
ROOT
ATOM      1  N   UNL     1      36.844  -2.835  16.332  0.00  0.00    +0.000 N 
ATOM      2  C   UNL     1      36.010  -1.867  16.721  0.00  0.00    +0.000 A 
ATOM      3  N   UNL     1      34.721  -1.989  17.330  0.00  0.00    +0.000 NA
ATOM      4  C   UNL     1      36.615  -0.670  16.426  0.00  0.00    +0.000 A 
ATOM      5  C   UNL     1      37.829  -0.959  15.855  0.00  0.00    +0.000 A 
ATOM      6  N   UNL     1      38.831  -0.169  15.376  0.00  0.00    +0.000 NA
ATOM      7  C   UNL     1      39.926  -0.727  14.863  0.00  0.00    +0.000 A 
ATOM      8  C   UNL     1      40.939   0.083  14.379  0.00  0.00    +0.000 A 
ATOM      9  C   UNL     1      42.102  -0.421  13.833  0.00  0.00    +0.000 A 
ATOM     10  C   UNL     1      42.220  -1.799  13.786  0.00  0.00    +0.000 A 
ATOM     11  C   UNL     1      41.223  -2.638  14.262  0.00  0.00    +0.000 A 
ATOM     12  C   UNL     1      40.075  -2.091  14.801  0.00  0.00    +0.000 A 
ATOM     13  N   UNL     1      39.066  -2.866  15.283  0.00  0.00    +0.000 NA
ATOM     14  C   UNL     1      37.963  -2.320  15.800  0.00  0.00    +0.000 A 
ENDROOT
BRANCH   4  15
ATOM     15  C   UNL     1      36.072   0.667  16.675  0.00  0.00    +0.000 C 
ATOM     16  O   UNL     1      36.359   1.255  17.745  0.00  0.00    +0.000 OA
ATOM     17  N   UNL     1      35.239   1.283  15.726  0.00  0.00    +0.000 NA
BRANCH  17  18
ATOM     18  C   UNL     1      34.679   2.604  15.932  0.00  0.00    +0.000 C 
BRANCH  18  19
ATOM     19  C   UNL     1      35.183   3.528  14.832  0.00  0.00    +0.000 C 
BRANCH  19  20
ATOM     20  C   UNL     1      36.663   3.560  14.809  0.00  0.00    +0.000 A 
ATOM     21  C   UNL     1      37.295   3.053  13.702  0.00  0.00    +0.000 A 
ATOM     22  C   UNL     1      38.667   3.045  13.601  0.00  0.00    +0.000 A 
ATOM     23  C   UNL     1      39.397   3.560  14.644  0.00  0.00    +0.000 A 
ATOM     24  C   UNL     1      38.798   4.075  15.765  0.00  0.00    +0.000 A 
ATOM     25  C   UNL     1      37.420   4.072  15.841  0.00  0.00    +0.000 A 
ENDBRANCH  19  20
ENDBRANCH  18  19
ENDBRANCH  17  18
ENDBRANCH   4  15
BRANCH   1  26
ATOM     26  C   UNL     1      36.548  -4.258  16.481  0.00  0.00    +0.000 C 
BRANCH  26  27
ATOM     27  C   UNL     1      35.929  -4.692  15.152  0.00  0.00    +0.000 C 
BRANCH  27  29
ATOM     28  C   UNL     1      34.351  -6.630  15.380  0.00  0.00    +0.000 C 
ATOM     29  C   UNL     1      34.511  -5.137  15.356  0.00  0.00    +0.000 C 
ATOM     30  C   UNL     1      33.668  -4.580  14.228  0.00  0.00    +0.000 C 
ENDBRANCH  27  29
ENDBRANCH  26  27
ENDBRANCH   1  26
TORSDOF 7
ENDMDL
MODEL 6
REMARK VINA RESULT:      -7.6      1.588      4.418
REMARK  Name = 
REMARK  7 active torsions:
REMARK  status: ('A' for Active; 'I' for Inactive)
REMARK    1  A    between atoms: C_2  and  C_4
REMARK    2  A    between atoms: C_4  and  C_5
REMARK    3  A    between atoms: C_5  and  N_6
REMARK    4  A    between atoms: C_9  and  C_10
REMARK    5  A    between atoms: N_12  and  C_13
REMARK    6  A    between atoms: C_13  and  C_14
REMARK    7  A    between atoms: C_14  and  C_15
REMARK                            x       y       z     vdW  Elec       q    Type
REMARK                         _______ _______ _______ _____ _____    ______ ____
ROOT
ATOM      1  N   UNL     1      37.540  -0.786  15.249  0.00  0.00    +0.000 N 
ATOM      2  C   UNL     1      37.075   0.460  15.373  0.00  0.00    +0.000 A 
ATOM      3  N   UNL     1      35.769   0.890  15.769  0.00  0.00    +0.000 NA
ATOM      4  C   UNL     1      38.100   1.309  15.040  0.00  0.00    +0.000 A 
ATOM      5  C   UNL     1      39.184   0.530  14.719  0.00  0.00    +0.000 A 
ATOM      6  N   UNL     1      40.451   0.838  14.322  0.00  0.00    +0.000 NA
ATOM      7  C   UNL     1      41.320  -0.140  14.069  0.00  0.00    +0.000 A 
ATOM      8  C   UNL     1      42.606   0.181  13.667  0.00  0.00    +0.000 A 
ATOM      9  C   UNL     1      43.561  -0.775  13.387  0.00  0.00    +0.000 A 
ATOM     10  C   UNL     1      43.177  -2.096  13.528  0.00  0.00    +0.000 A 
ATOM     11  C   UNL     1      41.898  -2.451  13.930  0.00  0.00    +0.000 A 
ATOM     12  C   UNL     1      40.972  -1.462  14.199  0.00  0.00    +0.000 A 
ATOM     13  N   UNL     1      39.703  -1.752  14.596  0.00  0.00    +0.000 NA
ATOM     14  C   UNL     1      38.822  -0.782  14.852  0.00  0.00    +0.000 A 
ENDROOT
BRANCH   4  15
ATOM     15  C   UNL     1      38.054   2.773  15.031  0.00  0.00    +0.000 C 
ATOM     16  O   UNL     1      37.647   3.366  14.004  0.00  0.00    +0.000 OA
ATOM     17  N   UNL     1      38.459   3.504  16.160  0.00  0.00    +0.000 NA
BRANCH  17  18
ATOM     18  C   UNL     1      38.430   4.952  16.194  0.00  0.00    +0.000 C 
BRANCH  18  19
ATOM     19  C   UNL     1      38.344   5.408  17.644  0.00  0.00    +0.000 C 
BRANCH  19  20
ATOM     20  C   UNL     1      39.669   5.849  18.135  0.00  0.00    +0.000 A 
ATOM     21  C   UNL     1      40.660   6.050  17.206  0.00  0.00    +0.000 A 
ATOM     22  C   UNL     1      41.919   6.460  17.578  0.00  0.00    +0.000 A 
ATOM     23  C   UNL     1      42.166   6.666  18.913  0.00  0.00    +0.000 A 
ATOM     24  C   UNL     1      41.200   6.475  19.868  0.00  0.00    +0.000 A 
ATOM     25  C   UNL     1      39.945   6.064  19.468  0.00  0.00    +0.000 A 
ENDBRANCH  19  20
ENDBRANCH  18  19
ENDBRANCH  17  18
ENDBRANCH   4  15
BRANCH   1  26
ATOM     26  C   UNL     1      36.734  -1.975  15.518  0.00  0.00    +0.000 C 
BRANCH  26  27
ATOM     27  C   UNL     1      36.606  -2.050  17.039  0.00  0.00    +0.000 C 
BRANCH  27  29
ATOM     28  C   UNL     1      38.386  -3.788  17.371  0.00  0.00    +0.000 C 
ATOM     29  C   UNL     1      37.930  -2.387  17.660  0.00  0.00    +0.000 C 
ATOM     30  C   UNL     1      37.810  -2.218  19.160  0.00  0.00    +0.000 C 
ENDBRANCH  27  29
ENDBRANCH  26  27
ENDBRANCH   1  26
TORSDOF 7
ENDMDL
MODEL 7
REMARK VINA RESULT:      -7.4      3.940      6.300
REMARK  Name = 
REMARK  7 active torsions:
REMARK  status: ('A' for Active; 'I' for Inactive)
REMARK    1  A    between atoms: C_2  and  C_4
REMARK    2  A    between atoms: C_4  and  C_5
REMARK    3  A    between atoms: C_5  and  N_6
REMARK    4  A    between atoms: C_9  and  C_10
REMARK    5  A    between atoms: N_12  and  C_13
REMARK    6  A    between atoms: C_13  and  C_14
REMARK    7  A    between atoms: C_14  and  C_15
REMARK                            x       y       z     vdW  Elec       q    Type
REMARK                         _______ _______ _______ _____ _____    ______ ____
ROOT
ATOM      1  N   UNL     1      36.390  -1.542  16.396  0.00  0.00    +0.000 N 
ATOM      2  C   UNL     1      35.769  -0.366  16.513  0.00  0.00    +0.000 A 
ATOM      3  N   UNL     1      34.462  -0.093  17.026  0.00  0.00    +0.000 NA
ATOM      4  C   UNL     1      36.628   0.594  16.037  0.00  0.00    +0.000 A 
ATOM      5  C   UNL     1      37.773  -0.050  15.637  0.00  0.00    +0.000 A 
ATOM      6  N   UNL     1      38.939   0.402  15.095  0.00  0.00    +0.000 NA
ATOM      7  C   UNL     1      39.907  -0.463  14.795  0.00  0.00    +0.000 A 
ATOM      8  C   UNL     1      41.089   0.004  14.246  0.00  0.00    +0.000 A 
ATOM      9  C   UNL     1      42.137  -0.829  13.908  0.00  0.00    +0.000 A 
ATOM     10  C   UNL     1      41.957  -2.180  14.147  0.00  0.00    +0.000 A 
ATOM     11  C   UNL     1      40.786  -2.680  14.697  0.00  0.00    +0.000 A 
ATOM     12  C   UNL     1      39.761  -1.810  15.019  0.00  0.00    +0.000 A 
ATOM     13  N   UNL     1      38.592  -2.244  15.561  0.00  0.00    +0.000 NA
ATOM     14  C   UNL     1      37.613  -1.389  15.866  0.00  0.00    +0.000 A 
ENDROOT
BRANCH   4  15
ATOM     15  C   UNL     1      36.376   2.035  15.968  0.00  0.00    +0.000 C 
ATOM     16  O   UNL     1      36.824   2.778  16.873  0.00  0.00    +0.000 OA
ATOM     17  N   UNL     1      35.642   2.577  14.901  0.00  0.00    +0.000 NA
BRANCH  17  18
ATOM     18  C   UNL     1      35.368   3.996  14.794  0.00  0.00    +0.000 C 
BRANCH  18  19
ATOM     19  C   UNL     1      36.283   4.595  13.735  0.00  0.00    +0.000 C 
BRANCH  19  20
ATOM     20  C   UNL     1      35.546   5.562  12.890  0.00  0.00    +0.000 A 
ATOM     21  C   UNL     1      34.498   6.240  13.462  0.00  0.00    +0.000 A 
ATOM     22  C   UNL     1      33.761   7.155  12.747  0.00  0.00    +0.000 A 
ATOM     23  C   UNL     1      34.100   7.378  11.435  0.00  0.00    +0.000 A 
ATOM     24  C   UNL     1      35.141   6.718  10.832  0.00  0.00    +0.000 A 
ATOM     25  C   UNL     1      35.864   5.805  11.571  0.00  0.00    +0.000 A 
ENDBRANCH  19  20
ENDBRANCH  18  19
ENDBRANCH  17  18
ENDBRANCH   4  15
BRANCH   1  26
ATOM     26  C   UNL     1      35.789  -2.811  16.800  0.00  0.00    +0.000 C 
BRANCH  26  27
ATOM     27  C   UNL     1      35.045  -3.327  15.568  0.00  0.00    +0.000 C 
BRANCH  27  29
ATOM     28  C   UNL     1      34.460  -5.700  14.997  0.00  0.00    +0.000 C 
ATOM     29  C   UNL     1      35.552  -4.686  15.182  0.00  0.00    +0.000 C 
ATOM     30  C   UNL     1      36.485  -5.174  16.269  0.00  0.00    +0.000 C 
ENDBRANCH  27  29
ENDBRANCH  26  27
ENDBRANCH   1  26
TORSDOF 7
ENDMDL
MODEL 8
REMARK VINA RESULT:      -7.4      1.634      2.483
REMARK  Name = 
REMARK  7 active torsions:
REMARK  status: ('A' for Active; 'I' for Inactive)
REMARK    1  A    between atoms: C_2  and  C_4
REMARK    2  A    between atoms: C_4  and  C_5
REMARK    3  A    between atoms: C_5  and  N_6
REMARK    4  A    between atoms: C_9  and  C_10
REMARK    5  A    between atoms: N_12  and  C_13
REMARK    6  A    between atoms: C_13  and  C_14
REMARK    7  A    between atoms: C_14  and  C_15
REMARK                            x       y       z     vdW  Elec       q    Type
REMARK                         _______ _______ _______ _____ _____    ______ ____
ROOT
ATOM      1  N   UNL     1      38.186   1.217  13.370  0.00  0.00    +0.000 N 
ATOM      2  C   UNL     1      38.445   2.470  13.751  0.00  0.00    +0.000 A 
ATOM      3  N   UNL     1      39.250   3.455  13.097  0.00  0.00    +0.000 NA
ATOM      4  C   UNL     1      37.783   2.677  14.936  0.00  0.00    +0.000 A 
ATOM      5  C   UNL     1      37.124   1.511  15.241  0.00  0.00    +0.000 A 
ATOM      6  N   UNL     1      36.325   1.154  16.286  0.00  0.00    +0.000 NA
ATOM      7  C   UNL     1      35.806  -0.072  16.332  0.00  0.00    +0.000 A 
ATOM      8  C   UNL     1      34.994  -0.427  17.396  0.00  0.00    +0.000 A 
ATOM      9  C   UNL     1      34.421  -1.677  17.514  0.00  0.00    +0.000 A 
ATOM     10  C   UNL     1      34.695  -2.583  16.506  0.00  0.00    +0.000 A 
ATOM     11  C   UNL     1      35.504  -2.259  15.426  0.00  0.00    +0.000 A 
ATOM     12  C   UNL     1      36.058  -0.996  15.348  0.00  0.00    +0.000 A 
ATOM     13  N   UNL     1      36.858  -0.624  14.312  0.00  0.00    +0.000 NA
ATOM     14  C   UNL     1      37.384   0.602  14.253  0.00  0.00    +0.000 A 
ENDROOT
BRANCH   4  15
ATOM     15  C   UNL     1      37.775   3.908  15.728  0.00  0.00    +0.000 C 
ATOM     16  O   UNL     1      37.044   4.862  15.370  0.00  0.00    +0.000 OA
ATOM     17  N   UNL     1      38.576   4.020  16.876  0.00  0.00    +0.000 NA
BRANCH  17  18
ATOM     18  C   UNL     1      38.600   5.219  17.689  0.00  0.00    +0.000 C 
BRANCH  18  19
ATOM     19  C   UNL     1      39.698   6.140  17.175  0.00  0.00    +0.000 C 
BRANCH  19  20
ATOM     20  C   UNL     1      40.759   6.309  18.193  0.00  0.00    +0.000 A 
ATOM     21  C   UNL     1      40.400   6.206  19.514  0.00  0.00    +0.000 A 
ATOM     22  C   UNL     1      41.324   6.350  20.521  0.00  0.00    +0.000 A 
ATOM     23  C   UNL     1      42.629   6.603  20.174  0.00  0.00    +0.000 A 
ATOM     24  C   UNL     1      43.023   6.713  18.865  0.00  0.00    +0.000 A 
ATOM     25  C   UNL     1      42.076   6.563  17.873  0.00  0.00    +0.000 A 
ENDBRANCH  19  20
ENDBRANCH  18  19
ENDBRANCH  17  18
ENDBRANCH   4  15
BRANCH   1  26
ATOM     26  C   UNL     1      38.720   0.623  12.146  0.00  0.00    +0.000 C 
BRANCH  26  27
ATOM     27  C   UNL     1      37.585   0.695  11.124  0.00  0.00    +0.000 C 
BRANCH  27  29
ATOM     28  C   UNL     1      39.478   1.769   9.874  0.00  0.00    +0.000 C 
ATOM     29  C   UNL     1      37.999   1.517   9.939  0.00  0.00    +0.000 C 
ATOM     30  C   UNL     1      37.285   2.850  10.009  0.00  0.00    +0.000 C 
ENDBRANCH  27  29
ENDBRANCH  26  27
ENDBRANCH   1  26
TORSDOF 7
ENDMDL
MODEL 9
REMARK VINA RESULT:      -7.3      2.535      7.521
REMARK  Name = 
REMARK  7 active torsions:
REMARK  status: ('A' for Active; 'I' for Inactive)
REMARK    1  A    between atoms: C_2  and  C_4
REMARK    2  A    between atoms: C_4  and  C_5
REMARK    3  A    between atoms: C_5  and  N_6
REMARK    4  A    between atoms: C_9  and  C_10
REMARK    5  A    between atoms: N_12  and  C_13
REMARK    6  A    between atoms: C_13  and  C_14
REMARK    7  A    between atoms: C_14  and  C_15
REMARK                            x       y       z     vdW  Elec       q    Type
REMARK                         _______ _______ _______ _____ _____    ______ ____
ROOT
ATOM      1  N   UNL     1      38.134   3.664  14.184  0.00  0.00    +0.000 N 
ATOM      2  C   UNL     1      37.169   2.803  14.518  0.00  0.00    +0.000 A 
ATOM      3  N   UNL     1      36.394   1.954  13.666  0.00  0.00    +0.000 NA
ATOM      4  C   UNL     1      37.029   2.864  15.883  0.00  0.00    +0.000 A 
ATOM      5  C   UNL     1      37.939   3.783  16.343  0.00  0.00    +0.000 A 
ATOM      6  N   UNL     1      38.233   4.237  17.594  0.00  0.00    +0.000 NA
ATOM      7  C   UNL     1      39.185   5.155  17.757  0.00  0.00    +0.000 A 
ATOM      8  C   UNL     1      39.479   5.610  19.031  0.00  0.00    +0.000 A 
ATOM      9  C   UNL     1      40.450   6.559  19.280  0.00  0.00    +0.000 A 
ATOM     10  C   UNL     1      41.135   7.049  18.183  0.00  0.00    +0.000 A 
ATOM     11  C   UNL     1      40.865   6.614  16.893  0.00  0.00    +0.000 A 
ATOM     12  C   UNL     1      39.883   5.663  16.689  0.00  0.00    +0.000 A 
ATOM     13  N   UNL     1      39.577   5.200  15.447  0.00  0.00    +0.000 NA
ATOM     14  C   UNL     1      38.626   4.280  15.270  0.00  0.00    +0.000 A 
ENDROOT
BRANCH   4  15
ATOM     15  C   UNL     1      36.089   2.093  16.699  0.00  0.00    +0.000 C 
ATOM     16  O   UNL     1      34.860   2.322  16.598  0.00  0.00    +0.000 OA
ATOM     17  N   UNL     1      36.558   1.109  17.584  0.00  0.00    +0.000 NA
BRANCH  17  18
ATOM     18  C   UNL     1      35.664   0.324  18.411  0.00  0.00    +0.000 C 
BRANCH  18  19
ATOM     19  C   UNL     1      35.417  -1.017  17.733  0.00  0.00    +0.000 C 
BRANCH  19  20
ATOM     20  C   UNL     1      36.668  -1.806  17.660  0.00  0.00    +0.000 A 
ATOM     21  C   UNL     1      37.138  -2.143  16.414  0.00  0.00    +0.000 A 
ATOM     22  C   UNL     1      38.292  -2.873  16.258  0.00  0.00    +0.000 A 
ATOM     23  C   UNL     1      38.972  -3.263  17.386  0.00  0.00    +0.000 A 
ATOM     24  C   UNL     1      38.531  -2.944  18.645  0.00  0.00    +0.000 A 
ATOM     25  C   UNL     1      37.371  -2.209  18.775  0.00  0.00    +0.000 A 
ENDBRANCH  19  20
ENDBRANCH  18  19
ENDBRANCH  17  18
ENDBRANCH   4  15
BRANCH   1  26
ATOM     26  C   UNL     1      38.572   3.883  12.807  0.00  0.00    +0.000 C 
BRANCH  26  27
ATOM     27  C   UNL     1      37.943   5.210  12.381  0.00  0.00    +0.000 C 
BRANCH  27  29
ATOM     28  C   UNL     1      36.435   5.426  10.386  0.00  0.00    +0.000 C 
ATOM     29  C   UNL     1      36.573   4.981  11.813  0.00  0.00    +0.000 C 
ATOM     30  C   UNL     1      35.574   5.746  12.656  0.00  0.00    +0.000 C 
ENDBRANCH  27  29
ENDBRANCH  26  27
ENDBRANCH   1  26
TORSDOF 7
ENDMDL
MODEL 10
REMARK VINA RESULT:      -7.3      2.870      7.873
REMARK  Name = 
REMARK  7 active torsions:
REMARK  status: ('A' for Active; 'I' for Inactive)
REMARK    1  A    between atoms: C_2  and  C_4
REMARK    2  A    between atoms: C_4  and  C_5
REMARK    3  A    between atoms: C_5  and  N_6
REMARK    4  A    between atoms: C_9  and  C_10
REMARK    5  A    between atoms: N_12  and  C_13
REMARK    6  A    between atoms: C_13  and  C_14
REMARK    7  A    between atoms: C_14  and  C_15
REMARK                            x       y       z     vdW  Elec       q    Type
REMARK                         _______ _______ _______ _____ _____    ______ ____
ROOT
ATOM      1  N   UNL     1      37.297   5.231  13.717  0.00  0.00    +0.000 N 
ATOM      2  C   UNL     1      37.455   3.937  13.429  0.00  0.00    +0.000 A 
ATOM      3  N   UNL     1      37.123   3.243  12.223  0.00  0.00    +0.000 NA
ATOM      4  C   UNL     1      38.014   3.343  14.533  0.00  0.00    +0.000 A 
ATOM      5  C   UNL     1      38.184   4.323  15.479  0.00  0.00    +0.000 A 
ATOM      6  N   UNL     1      38.688   4.300  16.745  0.00  0.00    +0.000 NA
ATOM      7  C   UNL     1      38.735   5.425  17.458  0.00  0.00    +0.000 A 
ATOM      8  C   UNL     1      39.250   5.394  18.743  0.00  0.00    +0.000 A 
ATOM      9  C   UNL     1      39.331   6.516  19.542  0.00  0.00    +0.000 A 
ATOM     10  C   UNL     1      38.868   7.701  18.998  0.00  0.00    +0.000 A 
ATOM     11  C   UNL     1      38.347   7.766  17.714  0.00  0.00    +0.000 A 
ATOM     12  C   UNL     1      38.284   6.618  16.948  0.00  0.00    +0.000 A 
ATOM     13  N   UNL     1      37.783   6.623  15.683  0.00  0.00    +0.000 NA
ATOM     14  C   UNL     1      37.731   5.503  14.958  0.00  0.00    +0.000 A 
ENDROOT
BRANCH   4  15
ATOM     15  C   UNL     1      38.368   1.929  14.678  0.00  0.00    +0.000 C 
ATOM     16  O   UNL     1      39.559   1.617  14.917  0.00  0.00    +0.000 OA
ATOM     17  N   UNL     1      37.385   0.934  14.552  0.00  0.00    +0.000 NA
BRANCH  17  18
ATOM     18  C   UNL     1      37.690  -0.476  14.687  0.00  0.00    +0.000 C 
BRANCH  18  19
ATOM     19  C   UNL     1      36.488  -1.184  15.296  0.00  0.00    +0.000 C 
BRANCH  19  20
ATOM     20  C   UNL     1      36.513  -1.085  16.773  0.00  0.00    +0.000 A 
ATOM     21  C   UNL     1      37.518  -1.743  17.440  0.00  0.00    +0.000 A 
ATOM     22  C   UNL     1      37.614  -1.702  18.811  0.00  0.00    +0.000 A 
ATOM     23  C   UNL     1      36.673  -0.982  19.506  0.00  0.00    +0.000 A 
ATOM     24  C   UNL     1      35.657  -0.314  18.873  0.00  0.00    +0.000 A 
ATOM     25  C   UNL     1      35.583  -0.370  17.497  0.00  0.00    +0.000 A 
ENDBRANCH  19  20
ENDBRANCH  18  19
ENDBRANCH  17  18
ENDBRANCH   4  15
BRANCH   1  26
ATOM     26  C   UNL     1      36.726   6.198  12.782  0.00  0.00    +0.000 C 
BRANCH  26  27
ATOM     27  C   UNL     1      35.212   5.992  12.850  0.00  0.00    +0.000 C 
BRANCH  27  29
ATOM     28  C   UNL     1      35.454   8.471  13.163  0.00  0.00    +0.000 C 
ATOM     29  C   UNL     1      34.514   7.306  13.044  0.00  0.00    +0.000 C 
ATOM     30  C   UNL     1      33.685   7.223  14.308  0.00  0.00    +0.000 C 
ENDBRANCH  27  29
ENDBRANCH  26  27
ENDBRANCH   1  26
TORSDOF 7
ENDMDL
