MODEL 1
REMARK VINA RESULT:      -8.2      0.000      0.000
REMARK  Name = 
REMARK  7 active torsions:
REMARK  status: ('A' for Active; 'I' for Inactive)
REMARK    1  A    between atoms: O_2  and  C_3
REMARK    2  A    between atoms: C_6  and  C_7
REMARK    3  A    between atoms: C_9  and  C_10
REMARK    4  A    between atoms: C_17  and  C_18
REMARK    5  A    between atoms: C_18  and  C_20
REMARK    6  A    between atoms: C_27  and  O_28
REMARK    7  A    between atoms: O_28  and  C_29
REMARK                            x       y       z     vdW  Elec       q    Type
REMARK                         _______ _______ _______ _____ _____    ______ ____
ROOT
ATOM      1  C   UNL     1      37.750   2.264  15.210  0.00  0.00    +0.000 A 
ATOM      2  O   UNL     1      38.393   3.323  15.632  0.00  0.00    +0.000 OA
ATOM      3  C   UNL     1      37.812   3.895  16.628  0.00  0.00    +0.000 A 
ATOM      4  C   UNL     1      36.671   3.143  16.892  0.00  0.00    +0.000 A 
ATOM      5  C   UNL     1      36.658   2.132  15.991  0.00  0.00    +0.000 A 
ENDROOT
BRANCH   1   9
ATOM      6  C   UNL     1      39.201  -0.176  12.063  0.00  0.00    +0.000 A 
ATOM      7  C   UNL     1      37.915   0.305  12.024  0.00  0.00    +0.000 A 
ATOM      8  C   UNL     1      37.399   1.098  13.018  0.00  0.00    +0.000 A 
ATOM      9  C   UNL     1      38.197   1.419  14.085  0.00  0.00    +0.000 A 
ATOM     10  C   UNL     1      39.484   0.928  14.107  0.00  0.00    +0.000 A 
ATOM     11  C   UNL     1      40.026   0.132  13.124  0.00  0.00    +0.000 A 
BRANCH   6  13
ATOM     12  C   UNL     1      40.164  -0.469   9.814  0.00  0.00    +0.000 C 
ATOM     13  O   UNL     1      39.740  -0.979  11.069  0.00  0.00    +0.000 OA
ENDBRANCH   6  13
BRANCH  11  14
ATOM     14  O   UNL     1      41.334  -0.346  13.182  0.00  0.00    +0.000 OA
BRANCH  14  15
ATOM     15  C   UNL     1      41.736  -1.225  14.215  0.00  0.00    +0.000 C 
ATOM     16  C   UNL     1      40.911  -2.479  14.094  0.00  0.00    +0.000 C 
ATOM     17  C   UNL     1      41.627  -3.317  13.093  0.00  0.00    +0.000 C 
ATOM     18  C   UNL     1      43.041  -2.857  13.001  0.00  0.00    +0.000 C 
ATOM     19  C   UNL     1      43.157  -1.649  13.906  0.00  0.00    +0.000 C 
ENDBRANCH  14  15
ENDBRANCH  11  14
ENDBRANCH   1   9
BRANCH   3  20
ATOM     20  C   UNL     1      38.299   5.083  17.294  0.00  0.00    +0.000 A 
ATOM     21  C   UNL     1      38.936   5.019  18.505  0.00  0.00    +0.000 A 
ATOM     22  C   UNL     1      39.413   6.128  19.172  0.00  0.00    +0.000 A 
ATOM     23  C   UNL     1      39.229   7.364  18.566  0.00  0.00    +0.000 A 
ATOM     24  C   UNL     1      38.595   7.419  17.362  0.00  0.00    +0.000 A 
ATOM     25  N   UNL     1      38.145   6.294  16.749  0.00  0.00    +0.000 NA
ENDBRANCH   3  20
BRANCH   5  26
ATOM     26  C   UNL     1      35.547   1.010  15.855  0.00  0.00    +0.000 C 
ATOM     27  O   UNL     1      34.534   1.683  16.853  0.00  0.00    +0.000 OA
BRANCH  26  28
ATOM     28  C   UNL     1      36.098  -0.007  16.984  0.00  0.00    +0.000 A 
ATOM     29  C   UNL     1      37.020  -0.915  16.725  0.00  0.00    +0.000 A 
ATOM     30  C   UNL     1      37.462  -1.761  17.707  0.00  0.00    +0.000 A 
ATOM     31  C   UNL     1      36.941  -1.658  18.955  0.00  0.00    +0.000 A 
ATOM     32  C   UNL     1      35.986  -0.728  19.251  0.00  0.00    +0.000 A 
ATOM     33  C   UNL     1      35.544   0.132  18.230  0.00  0.00    +0.000 A 
ENDBRANCH  26  28
ENDBRANCH   5  26
TORSDOF 7
ENDMDL
MODEL 2
REMARK VINA RESULT:      -8.1      2.940      5.372
REMARK  Name = 
REMARK  7 active torsions:
REMARK  status: ('A' for Active; 'I' for Inactive)
REMARK    1  A    between atoms: O_2  and  C_3
REMARK    2  A    between atoms: C_6  and  C_7
REMARK    3  A    between atoms: C_9  and  C_10
REMARK    4  A    between atoms: C_17  and  C_18
REMARK    5  A    between atoms: C_18  and  C_20
REMARK    6  A    between atoms: C_27  and  O_28
REMARK    7  A    between atoms: O_28  and  C_29
REMARK                            x       y       z     vdW  Elec       q    Type
REMARK                         _______ _______ _______ _____ _____    ______ ____
ROOT
ATOM      1  C   UNL     1      37.117   3.276  16.267  0.00  0.00    +0.000 A 
ATOM      2  O   UNL     1      37.558   3.888  17.337  0.00  0.00    +0.000 OA
ATOM      3  C   UNL     1      38.043   5.053  17.081  0.00  0.00    +0.000 A 
ATOM      4  C   UNL     1      37.912   5.231  15.708  0.00  0.00    +0.000 A 
ATOM      5  C   UNL     1      37.332   4.106  15.225  0.00  0.00    +0.000 A 
ENDROOT
BRANCH   1   9
ATOM      6  C   UNL     1      35.539  -0.658  16.236  0.00  0.00    +0.000 A 
ATOM      7  C   UNL     1      34.733   0.405  16.566  0.00  0.00    +0.000 A 
ATOM      8  C   UNL     1      35.197   1.697  16.591  0.00  0.00    +0.000 A 
ATOM      9  C   UNL     1      36.509   1.930  16.275  0.00  0.00    +0.000 A 
ATOM     10  C   UNL     1      37.304   0.853  15.946  0.00  0.00    +0.000 A 
ATOM     11  C   UNL     1      36.864  -0.450  15.914  0.00  0.00    +0.000 A 
BRANCH   6  13
ATOM     12  C   UNL     1      33.984  -2.420  16.974  0.00  0.00    +0.000 C 
ATOM     13  O   UNL     1      35.090  -1.969  16.207  0.00  0.00    +0.000 OA
ENDBRANCH   6  13
BRANCH  11  14
ATOM     14  O   UNL     1      37.698  -1.514  15.577  0.00  0.00    +0.000 OA
BRANCH  14  15
ATOM     15  C   UNL     1      38.841  -1.810  16.355  0.00  0.00    +0.000 C 
ATOM     16  C   UNL     1      38.384  -2.040  17.771  0.00  0.00    +0.000 C 
ATOM     17  C   UNL     1      37.975  -3.471  17.817  0.00  0.00    +0.000 C 
ATOM     18  C   UNL     1      38.618  -4.194  16.685  0.00  0.00    +0.000 C 
ATOM     19  C   UNL     1      39.365  -3.150  15.881  0.00  0.00    +0.000 C 
ENDBRANCH  14  15
ENDBRANCH  11  14
ENDBRANCH   1   9
BRANCH   3  20
ATOM     20  C   UNL     1      38.599   5.948  18.071  0.00  0.00    +0.000 A 
ATOM     21  C   UNL     1      39.646   5.575  18.872  0.00  0.00    +0.000 A 
ATOM     22  C   UNL     1      40.203   6.400  19.827  0.00  0.00    +0.000 A 
ATOM     23  C   UNL     1      39.660   7.670  19.968  0.00  0.00    +0.000 A 
ATOM     24  C   UNL     1      38.619   8.033  19.169  0.00  0.00    +0.000 A 
ATOM     25  N   UNL     1      38.109   7.181  18.243  0.00  0.00    +0.000 NA
ENDBRANCH   3  20
BRANCH   5  26
ATOM     26  C   UNL     1      36.991   3.801  13.708  0.00  0.00    +0.000 C 
ATOM     27  O   UNL     1      38.176   4.652  13.117  0.00  0.00    +0.000 OA
BRANCH  26  28
ATOM     28  C   UNL     1      35.920   4.987  13.463  0.00  0.00    +0.000 A 
ATOM     29  C   UNL     1      34.916   5.211  14.288  0.00  0.00    +0.000 A 
ATOM     30  C   UNL     1      34.027   6.224  14.048  0.00  0.00    +0.000 A 
ATOM     31  C   UNL     1      34.187   7.000  12.947  0.00  0.00    +0.000 A 
ATOM     32  C   UNL     1      35.218   6.790  12.076  0.00  0.00    +0.000 A 
ATOM     33  C   UNL     1      36.121   5.746  12.339  0.00  0.00    +0.000 A 
ENDBRANCH  26  28
ENDBRANCH   5  26
TORSDOF 7
ENDMDL
MODEL 3
REMARK VINA RESULT:      -8.0      1.749      2.775
REMARK  Name = 
REMARK  7 active torsions:
REMARK  status: ('A' for Active; 'I' for Inactive)
REMARK    1  A    between atoms: O_2  and  C_3
REMARK    2  A    between atoms: C_6  and  C_7
REMARK    3  A    between atoms: C_9  and  C_10
REMARK    4  A    between atoms: C_17  and  C_18
REMARK    5  A    between atoms: C_18  and  C_20
REMARK    6  A    between atoms: C_27  and  O_28
REMARK    7  A    between atoms: O_28  and  C_29
REMARK                            x       y       z     vdW  Elec       q    Type
REMARK                         _______ _______ _______ _____ _____    ______ ____
ROOT
ATOM      1  C   UNL     1      37.890   2.094  15.397  0.00  0.00    +0.000 A 
ATOM      2  O   UNL     1      38.715   3.022  15.812  0.00  0.00    +0.000 OA
ATOM      3  C   UNL     1      38.122   3.963  16.460  0.00  0.00    +0.000 A 
ATOM      4  C   UNL     1      36.772   3.627  16.475  0.00  0.00    +0.000 A 
ATOM      5  C   UNL     1      36.657   2.456  15.804  0.00  0.00    +0.000 A 
ENDROOT
BRANCH   1   9
ATOM      6  C   UNL     1      39.030  -1.438  13.349  0.00  0.00    +0.000 A 
ATOM      7  C   UNL     1      39.188  -0.212  12.749  0.00  0.00    +0.000 A 
ATOM      8  C   UNL     1      38.835   0.959  13.370  0.00  0.00    +0.000 A 
ATOM      9  C   UNL     1      38.305   0.901  14.632  0.00  0.00    +0.000 A 
ATOM     10  C   UNL     1      38.153  -0.337  15.220  0.00  0.00    +0.000 A 
ATOM     11  C   UNL     1      38.499  -1.525  14.619  0.00  0.00    +0.000 A 
BRANCH   6  13
ATOM     12  C   UNL     1      39.906  -2.696  11.422  0.00  0.00    +0.000 C 
ATOM     13  O   UNL     1      39.380  -2.632  12.737  0.00  0.00    +0.000 OA
ENDBRANCH   6  13
BRANCH  11  14
ATOM     14  O   UNL     1      38.329  -2.758  15.245  0.00  0.00    +0.000 OA
BRANCH  14  15
ATOM     15  C   UNL     1      37.468  -2.890  16.359  0.00  0.00    +0.000 C 
ATOM     16  C   UNL     1      36.672  -4.156  16.175  0.00  0.00    +0.000 C 
ATOM     17  C   UNL     1      37.541  -5.240  16.710  0.00  0.00    +0.000 C 
ATOM     18  C   UNL     1      38.553  -4.640  17.625  0.00  0.00    +0.000 C 
ATOM     19  C   UNL     1      38.344  -3.142  17.569  0.00  0.00    +0.000 C 
ENDBRANCH  14  15
ENDBRANCH  11  14
ENDBRANCH   1   9
BRANCH   3  20
ATOM     20  C   UNL     1      38.785   5.114  17.031  0.00  0.00    +0.000 A 
ATOM     21  C   UNL     1      39.063   5.194  18.371  0.00  0.00    +0.000 A 
ATOM     22  C   UNL     1      39.692   6.274  18.953  0.00  0.00    +0.000 A 
ATOM     23  C   UNL     1      40.056   7.324  18.121  0.00  0.00    +0.000 A 
ATOM     24  C   UNL     1      39.776   7.238  16.791  0.00  0.00    +0.000 A 
ATOM     25  N   UNL     1      39.154   6.149  16.269  0.00  0.00    +0.000 NA
ENDBRANCH   3  20
BRANCH   5  26
ATOM     26  C   UNL     1      35.314   1.665  15.519  0.00  0.00    +0.000 C 
ATOM     27  O   UNL     1      34.373   2.710  16.227  0.00  0.00    +0.000 OA
BRANCH  26  28
ATOM     28  C   UNL     1      35.332   0.694  16.811  0.00  0.00    +0.000 A 
ATOM     29  C   UNL     1      35.967   1.012  17.923  0.00  0.00    +0.000 A 
ATOM     30  C   UNL     1      35.961   0.164  18.998  0.00  0.00    +0.000 A 
ATOM     31  C   UNL     1      35.295  -1.014  18.909  0.00  0.00    +0.000 A 
ATOM     32  C   UNL     1      34.629  -1.368  17.771  0.00  0.00    +0.000 A 
ATOM     33  C   UNL     1      34.645  -0.485  16.678  0.00  0.00    +0.000 A 
ENDBRANCH  26  28
ENDBRANCH   5  26
TORSDOF 7
ENDMDL
MODEL 4
REMARK VINA RESULT:      -7.9      1.519      3.436
REMARK  Name = 
REMARK  7 active torsions:
REMARK  status: ('A' for Active; 'I' for Inactive)
REMARK    1  A    between atoms: O_2  and  C_3
REMARK    2  A    between atoms: C_6  and  C_7
REMARK    3  A    between atoms: C_9  and  C_10
REMARK    4  A    between atoms: C_17  and  C_18
REMARK    5  A    between atoms: C_18  and  C_20
REMARK    6  A    between atoms: C_27  and  O_28
REMARK    7  A    between atoms: O_28  and  C_29
REMARK                            x       y       z     vdW  Elec       q    Type
REMARK                         _______ _______ _______ _____ _____    ______ ____
ROOT
ATOM      1  C   UNL     1      37.855   2.204  15.293  0.00  0.00    +0.000 A 
ATOM      2  O   UNL     1      38.499   3.260  15.722  0.00  0.00    +0.000 OA
ATOM      3  C   UNL     1      37.857   3.896  16.639  0.00  0.00    +0.000 A 
ATOM      4  C   UNL     1      36.672   3.194  16.836  0.00  0.00    +0.000 A 
ATOM      5  C   UNL     1      36.697   2.143  15.982  0.00  0.00    +0.000 A 
ENDROOT
BRANCH   1   9
ATOM      6  C   UNL     1      39.203  -0.321  12.166  0.00  0.00    +0.000 A 
ATOM      7  C   UNL     1      39.682  -0.490  13.443  0.00  0.00    +0.000 A 
ATOM      8  C   UNL     1      39.277   0.301  14.488  0.00  0.00    +0.000 A 
ATOM      9  C   UNL     1      38.363   1.293  14.247  0.00  0.00    +0.000 A 
ATOM     10  C   UNL     1      37.894   1.449  12.960  0.00  0.00    +0.000 A 
ATOM     11  C   UNL     1      38.283   0.671  11.895  0.00  0.00    +0.000 A 
BRANCH   6  13
ATOM     12  C   UNL     1      40.230  -2.370  11.264  0.00  0.00    +0.000 C 
ATOM     13  O   UNL     1      39.601  -1.109  11.097  0.00  0.00    +0.000 OA
ENDBRANCH   6  13
BRANCH  11  14
ATOM     14  O   UNL     1      37.786   0.859  10.607  0.00  0.00    +0.000 OA
BRANCH  14  15
ATOM     15  C   UNL     1      38.216   1.954   9.821  0.00  0.00    +0.000 C 
ATOM     16  C   UNL     1      38.960   1.400   8.634  0.00  0.00    +0.000 C 
ATOM     17  C   UNL     1      37.906   1.084   7.631  0.00  0.00    +0.000 C 
ATOM     18  C   UNL     1      36.679   1.863   7.958  0.00  0.00    +0.000 C 
ATOM     19  C   UNL     1      36.972   2.601   9.247  0.00  0.00    +0.000 C 
ENDBRANCH  14  15
ENDBRANCH  11  14
ENDBRANCH   1   9
BRANCH   3  20
ATOM     20  C   UNL     1      38.330   5.096  17.292  0.00  0.00    +0.000 A 
ATOM     21  C   UNL     1      38.931   5.057  18.523  0.00  0.00    +0.000 A 
ATOM     22  C   UNL     1      39.392   6.180  19.178  0.00  0.00    +0.000 A 
ATOM     23  C   UNL     1      39.233   7.402  18.539  0.00  0.00    +0.000 A 
ATOM     24  C   UNL     1      38.635   7.432  17.316  0.00  0.00    +0.000 A 
ATOM     25  N   UNL     1      38.197   6.296  16.715  0.00  0.00    +0.000 NA
ENDBRANCH   3  20
BRANCH   5  26
ATOM     26  C   UNL     1      35.562   1.053  15.801  0.00  0.00    +0.000 C 
ATOM     27  O   UNL     1      34.504   1.789  16.704  0.00  0.00    +0.000 OA
BRANCH  26  28
ATOM     28  C   UNL     1      35.998   0.055  16.995  0.00  0.00    +0.000 A 
ATOM     29  C   UNL     1      35.653   0.266  18.251  0.00  0.00    +0.000 A 
ATOM     30  C   UNL     1      36.043  -0.601  19.237  0.00  0.00    +0.000 A 
ATOM     31  C   UNL     1      36.790  -1.684  18.910  0.00  0.00    +0.000 A 
ATOM     32  C   UNL     1      37.161  -1.927  17.618  0.00  0.00    +0.000 A 
ATOM     33  C   UNL     1      36.752  -1.026  16.619  0.00  0.00    +0.000 A 
ENDBRANCH  26  28
ENDBRANCH   5  26
TORSDOF 7
ENDMDL
MODEL 5
REMARK VINA RESULT:      -7.5     26.603     29.588
REMARK  Name = 
REMARK  7 active torsions:
REMARK  status: ('A' for Active; 'I' for Inactive)
REMARK    1  A    between atoms: O_2  and  C_3
REMARK    2  A    between atoms: C_6  and  C_7
REMARK    3  A    between atoms: C_9  and  C_10
REMARK    4  A    between atoms: C_17  and  C_18
REMARK    5  A    between atoms: C_18  and  C_20
REMARK    6  A    between atoms: C_27  and  O_28
REMARK    7  A    between atoms: O_28  and  C_29
REMARK                            x       y       z     vdW  Elec       q    Type
REMARK                         _______ _______ _______ _____ _____    ______ ____
ROOT
ATOM      1  C   UNL     1      26.720  14.799  38.786  0.00  0.00    +0.000 A 
ATOM      2  O   UNL     1      26.002  14.800  37.691  0.00  0.00    +0.000 OA
ATOM      3  C   UNL     1      26.593  15.382  36.708  0.00  0.00    +0.000 A 
ATOM      4  C   UNL     1      27.823  15.810  37.198  0.00  0.00    +0.000 A 
ATOM      5  C   UNL     1      27.875  15.433  38.498  0.00  0.00    +0.000 A 
ENDROOT
BRANCH   1   9
ATOM      6  C   UNL     1      25.573  12.918  42.408  0.00  0.00    +0.000 A 
ATOM      7  C   UNL     1      25.063  14.151  42.080  0.00  0.00    +0.000 A 
ATOM      8  C   UNL     1      25.403  14.801  40.920  0.00  0.00    +0.000 A 
ATOM      9  C   UNL     1      26.282  14.196  40.062  0.00  0.00    +0.000 A 
ATOM     10  C   UNL     1      26.785  12.959  40.405  0.00  0.00    +0.000 A 
ATOM     11  C   UNL     1      26.460  12.287  41.561  0.00  0.00    +0.000 A 
BRANCH   6  13
ATOM     12  C   UNL     1      23.981  11.627  43.774  0.00  0.00    +0.000 C 
ATOM     13  O   UNL     1      25.242  12.247  43.575  0.00  0.00    +0.000 OA
ENDBRANCH   6  13
BRANCH  11  14
ATOM     14  O   UNL     1      26.990  11.037  41.875  0.00  0.00    +0.000 OA
BRANCH  14  15
ATOM     15  C   UNL     1      27.104  10.032  40.886  0.00  0.00    +0.000 C 
ATOM     16  C   UNL     1      28.570   9.828  40.608  0.00  0.00    +0.000 C 
ATOM     17  C   UNL     1      29.030   8.867  41.648  0.00  0.00    +0.000 C 
ATOM     18  C   UNL     1      27.848   8.135  42.185  0.00  0.00    +0.000 C 
ATOM     19  C   UNL     1      26.631   8.737  41.514  0.00  0.00    +0.000 C 
ENDBRANCH  14  15
ENDBRANCH  11  14
ENDBRANCH   1   9
BRANCH   3  20
ATOM     20  C   UNL     1      26.035  15.530  35.382  0.00  0.00    +0.000 A 
ATOM     21  C   UNL     1      25.475  16.708  34.964  0.00  0.00    +0.000 A 
ATOM     22  C   UNL     1      24.931  16.887  33.709  0.00  0.00    +0.000 A 
ATOM     23  C   UNL     1      24.965  15.806  32.840  0.00  0.00    +0.000 A 
ATOM     24  C   UNL     1      25.523  14.638  33.262  0.00  0.00    +0.000 A 
ATOM     25  N   UNL     1      26.045  14.516  34.510  0.00  0.00    +0.000 NA
ENDBRANCH   3  20
BRANCH   5  26
ATOM     26  C   UNL     1      29.062  15.710  39.510  0.00  0.00    +0.000 C 
ATOM     27  O   UNL     1      29.799  16.754  38.591  0.00  0.00    +0.000 OA
BRANCH  26  28
ATOM     28  C   UNL     1      30.043  14.508  39.059  0.00  0.00    +0.000 A 
ATOM     29  C   UNL     1      30.690  14.520  37.910  0.00  0.00    +0.000 A 
ATOM     30  C   UNL     1      31.513  13.483  37.561  0.00  0.00    +0.000 A 
ATOM     31  C   UNL     1      31.658  12.436  38.411  0.00  0.00    +0.000 A 
ATOM     32  C   UNL     1      31.000  12.398  39.607  0.00  0.00    +0.000 A 
ATOM     33  C   UNL     1      30.160  13.471  39.949  0.00  0.00    +0.000 A 
ENDBRANCH  26  28
ENDBRANCH   5  26
TORSDOF 7
ENDMDL
MODEL 6
REMARK VINA RESULT:      -7.4      2.768      5.649
REMARK  Name = 
REMARK  7 active torsions:
REMARK  status: ('A' for Active; 'I' for Inactive)
REMARK    1  A    between atoms: O_2  and  C_3
REMARK    2  A    between atoms: C_6  and  C_7
REMARK    3  A    between atoms: C_9  and  C_10
REMARK    4  A    between atoms: C_17  and  C_18
REMARK    5  A    between atoms: C_18  and  C_20
REMARK    6  A    between atoms: C_27  and  O_28
REMARK    7  A    between atoms: O_28  and  C_29
REMARK                            x       y       z     vdW  Elec       q    Type
REMARK                         _______ _______ _______ _____ _____    ______ ____
ROOT
ATOM      1  C   UNL     1      38.321   3.760  15.547  0.00  0.00    +0.000 A 
ATOM      2  O   UNL     1      38.646   4.207  16.734  0.00  0.00    +0.000 OA
ATOM      3  C   UNL     1      38.481   5.479  16.849  0.00  0.00    +0.000 A 
ATOM      4  C   UNL     1      38.002   5.918  15.619  0.00  0.00    +0.000 A 
ATOM      5  C   UNL     1      37.913   4.824  14.825  0.00  0.00    +0.000 A 
ENDROOT
BRANCH   1   9
ATOM      6  C   UNL     1      38.412  -0.341  14.479  0.00  0.00    +0.000 A 
ATOM      7  C   UNL     1      39.444   0.489  14.113  0.00  0.00    +0.000 A 
ATOM      8  C   UNL     1      39.461   1.823  14.434  0.00  0.00    +0.000 A 
ATOM      9  C   UNL     1      38.410   2.342  15.145  0.00  0.00    +0.000 A 
ATOM     10  C   UNL     1      37.384   1.495  15.504  0.00  0.00    +0.000 A 
ATOM     11  C   UNL     1      37.342   0.156  15.195  0.00  0.00    +0.000 A 
BRANCH   6  13
ATOM     12  C   UNL     1      39.187  -2.655  14.816  0.00  0.00    +0.000 C 
ATOM     13  O   UNL     1      38.376  -1.691  14.163  0.00  0.00    +0.000 OA
ENDBRANCH   6  13
BRANCH  11  14
ATOM     14  O   UNL     1      36.286  -0.669  15.575  0.00  0.00    +0.000 OA
BRANCH  14  15
ATOM     15  C   UNL     1      36.298  -1.327  16.827  0.00  0.00    +0.000 C 
ATOM     16  C   UNL     1      35.248  -0.683  17.693  0.00  0.00    +0.000 C 
ATOM     17  C   UNL     1      33.977  -1.372  17.336  0.00  0.00    +0.000 C 
ATOM     18  C   UNL     1      34.299  -2.680  16.700  0.00  0.00    +0.000 C 
ATOM     19  C   UNL     1      35.808  -2.741  16.589  0.00  0.00    +0.000 C 
ENDBRANCH  14  15
ENDBRANCH  11  14
ENDBRANCH   1   9
BRANCH   3  20
ATOM     20  C   UNL     1      38.760   6.239  18.047  0.00  0.00    +0.000 A 
ATOM     21  C   UNL     1      39.781   5.899  18.895  0.00  0.00    +0.000 A 
ATOM     22  C   UNL     1      40.076   6.598  20.047  0.00  0.00    +0.000 A 
ATOM     23  C   UNL     1      39.287   7.701  20.343  0.00  0.00    +0.000 A 
ATOM     24  C   UNL     1      38.274   8.033  19.496  0.00  0.00    +0.000 A 
ATOM     25  N   UNL     1      38.027   7.309  18.374  0.00  0.00    +0.000 NA
ENDBRANCH   3  20
BRANCH   5  26
ATOM     26  C   UNL     1      37.442   4.797  13.312  0.00  0.00    +0.000 C 
ATOM     27  O   UNL     1      38.400   5.953  12.839  0.00  0.00    +0.000 OA
BRANCH  26  28
ATOM     28  C   UNL     1      36.178   5.796  13.440  0.00  0.00    +0.000 A 
ATOM     29  C   UNL     1      35.049   5.434  14.018  0.00  0.00    +0.000 A 
ATOM     30  C   UNL     1      33.999   6.307  14.106  0.00  0.00    +0.000 A 
ATOM     31  C   UNL     1      34.128   7.555  13.591  0.00  0.00    +0.000 A 
ATOM     32  C   UNL     1      35.286   7.956  12.987  0.00  0.00    +0.000 A 
ATOM     33  C   UNL     1      36.353   7.046  12.905  0.00  0.00    +0.000 A 
ENDBRANCH  26  28
ENDBRANCH   5  26
TORSDOF 7
ENDMDL
MODEL 7
REMARK VINA RESULT:      -7.3      3.463      8.062
REMARK  Name = 
REMARK  7 active torsions:
REMARK  status: ('A' for Active; 'I' for Inactive)
REMARK    1  A    between atoms: O_2  and  C_3
REMARK    2  A    between atoms: C_6  and  C_7
REMARK    3  A    between atoms: C_9  and  C_10
REMARK    4  A    between atoms: C_17  and  C_18
REMARK    5  A    between atoms: C_18  and  C_20
REMARK    6  A    between atoms: C_27  and  O_28
REMARK    7  A    between atoms: O_28  and  C_29
REMARK                            x       y       z     vdW  Elec       q    Type
REMARK                         _______ _______ _______ _____ _____    ______ ____
ROOT
ATOM      1  C   UNL     1      41.076  -2.030  14.434  0.00  0.00    +0.000 A 
ATOM      2  O   UNL     1      42.283  -1.648  14.769  0.00  0.00    +0.000 OA
ATOM      3  C   UNL     1      43.088  -1.602  13.765  0.00  0.00    +0.000 A 
ATOM      4  C   UNL     1      42.343  -1.993  12.657  0.00  0.00    +0.000 A 
ATOM      5  C   UNL     1      41.091  -2.255  13.105  0.00  0.00    +0.000 A 
ENDROOT
BRANCH   1   9
ATOM      6  C   UNL     1      37.810  -2.246  17.128  0.00  0.00    +0.000 A 
ATOM      7  C   UNL     1      38.672  -3.309  17.004  0.00  0.00    +0.000 A 
ATOM      8  C   UNL     1      39.743  -3.288  16.146  0.00  0.00    +0.000 A 
ATOM      9  C   UNL     1      39.957  -2.166  15.389  0.00  0.00    +0.000 A 
ATOM     10  C   UNL     1      39.084  -1.110  15.526  0.00  0.00    +0.000 A 
ATOM     11  C   UNL     1      38.003  -1.105  16.377  0.00  0.00    +0.000 A 
BRANCH   6  13
ATOM     12  C   UNL     1      36.795  -1.769  19.321  0.00  0.00    +0.000 C 
ATOM     13  O   UNL     1      36.722  -2.249  17.988  0.00  0.00    +0.000 OA
ENDBRANCH   6  13
BRANCH  11  14
ATOM     14  O   UNL     1      37.140  -0.017  16.488  0.00  0.00    +0.000 OA
BRANCH  14  15
ATOM     15  C   UNL     1      35.907  -0.000  15.796  0.00  0.00    +0.000 C 
ATOM     16  C   UNL     1      34.884   0.639  16.698  0.00  0.00    +0.000 C 
ATOM     17  C   UNL     1      35.036   2.104  16.477  0.00  0.00    +0.000 C 
ATOM     18  C   UNL     1      35.716   2.327  15.170  0.00  0.00    +0.000 C 
ATOM     19  C   UNL     1      36.065   0.956  14.631  0.00  0.00    +0.000 C 
ENDBRANCH  14  15
ENDBRANCH  11  14
ENDBRANCH   1   9
BRANCH   3  20
ATOM     20  C   UNL     1      44.478  -1.215  13.843  0.00  0.00    +0.000 A 
ATOM     21  C   UNL     1      44.900  -0.203  14.665  0.00  0.00    +0.000 A 
ATOM     22  C   UNL     1      46.216   0.196  14.764  0.00  0.00    +0.000 A 
ATOM     23  C   UNL     1      47.147  -0.476  13.985  0.00  0.00    +0.000 A 
ATOM     24  C   UNL     1      46.721  -1.480  13.170  0.00  0.00    +0.000 A 
ATOM     25  N   UNL     1      45.411  -1.833  13.110  0.00  0.00    +0.000 NA
ENDBRANCH   3  20
BRANCH   5  26
ATOM     26  C   UNL     1      39.869  -2.762  12.233  0.00  0.00    +0.000 C 
ATOM     27  O   UNL     1      40.735  -3.156  10.979  0.00  0.00    +0.000 OA
BRANCH  26  28
ATOM     28  C   UNL     1      39.437  -1.346  11.584  0.00  0.00    +0.000 A 
ATOM     29  C   UNL     1      38.518  -0.573  12.128  0.00  0.00    +0.000 A 
ATOM     30  C   UNL     1      38.177   0.621  11.548  0.00  0.00    +0.000 A 
ATOM     31  C   UNL     1      38.796   1.003  10.404  0.00  0.00    +0.000 A 
ATOM     32  C   UNL     1      39.752   0.221   9.819  0.00  0.00    +0.000 A 
ATOM     33  C   UNL     1      40.088  -1.000  10.428  0.00  0.00    +0.000 A 
ENDBRANCH  26  28
ENDBRANCH   5  26
TORSDOF 7
ENDMDL
MODEL 8
REMARK VINA RESULT:      -7.2      3.850      9.152
REMARK  Name = 
REMARK  7 active torsions:
REMARK  status: ('A' for Active; 'I' for Inactive)
REMARK    1  A    between atoms: O_2  and  C_3
REMARK    2  A    between atoms: C_6  and  C_7
REMARK    3  A    between atoms: C_9  and  C_10
REMARK    4  A    between atoms: C_17  and  C_18
REMARK    5  A    between atoms: C_18  and  C_20
REMARK    6  A    between atoms: C_27  and  O_28
REMARK    7  A    between atoms: O_28  and  C_29
REMARK                            x       y       z     vdW  Elec       q    Type
REMARK                         _______ _______ _______ _____ _____    ______ ____
ROOT
ATOM      1  C   UNL     1      40.706  -2.016  13.414  0.00  0.00    +0.000 A 
ATOM      2  O   UNL     1      40.604  -2.878  12.433  0.00  0.00    +0.000 OA
ATOM      3  C   UNL     1      41.387  -2.607  11.448  0.00  0.00    +0.000 A 
ATOM      4  C   UNL     1      42.076  -1.454  11.810  0.00  0.00    +0.000 A 
ATOM      5  C   UNL     1      41.631  -1.107  13.041  0.00  0.00    +0.000 A 
ENDROOT
BRANCH   1   9
ATOM      6  C   UNL     1      38.376  -2.070  16.954  0.00  0.00    +0.000 A 
ATOM      7  C   UNL     1      39.303  -3.059  16.724  0.00  0.00    +0.000 A 
ATOM      8  C   UNL     1      40.081  -3.085  15.594  0.00  0.00    +0.000 A 
ATOM      9  C   UNL     1      39.925  -2.091  14.665  0.00  0.00    +0.000 A 
ATOM     10  C   UNL     1      38.991  -1.107  14.911  0.00  0.00    +0.000 A 
ATOM     11  C   UNL     1      38.199  -1.057  16.035  0.00  0.00    +0.000 A 
BRANCH   6  13
ATOM     12  C   UNL     1      38.045  -2.424  19.369  0.00  0.00    +0.000 C 
ATOM     13  O   UNL     1      37.580  -2.027  18.089  0.00  0.00    +0.000 OA
ENDBRANCH   6  13
BRANCH  11  14
ATOM     14  O   UNL     1      37.264  -0.047  16.249  0.00  0.00    +0.000 OA
BRANCH  14  15
ATOM     15  C   UNL     1      35.994  -0.095  15.628  0.00  0.00    +0.000 C 
ATOM     16  C   UNL     1      34.954   0.096  16.700  0.00  0.00    +0.000 C 
ATOM     17  C   UNL     1      34.828   1.571  16.858  0.00  0.00    +0.000 C 
ATOM     18  C   UNL     1      35.349   2.234  15.630  0.00  0.00    +0.000 C 
ATOM     19  C   UNL     1      35.887   1.131  14.744  0.00  0.00    +0.000 C 
ENDBRANCH  14  15
ENDBRANCH  11  14
ENDBRANCH   1   9
BRANCH   3  20
ATOM     20  C   UNL     1      41.483  -3.387  10.234  0.00  0.00    +0.000 A 
ATOM     21  C   UNL     1      40.975  -2.935   9.045  0.00  0.00    +0.000 A 
ATOM     22  C   UNL     1      41.045  -3.649   7.868  0.00  0.00    +0.000 A 
ATOM     23  C   UNL     1      41.669  -4.889   7.911  0.00  0.00    +0.000 A 
ATOM     24  C   UNL     1      42.172  -5.332   9.096  0.00  0.00    +0.000 A 
ATOM     25  N   UNL     1      42.075  -4.587  10.227  0.00  0.00    +0.000 NA
ENDBRANCH   3  20
BRANCH   5  26
ATOM     26  C   UNL     1      42.087   0.154  13.885  0.00  0.00    +0.000 C 
ATOM     27  O   UNL     1      42.435   1.048  12.637  0.00  0.00    +0.000 OA
BRANCH  26  28
ATOM     28  C   UNL     1      43.633  -0.260  14.113  0.00  0.00    +0.000 A 
ATOM     29  C   UNL     1      44.627   0.385  13.535  0.00  0.00    +0.000 A 
ATOM     30  C   UNL     1      45.925   0.005  13.750  0.00  0.00    +0.000 A 
ATOM     31  C   UNL     1      46.181  -1.047  14.567  0.00  0.00    +0.000 A 
ATOM     32  C   UNL     1      45.170  -1.732  15.179  0.00  0.00    +0.000 A 
ATOM     33  C   UNL     1      43.845  -1.328  14.946  0.00  0.00    +0.000 A 
ENDBRANCH  26  28
ENDBRANCH   5  26
TORSDOF 7
ENDMDL
MODEL 9
REMARK VINA RESULT:      -7.2     24.846     28.960
REMARK  Name = 
REMARK  7 active torsions:
REMARK  status: ('A' for Active; 'I' for Inactive)
REMARK    1  A    between atoms: O_2  and  C_3
REMARK    2  A    between atoms: C_6  and  C_7
REMARK    3  A    between atoms: C_9  and  C_10
REMARK    4  A    between atoms: C_17  and  C_18
REMARK    5  A    between atoms: C_18  and  C_20
REMARK    6  A    between atoms: C_27  and  O_28
REMARK    7  A    between atoms: O_28  and  C_29
REMARK                            x       y       z     vdW  Elec       q    Type
REMARK                         _______ _______ _______ _____ _____    ______ ____
ROOT
ATOM      1  C   UNL     1      27.282  15.360  36.221  0.00  0.00    +0.000 A 
ATOM      2  O   UNL     1      28.567  15.604  36.252  0.00  0.00    +0.000 OA
ATOM      3  C   UNL     1      29.077  15.737  35.077  0.00  0.00    +0.000 A 
ATOM      4  C   UNL     1      28.028  15.563  34.180  0.00  0.00    +0.000 A 
ATOM      5  C   UNL     1      26.919  15.328  34.922  0.00  0.00    +0.000 A 
ENDROOT
BRANCH   1   9
ATOM      6  C   UNL     1      25.044  14.754  39.770  0.00  0.00    +0.000 A 
ATOM      7  C   UNL     1      24.414  15.169  38.621  0.00  0.00    +0.000 A 
ATOM      8  C   UNL     1      25.094  15.379  37.448  0.00  0.00    +0.000 A 
ATOM      9  C   UNL     1      26.448  15.167  37.425  0.00  0.00    +0.000 A 
ATOM     10  C   UNL     1      27.063  14.751  38.586  0.00  0.00    +0.000 A 
ATOM     11  C   UNL     1      26.405  14.533  39.774  0.00  0.00    +0.000 A 
BRANCH   6  13
ATOM     12  C   UNL     1      23.389  15.427  41.466  0.00  0.00    +0.000 C 
ATOM     13  O   UNL     1      24.374  14.537  40.965  0.00  0.00    +0.000 OA
ENDBRANCH   6  13
BRANCH  11  14
ATOM     14  O   UNL     1      27.062  14.112  40.929  0.00  0.00    +0.000 OA
BRANCH  14  15
ATOM     15  C   UNL     1      27.716  12.859  40.971  0.00  0.00    +0.000 C 
ATOM     16  C   UNL     1      28.310  12.699  42.346  0.00  0.00    +0.000 C 
ATOM     17  C   UNL     1      27.204  12.158  43.184  0.00  0.00    +0.000 C 
ATOM     18  C   UNL     1      26.181  11.540  42.294  0.00  0.00    +0.000 C 
ATOM     19  C   UNL     1      26.641  11.796  40.874  0.00  0.00    +0.000 C 
ENDBRANCH  14  15
ENDBRANCH  11  14
ENDBRANCH   1   9
BRANCH   3  20
ATOM     20  C   UNL     1      30.472  16.011  34.811  0.00  0.00    +0.000 A 
ATOM     21  C   UNL     1      30.949  17.292  34.717  0.00  0.00    +0.000 A 
ATOM     22  C   UNL     1      32.271  17.593  34.464  0.00  0.00    +0.000 A 
ATOM     23  C   UNL     1      33.147  16.529  34.301  0.00  0.00    +0.000 A 
ATOM     24  C   UNL     1      32.666  15.259  34.395  0.00  0.00    +0.000 A 
ATOM     25  N   UNL     1      31.353  15.018  34.647  0.00  0.00    +0.000 NA
ENDBRANCH   3  20
BRANCH   5  26
ATOM     26  C   UNL     1      25.463  15.039  34.370  0.00  0.00    +0.000 C 
ATOM     27  O   UNL     1      25.927  14.686  32.908  0.00  0.00    +0.000 OA
BRANCH  26  28
ATOM     28  C   UNL     1      25.061  16.549  33.958  0.00  0.00    +0.000 A 
ATOM     29  C   UNL     1      25.076  17.544  34.824  0.00  0.00    +0.000 A 
ATOM     30  C   UNL     1      24.728  18.811  34.439  0.00  0.00    +0.000 A 
ATOM     31  C   UNL     1      24.365  19.036  33.152  0.00  0.00    +0.000 A 
ATOM     32  C   UNL     1      24.341  18.025  32.234  0.00  0.00    +0.000 A 
ATOM     33  C   UNL     1      24.701  16.731  32.647  0.00  0.00    +0.000 A 
ENDBRANCH  26  28
ENDBRANCH   5  26
TORSDOF 7
ENDMDL
MODEL 10
REMARK VINA RESULT:      -7.0      3.089      4.241
REMARK  Name = 
REMARK  7 active torsions:
REMARK  status: ('A' for Active; 'I' for Inactive)
REMARK    1  A    between atoms: O_2  and  C_3
REMARK    2  A    between atoms: C_6  and  C_7
REMARK    3  A    between atoms: C_9  and  C_10
REMARK    4  A    between atoms: C_17  and  C_18
REMARK    5  A    between atoms: C_18  and  C_20
REMARK    6  A    between atoms: C_27  and  O_28
REMARK    7  A    between atoms: O_28  and  C_29
REMARK                            x       y       z     vdW  Elec       q    Type
REMARK                         _______ _______ _______ _____ _____    ______ ____
ROOT
ATOM      1  C   UNL     1      38.076  -0.735  14.299  0.00  0.00    +0.000 A 
ATOM      2  O   UNL     1      37.871   0.544  14.106  0.00  0.00    +0.000 OA
ATOM      3  C   UNL     1      36.686   0.915  14.446  0.00  0.00    +0.000 A 
ATOM      4  C   UNL     1      36.043  -0.228  14.910  0.00  0.00    +0.000 A 
ATOM      5  C   UNL     1      36.934  -1.243  14.806  0.00  0.00    +0.000 A 
ENDROOT
BRANCH   1   9
ATOM      6  C   UNL     1      41.657  -2.753  13.262  0.00  0.00    +0.000 A 
ATOM      7  C   UNL     1      41.523  -2.182  14.505  0.00  0.00    +0.000 A 
ATOM      8  C   UNL     1      40.385  -1.518  14.888  0.00  0.00    +0.000 A 
ATOM      9  C   UNL     1      39.348  -1.423  13.998  0.00  0.00    +0.000 A 
ATOM     10  C   UNL     1      39.498  -2.001  12.756  0.00  0.00    +0.000 A 
ATOM     11  C   UNL     1      40.628  -2.671  12.347  0.00  0.00    +0.000 A 
BRANCH   6  13
ATOM     12  C   UNL     1      44.053  -2.783  12.694  0.00  0.00    +0.000 C 
ATOM     13  O   UNL     1      42.799  -3.426  12.857  0.00  0.00    +0.000 OA
ENDBRANCH   6  13
BRANCH  11  14
ATOM     14  O   UNL     1      40.744  -3.243  11.081  0.00  0.00    +0.000 OA
BRANCH  14  15
ATOM     15  C   UNL     1      40.524  -2.470   9.918  0.00  0.00    +0.000 C 
ATOM     16  C   UNL     1      41.535  -1.354   9.911  0.00  0.00    +0.000 C 
ATOM     17  C   UNL     1      42.757  -1.944   9.297  0.00  0.00    +0.000 C 
ATOM     18  C   UNL     1      42.369  -3.149   8.511  0.00  0.00    +0.000 C 
ATOM     19  C   UNL     1      40.883  -3.343   8.732  0.00  0.00    +0.000 C 
ENDBRANCH  14  15
ENDBRANCH  11  14
ENDBRANCH   1   9
BRANCH   3  20
ATOM     20  C   UNL     1      36.186   2.268  14.340  0.00  0.00    +0.000 A 
ATOM     21  C   UNL     1      36.808   3.207  13.560  0.00  0.00    +0.000 A 
ATOM     22  C   UNL     1      36.362   4.506  13.435  0.00  0.00    +0.000 A 
ATOM     23  C   UNL     1      35.221   4.859  14.143  0.00  0.00    +0.000 A 
ATOM     24  C   UNL     1      34.609   3.921  14.917  0.00  0.00    +0.000 A 
ATOM     25  N   UNL     1      35.091   2.654  15.004  0.00  0.00    +0.000 NA
ENDBRANCH   3  20
BRANCH   5  26
ATOM     26  C   UNL     1      36.678  -2.760  15.183  0.00  0.00    +0.000 C 
ATOM     27  O   UNL     1      35.202  -2.541  15.683  0.00  0.00    +0.000 OA
BRANCH  26  28
ATOM     28  C   UNL     1      37.270  -2.735  16.686  0.00  0.00    +0.000 A 
ATOM     29  C   UNL     1      38.336  -3.428  17.036  0.00  0.00    +0.000 A 
ATOM     30  C   UNL     1      38.809  -3.383  18.320  0.00  0.00    +0.000 A 
ATOM     31  C   UNL     1      38.168  -2.615  19.236  0.00  0.00    +0.000 A 
ATOM     32  C   UNL     1      37.062  -1.886  18.902  0.00  0.00    +0.000 A 
ATOM     33  C   UNL     1      36.591  -1.946  17.579  0.00  0.00    +0.000 A 
ENDBRANCH  26  28
ENDBRANCH   5  26
TORSDOF 7
ENDMDL
