MODEL 1
REMARK VINA RESULT:      -8.3      0.000      0.000
REMARK  Name = 
REMARK  8 active torsions:
REMARK  status: ('A' for Active; 'I' for Inactive)
REMARK    1  A    between atoms: C_2  and  C_3
REMARK    2  A    between atoms: C_3  and  C_4
REMARK    3  A    between atoms: C_4  and  O_5
REMARK    4  A    between atoms: O_5  and  C_6
REMARK    5  A    between atoms: C_9  and  C_10
REMARK    6  A    between atoms: C_20  and  O_21
REMARK    7  A    between atoms: O_21  and  C_22
REMARK    8  A    between atoms: C_22  and  C_23
REMARK                            x       y       z     vdW  Elec       q    Type
REMARK                         _______ _______ _______ _____ _____    ______ ____
ROOT
ATOM      1  C   UNL     1      36.359  -3.716  15.437  0.00  0.00    +0.000 C 
ATOM      2  N   UNL     1      36.913  -4.181  16.818  0.00  0.00    +0.000 NA
ATOM      3  C   UNL     1      37.566  -3.100  17.457  0.00  0.00    +0.000 C 
ATOM      4  C   UNL     1      38.968  -2.973  16.909  0.00  0.00    +0.000 C 
ATOM      5  C   UNL     1      38.812  -2.899  15.439  0.00  0.00    +0.000 A 
ATOM      6  C   UNL     1      37.700  -3.216  14.803  0.00  0.00    +0.000 A 
ATOM      7  N   UNL     1      37.921  -3.030  13.492  0.00  0.00    +0.000 NA
ATOM      8  C   UNL     1      39.199  -2.588  13.294  0.00  0.00    +0.000 A 
ATOM      9  C   UNL     1      39.935  -2.246  12.174  0.00  0.00    +0.000 A 
ATOM     10  C   UNL     1      41.241  -1.824  12.327  0.00  0.00    +0.000 A 
ATOM     11  C   UNL     1      41.869  -1.719  13.551  0.00  0.00    +0.000 A 
ATOM     12  C   UNL     1      41.108  -2.066  14.655  0.00  0.00    +0.000 A 
ATOM     13  C   UNL     1      39.804  -2.491  14.528  0.00  0.00    +0.000 A 
ENDROOT
BRANCH   1  17
ATOM     14  C   UNL     1      34.928   0.189  16.647  0.00  0.00    +0.000 A 
ATOM     15  C   UNL     1      35.829   0.034  15.617  0.00  0.00    +0.000 A 
ATOM     16  C   UNL     1      36.271  -1.209  15.245  0.00  0.00    +0.000 A 
ATOM     17  C   UNL     1      35.793  -2.306  15.927  0.00  0.00    +0.000 A 
ATOM     18  C   UNL     1      34.921  -2.194  16.929  0.00  0.00    +0.000 A 
ATOM     19  C   UNL     1      34.482  -0.939  17.297  0.00  0.00    +0.000 A 
BRANCH  14  20
ATOM     20  O   UNL     1      34.537   1.484  16.954  0.00  0.00    +0.000 OA
BRANCH  20  21
ATOM     21  C   UNL     1      35.262   2.544  16.361  0.00  0.00    +0.000 C 
BRANCH  21  22
ATOM     22  C   UNL     1      34.368   3.311  15.377  0.00  0.00    +0.000 C 
BRANCH  22  24
ATOM     23  C   UNL     1      36.529   3.493  14.133  0.00  0.00    +0.000 C 
ATOM     24  C   UNL     1      35.191   4.114  14.424  0.00  0.00    +0.000 C 
ENDBRANCH  22  24
ENDBRANCH  21  22
ENDBRANCH  20  21
ENDBRANCH  14  20
ENDBRANCH   1  17
BRANCH  11  25
ATOM     25  O   UNL     1      43.181  -1.289  13.650  0.00  0.00    +0.000 OA
BRANCH  25  26
ATOM     26  C   UNL     1      44.265  -2.067  14.004  0.00  0.00    +0.000 C 
BRANCH  26  27
ATOM     27  C   UNL     1      44.900  -1.695  15.274  0.00  0.00    +0.000 A 
ATOM     28  C   UNL     1      44.898  -0.414  15.764  0.00  0.00    +0.000 A 
ATOM     29  C   UNL     1      45.493  -0.067  16.957  0.00  0.00    +0.000 A 
ATOM     30  C   UNL     1      46.123  -1.030  17.705  0.00  0.00    +0.000 A 
ATOM     31  C   UNL     1      46.142  -2.322  17.240  0.00  0.00    +0.000 A 
ATOM     32  C   UNL     1      45.530  -2.658  16.023  0.00  0.00    +0.000 A 
ENDBRANCH  26  27
ENDBRANCH  25  26
ENDBRANCH  11  25
TORSDOF 8
ENDMDL
MODEL 2
REMARK VINA RESULT:      -8.2      1.425      1.611
REMARK  Name = 
REMARK  8 active torsions:
REMARK  status: ('A' for Active; 'I' for Inactive)
REMARK    1  A    between atoms: C_2  and  C_3
REMARK    2  A    between atoms: C_3  and  C_4
REMARK    3  A    between atoms: C_4  and  O_5
REMARK    4  A    between atoms: O_5  and  C_6
REMARK    5  A    between atoms: C_9  and  C_10
REMARK    6  A    between atoms: C_20  and  O_21
REMARK    7  A    between atoms: O_21  and  C_22
REMARK    8  A    between atoms: C_22  and  C_23
REMARK                            x       y       z     vdW  Elec       q    Type
REMARK                         _______ _______ _______ _____ _____    ______ ____
ROOT
ATOM      1  C   UNL     1      35.970  -2.853  15.601  0.00  0.00    +0.000 C 
ATOM      2  N   UNL     1      36.409  -3.210  17.054  0.00  0.00    +0.000 NA
ATOM      3  C   UNL     1      37.302  -2.224  17.537  0.00  0.00    +0.000 C 
ATOM      4  C   UNL     1      38.690  -2.515  17.019  0.00  0.00    +0.000 C 
ATOM      5  C   UNL     1      38.545  -2.639  15.551  0.00  0.00    +0.000 A 
ATOM      6  C   UNL     1      37.386  -2.786  14.938  0.00  0.00    +0.000 A 
ATOM      7  N   UNL     1      37.636  -2.866  13.622  0.00  0.00    +0.000 NA
ATOM      8  C   UNL     1      38.980  -2.769  13.396  0.00  0.00    +0.000 A 
ATOM      9  C   UNL     1      39.768  -2.790  12.260  0.00  0.00    +0.000 A 
ATOM     10  C   UNL     1      41.138  -2.665  12.385  0.00  0.00    +0.000 A 
ATOM     11  C   UNL     1      41.781  -2.516  13.596  0.00  0.00    +0.000 A 
ATOM     12  C   UNL     1      40.967  -2.498  14.717  0.00  0.00    +0.000 A 
ATOM     13  C   UNL     1      39.600  -2.622  14.618  0.00  0.00    +0.000 A 
ENDROOT
BRANCH   1  17
ATOM     14  C   UNL     1      35.488   1.418  16.135  0.00  0.00    +0.000 A 
ATOM     15  C   UNL     1      36.223   0.896  15.093  0.00  0.00    +0.000 A 
ATOM     16  C   UNL     1      36.364  -0.459  14.938  0.00  0.00    +0.000 A 
ATOM     17  C   UNL     1      35.753  -1.291  15.850  0.00  0.00    +0.000 A 
ATOM     18  C   UNL     1      35.035  -0.822  16.869  0.00  0.00    +0.000 A 
ATOM     19  C   UNL     1      34.898   0.543  17.019  0.00  0.00    +0.000 A 
BRANCH  14  20
ATOM     20  O   UNL     1      35.399   2.800  16.213  0.00  0.00    +0.000 OA
BRANCH  20  21
ATOM     21  C   UNL     1      36.572   3.547  15.956  0.00  0.00    +0.000 C 
BRANCH  21  22
ATOM     22  C   UNL     1      37.447   3.609  17.215  0.00  0.00    +0.000 C 
BRANCH  22  24
ATOM     23  C   UNL     1      38.984   5.134  18.464  0.00  0.00    +0.000 C 
ATOM     24  C   UNL     1      38.433   4.727  17.126  0.00  0.00    +0.000 C 
ENDBRANCH  22  24
ENDBRANCH  21  22
ENDBRANCH  20  21
ENDBRANCH  14  20
ENDBRANCH   1  17
BRANCH  11  25
ATOM     25  O   UNL     1      43.158  -2.393  13.667  0.00  0.00    +0.000 OA
BRANCH  25  26
ATOM     26  C   UNL     1      43.858  -1.230  13.921  0.00  0.00    +0.000 C 
BRANCH  26  27
ATOM     27  C   UNL     1      44.658  -1.251  15.152  0.00  0.00    +0.000 A 
ATOM     28  C   UNL     1      44.924  -0.126  15.889  0.00  0.00    +0.000 A 
ATOM     29  C   UNL     1      45.675  -0.148  17.044  0.00  0.00    +0.000 A 
ATOM     30  C   UNL     1      46.189  -1.338  17.495  0.00  0.00    +0.000 A 
ATOM     31  C   UNL     1      45.939  -2.482  16.777  0.00  0.00    +0.000 A 
ATOM     32  C   UNL     1      45.172  -2.442  15.603  0.00  0.00    +0.000 A 
ENDBRANCH  26  27
ENDBRANCH  25  26
ENDBRANCH  11  25
TORSDOF 8
ENDMDL
MODEL 3
REMARK VINA RESULT:      -7.6      4.336      7.621
REMARK  Name = 
REMARK  8 active torsions:
REMARK  status: ('A' for Active; 'I' for Inactive)
REMARK    1  A    between atoms: C_2  and  C_3
REMARK    2  A    between atoms: C_3  and  C_4
REMARK    3  A    between atoms: C_4  and  O_5
REMARK    4  A    between atoms: O_5  and  C_6
REMARK    5  A    between atoms: C_9  and  C_10
REMARK    6  A    between atoms: C_20  and  O_21
REMARK    7  A    between atoms: O_21  and  C_22
REMARK    8  A    between atoms: C_22  and  C_23
REMARK                            x       y       z     vdW  Elec       q    Type
REMARK                         _______ _______ _______ _____ _____    ______ ____
ROOT
ATOM      1  C   UNL     1      38.816   5.153  14.018  0.00  0.00    +0.000 C 
ATOM      2  N   UNL     1      37.380   5.647  13.663  0.00  0.00    +0.000 NA
ATOM      3  C   UNL     1      36.491   5.316  14.713  0.00  0.00    +0.000 C 
ATOM      4  C   UNL     1      36.060   3.877  14.563  0.00  0.00    +0.000 C 
ATOM      5  C   UNL     1      37.315   3.097  14.466  0.00  0.00    +0.000 A 
ATOM      6  C   UNL     1      38.496   3.636  14.232  0.00  0.00    +0.000 A 
ATOM      7  N   UNL     1      39.395   2.639  14.211  0.00  0.00    +0.000 NA
ATOM      8  C   UNL     1      38.769   1.445  14.435  0.00  0.00    +0.000 A 
ATOM      9  C   UNL     1      39.202   0.134  14.517  0.00  0.00    +0.000 A 
ATOM     10  C   UNL     1      38.282  -0.867  14.763  0.00  0.00    +0.000 A 
ATOM     11  C   UNL     1      36.934  -0.636  14.936  0.00  0.00    +0.000 A 
ATOM     12  C   UNL     1      36.528   0.686  14.849  0.00  0.00    +0.000 A 
ATOM     13  C   UNL     1      37.426   1.701  14.604  0.00  0.00    +0.000 A 
ENDROOT
BRANCH   1  17
ATOM     14  C   UNL     1      38.790   6.230  18.214  0.00  0.00    +0.000 A 
ATOM     15  C   UNL     1      38.972   4.929  17.800  0.00  0.00    +0.000 A 
ATOM     16  C   UNL     1      38.979   4.605  16.468  0.00  0.00    +0.000 A 
ATOM     17  C   UNL     1      38.799   5.613  15.547  0.00  0.00    +0.000 A 
ATOM     18  C   UNL     1      38.621   6.883  15.910  0.00  0.00    +0.000 A 
ATOM     19  C   UNL     1      38.615   7.201  17.253  0.00  0.00    +0.000 A 
BRANCH  14  20
ATOM     20  O   UNL     1      38.798   6.465  19.580  0.00  0.00    +0.000 OA
BRANCH  20  21
ATOM     21  C   UNL     1      39.866   7.226  20.108  0.00  0.00    +0.000 C 
BRANCH  21  22
ATOM     22  C   UNL     1      41.180   6.441  20.002  0.00  0.00    +0.000 C 
BRANCH  22  24
ATOM     23  C   UNL     1      42.396   6.509  17.820  0.00  0.00    +0.000 C 
ATOM     24  C   UNL     1      42.170   7.167  19.152  0.00  0.00    +0.000 C 
ENDBRANCH  22  24
ENDBRANCH  21  22
ENDBRANCH  20  21
ENDBRANCH  14  20
ENDBRANCH   1  17
BRANCH  11  25
ATOM     25  O   UNL     1      36.053  -1.675  15.181  0.00  0.00    +0.000 OA
BRANCH  25  26
ATOM     26  C   UNL     1      35.557  -2.046  16.415  0.00  0.00    +0.000 C 
BRANCH  26  27
ATOM     27  C   UNL     1      36.581  -2.410  17.403  0.00  0.00    +0.000 A 
ATOM     28  C   UNL     1      37.459  -3.447  17.221  0.00  0.00    +0.000 A 
ATOM     29  C   UNL     1      38.419  -3.787  18.150  0.00  0.00    +0.000 A 
ATOM     30  C   UNL     1      38.518  -3.070  19.315  0.00  0.00    +0.000 A 
ATOM     31  C   UNL     1      37.651  -2.025  19.526  0.00  0.00    +0.000 A 
ATOM     32  C   UNL     1      36.680  -1.693  18.569  0.00  0.00    +0.000 A 
ENDBRANCH  26  27
ENDBRANCH  25  26
ENDBRANCH  11  25
TORSDOF 8
ENDMDL
MODEL 4
REMARK VINA RESULT:      -7.5      4.175      7.940
REMARK  Name = 
REMARK  8 active torsions:
REMARK  status: ('A' for Active; 'I' for Inactive)
REMARK    1  A    between atoms: C_2  and  C_3
REMARK    2  A    between atoms: C_3  and  C_4
REMARK    3  A    between atoms: C_4  and  O_5
REMARK    4  A    between atoms: O_5  and  C_6
REMARK    5  A    between atoms: C_9  and  C_10
REMARK    6  A    between atoms: C_20  and  O_21
REMARK    7  A    between atoms: O_21  and  C_22
REMARK    8  A    between atoms: C_22  and  C_23
REMARK                            x       y       z     vdW  Elec       q    Type
REMARK                         _______ _______ _______ _____ _____    ______ ____
ROOT
ATOM      1  C   UNL     1      38.258   4.287  13.654  0.00  0.00    +0.000 C 
ATOM      2  N   UNL     1      36.710   4.322  13.469  0.00  0.00    +0.000 NA
ATOM      3  C   UNL     1      36.078   3.942  14.676  0.00  0.00    +0.000 C 
ATOM      4  C   UNL     1      36.058   2.435  14.773  0.00  0.00    +0.000 C 
ATOM      5  C   UNL     1      37.462   2.008  14.578  0.00  0.00    +0.000 A 
ATOM      6  C   UNL     1      38.407   2.794  14.099  0.00  0.00    +0.000 A 
ATOM      7  N   UNL     1      39.542   2.078  14.061  0.00  0.00    +0.000 NA
ATOM      8  C   UNL     1      39.311   0.814  14.524  0.00  0.00    +0.000 A 
ATOM      9  C   UNL     1      40.103  -0.306  14.698  0.00  0.00    +0.000 A 
ATOM     10  C   UNL     1      39.539  -1.461  15.205  0.00  0.00    +0.000 A 
ATOM     11  C   UNL     1      38.210  -1.568  15.556  0.00  0.00    +0.000 A 
ATOM     12  C   UNL     1      37.440  -0.431  15.371  0.00  0.00    +0.000 A 
ATOM     13  C   UNL     1      37.979   0.731  14.867  0.00  0.00    +0.000 A 
ENDROOT
BRANCH   1  17
ATOM     14  C   UNL     1      38.291   6.284  17.498  0.00  0.00    +0.000 A 
ATOM     15  C   UNL     1      37.906   6.934  16.346  0.00  0.00    +0.000 A 
ATOM     16  C   UNL     1      37.900   6.287  15.137  0.00  0.00    +0.000 A 
ATOM     17  C   UNL     1      38.289   4.966  15.099  0.00  0.00    +0.000 A 
ATOM     18  C   UNL     1      38.667   4.305  16.192  0.00  0.00    +0.000 A 
ATOM     19  C   UNL     1      38.670   4.963  17.405  0.00  0.00    +0.000 A 
BRANCH  14  20
ATOM     20  O   UNL     1      38.266   7.016  18.675  0.00  0.00    +0.000 OA
BRANCH  20  21
ATOM     21  C   UNL     1      39.416   7.773  18.999  0.00  0.00    +0.000 C 
BRANCH  21  22
ATOM     22  C   UNL     1      40.067   7.228  20.277  0.00  0.00    +0.000 C 
BRANCH  22  24
ATOM     23  C   UNL     1      42.389   6.395  20.672  0.00  0.00    +0.000 C 
ATOM     24  C   UNL     1      41.085   6.185  19.954  0.00  0.00    +0.000 C 
ENDBRANCH  22  24
ENDBRANCH  21  22
ENDBRANCH  20  21
ENDBRANCH  14  20
ENDBRANCH   1  17
BRANCH  11  25
ATOM     25  O   UNL     1      37.693  -2.749  16.060  0.00  0.00    +0.000 OA
BRANCH  25  26
ATOM     26  C   UNL     1      36.499  -2.889  16.739  0.00  0.00    +0.000 C 
BRANCH  26  27
ATOM     27  C   UNL     1      35.566  -3.856  16.148  0.00  0.00    +0.000 A 
ATOM     28  C   UNL     1      35.841  -5.195  16.049  0.00  0.00    +0.000 A 
ATOM     29  C   UNL     1      34.963  -6.101  15.493  0.00  0.00    +0.000 A 
ATOM     30  C   UNL     1      33.755  -5.665  15.011  0.00  0.00    +0.000 A 
ATOM     31  C   UNL     1      33.451  -4.328  15.096  0.00  0.00    +0.000 A 
ATOM     32  C   UNL     1      34.357  -3.419  15.665  0.00  0.00    +0.000 A 
ENDBRANCH  26  27
ENDBRANCH  25  26
ENDBRANCH  11  25
TORSDOF 8
ENDMDL
MODEL 5
REMARK VINA RESULT:      -7.4      4.366      7.637
REMARK  Name = 
REMARK  8 active torsions:
REMARK  status: ('A' for Active; 'I' for Inactive)
REMARK    1  A    between atoms: C_2  and  C_3
REMARK    2  A    between atoms: C_3  and  C_4
REMARK    3  A    between atoms: C_4  and  O_5
REMARK    4  A    between atoms: O_5  and  C_6
REMARK    5  A    between atoms: C_9  and  C_10
REMARK    6  A    between atoms: C_20  and  O_21
REMARK    7  A    between atoms: O_21  and  C_22
REMARK    8  A    between atoms: C_22  and  C_23
REMARK                            x       y       z     vdW  Elec       q    Type
REMARK                         _______ _______ _______ _____ _____    ______ ____
ROOT
ATOM      1  C   UNL     1      37.169   1.603  12.744  0.00  0.00    +0.000 C 
ATOM      2  N   UNL     1      38.653   1.158  12.920  0.00  0.00    +0.000 NA
ATOM      3  C   UNL     1      39.005   1.210  14.290  0.00  0.00    +0.000 C 
ATOM      4  C   UNL     1      39.361   2.630  14.659  0.00  0.00    +0.000 C 
ATOM      5  C   UNL     1      38.208   3.451  14.223  0.00  0.00    +0.000 A 
ATOM      6  C   UNL     1      37.268   3.019  13.404  0.00  0.00    +0.000 A 
ATOM      7  N   UNL     1      36.394   4.023  13.232  0.00  0.00    +0.000 NA
ATOM      8  C   UNL     1      36.788   5.112  13.957  0.00  0.00    +0.000 A 
ATOM      9  C   UNL     1      36.272   6.382  14.141  0.00  0.00    +0.000 A 
ATOM     10  C   UNL     1      36.938   7.269  14.964  0.00  0.00    +0.000 A 
ATOM     11  C   UNL     1      38.107   6.961  15.628  0.00  0.00    +0.000 A 
ATOM     12  C   UNL     1      38.600   5.682  15.426  0.00  0.00    +0.000 A 
ATOM     13  C   UNL     1      37.955   4.781  14.609  0.00  0.00    +0.000 A 
ENDROOT
BRANCH   1  17
ATOM     14  C   UNL     1      35.651  -0.719  16.070  0.00  0.00    +0.000 A 
ATOM     15  C   UNL     1      36.408  -1.291  15.072  0.00  0.00    +0.000 A 
ATOM     16  C   UNL     1      36.882  -0.541  14.026  0.00  0.00    +0.000 A 
ATOM     17  C   UNL     1      36.584   0.803  13.995  0.00  0.00    +0.000 A 
ATOM     18  C   UNL     1      35.855   1.390  14.943  0.00  0.00    +0.000 A 
ATOM     19  C   UNL     1      35.381   0.629  15.992  0.00  0.00    +0.000 A 
BRANCH  14  20
ATOM     20  O   UNL     1      35.214  -1.554  17.088  0.00  0.00    +0.000 OA
BRANCH  20  21
ATOM     21  C   UNL     1      36.149  -2.464  17.634  0.00  0.00    +0.000 C 
BRANCH  21  22
ATOM     22  C   UNL     1      36.968  -1.783  18.738  0.00  0.00    +0.000 C 
BRANCH  22  24
ATOM     23  C   UNL     1      38.820  -2.984  17.566  0.00  0.00    +0.000 C 
ATOM     24  C   UNL     1      38.321  -2.404  18.860  0.00  0.00    +0.000 C 
ENDBRANCH  22  24
ENDBRANCH  21  22
ENDBRANCH  20  21
ENDBRANCH  14  20
ENDBRANCH   1  17
BRANCH  11  25
ATOM     25  O   UNL     1      38.735   7.887  16.443  0.00  0.00    +0.000 OA
BRANCH  25  26
ATOM     26  C   UNL     1      38.674   7.929  17.821  0.00  0.00    +0.000 C 
BRANCH  26  27
ATOM     27  C   UNL     1      39.849   7.376  18.505  0.00  0.00    +0.000 A 
ATOM     28  C   UNL     1      39.820   6.936  19.804  0.00  0.00    +0.000 A 
ATOM     29  C   UNL     1      40.924   6.417  20.444  0.00  0.00    +0.000 A 
ATOM     30  C   UNL     1      42.117   6.327  19.772  0.00  0.00    +0.000 A 
ATOM     31  C   UNL     1      42.177   6.760  18.469  0.00  0.00    +0.000 A 
ATOM     32  C   UNL     1      41.043   7.286  17.833  0.00  0.00    +0.000 A 
ENDBRANCH  26  27
ENDBRANCH  25  26
ENDBRANCH  11  25
TORSDOF 8
ENDMDL
MODEL 6
REMARK VINA RESULT:      -7.4      2.436      3.255
REMARK  Name = 
REMARK  8 active torsions:
REMARK  status: ('A' for Active; 'I' for Inactive)
REMARK    1  A    between atoms: C_2  and  C_3
REMARK    2  A    between atoms: C_3  and  C_4
REMARK    3  A    between atoms: C_4  and  O_5
REMARK    4  A    between atoms: O_5  and  C_6
REMARK    5  A    between atoms: C_9  and  C_10
REMARK    6  A    between atoms: C_20  and  O_21
REMARK    7  A    between atoms: O_21  and  C_22
REMARK    8  A    between atoms: C_22  and  C_23
REMARK                            x       y       z     vdW  Elec       q    Type
REMARK                         _______ _______ _______ _____ _____    ______ ____
ROOT
ATOM      1  C   UNL     1      37.147  -0.823  13.844  0.00  0.00    +0.000 C 
ATOM      2  N   UNL     1      36.985  -1.667  15.145  0.00  0.00    +0.000 NA
ATOM      3  C   UNL     1      37.907  -1.217  16.120  0.00  0.00    +0.000 C 
ATOM      4  C   UNL     1      39.256  -1.841  15.854  0.00  0.00    +0.000 C 
ATOM      5  C   UNL     1      39.560  -1.531  14.438  0.00  0.00    +0.000 A 
ATOM      6  C   UNL     1      38.664  -1.097  13.574  0.00  0.00    +0.000 A 
ATOM      7  N   UNL     1      39.290  -0.925  12.399  0.00  0.00    +0.000 NA
ATOM      8  C   UNL     1      40.610  -1.258  12.522  0.00  0.00    +0.000 A 
ATOM      9  C   UNL     1      41.684  -1.269  11.651  0.00  0.00    +0.000 A 
ATOM     10  C   UNL     1      42.922  -1.673  12.110  0.00  0.00    +0.000 A 
ATOM     11  C   UNL     1      43.159  -2.073  13.409  0.00  0.00    +0.000 A 
ATOM     12  C   UNL     1      42.066  -2.052  14.259  0.00  0.00    +0.000 A 
ATOM     13  C   UNL     1      40.821  -1.654  13.824  0.00  0.00    +0.000 A 
ENDROOT
BRANCH   1  17
ATOM     14  C   UNL     1      37.370   3.008  15.852  0.00  0.00    +0.000 A 
ATOM     15  C   UNL     1      36.282   2.177  15.996  0.00  0.00    +0.000 A 
ATOM     16  C   UNL     1      36.227   0.966  15.354  0.00  0.00    +0.000 A 
ATOM     17  C   UNL     1      37.289   0.597  14.559  0.00  0.00    +0.000 A 
ATOM     18  C   UNL     1      38.359   1.376  14.396  0.00  0.00    +0.000 A 
ATOM     19  C   UNL     1      38.406   2.593  15.046  0.00  0.00    +0.000 A 
BRANCH  14  20
ATOM     20  O   UNL     1      37.338   4.213  16.538  0.00  0.00    +0.000 OA
BRANCH  20  21
ATOM     21  C   UNL     1      38.577   4.816  16.860  0.00  0.00    +0.000 C 
BRANCH  21  22
ATOM     22  C   UNL     1      38.828   4.738  18.372  0.00  0.00    +0.000 C 
BRANCH  22  24
ATOM     23  C   UNL     1      40.766   6.277  18.025  0.00  0.00    +0.000 C 
ATOM     24  C   UNL     1      39.556   5.948  18.855  0.00  0.00    +0.000 C 
ENDBRANCH  22  24
ENDBRANCH  21  22
ENDBRANCH  20  21
ENDBRANCH  14  20
ENDBRANCH   1  17
BRANCH  11  25
ATOM     25  O   UNL     1      44.420  -2.469  13.819  0.00  0.00    +0.000 OA
BRANCH  25  26
ATOM     26  C   UNL     1      45.462  -1.632  14.166  0.00  0.00    +0.000 C 
BRANCH  26  27
ATOM     27  C   UNL     1      45.655  -1.458  15.611  0.00  0.00    +0.000 A 
ATOM     28  C   UNL     1      46.030  -2.482  16.443  0.00  0.00    +0.000 A 
ATOM     29  C   UNL     1      46.211  -2.316  17.799  0.00  0.00    +0.000 A 
ATOM     30  C   UNL     1      46.012  -1.081  18.363  0.00  0.00    +0.000 A 
ATOM     31  C   UNL     1      45.635  -0.036  17.555  0.00  0.00    +0.000 A 
ATOM     32  C   UNL     1      45.456  -0.223  16.176  0.00  0.00    +0.000 A 
ENDBRANCH  26  27
ENDBRANCH  25  26
ENDBRANCH  11  25
TORSDOF 8
ENDMDL
MODEL 7
REMARK VINA RESULT:      -7.2      4.153      7.186
REMARK  Name = 
REMARK  8 active torsions:
REMARK  status: ('A' for Active; 'I' for Inactive)
REMARK    1  A    between atoms: C_2  and  C_3
REMARK    2  A    between atoms: C_3  and  C_4
REMARK    3  A    between atoms: C_4  and  O_5
REMARK    4  A    between atoms: O_5  and  C_6
REMARK    5  A    between atoms: C_9  and  C_10
REMARK    6  A    between atoms: C_20  and  O_21
REMARK    7  A    between atoms: O_21  and  C_22
REMARK    8  A    between atoms: C_22  and  C_23
REMARK                            x       y       z     vdW  Elec       q    Type
REMARK                         _______ _______ _______ _____ _____    ______ ____
ROOT
ATOM      1  C   UNL     1      38.123   0.235  12.051  0.00  0.00    +0.000 C 
ATOM      2  N   UNL     1      39.675   0.090  12.097  0.00  0.00    +0.000 NA
ATOM      3  C   UNL     1      40.108   0.057  13.444  0.00  0.00    +0.000 C 
ATOM      4  C   UNL     1      40.200   1.469  13.971  0.00  0.00    +0.000 C 
ATOM      5  C   UNL     1      38.877   2.078  13.699  0.00  0.00    +0.000 A 
ATOM      6  C   UNL     1      37.986   1.556  12.878  0.00  0.00    +0.000 A 
ATOM      7  N   UNL     1      36.918   2.370  12.877  0.00  0.00    +0.000 NA
ATOM      8  C   UNL     1      37.139   3.428  13.713  0.00  0.00    +0.000 A 
ATOM      9  C   UNL     1      36.395   4.535  14.081  0.00  0.00    +0.000 A 
ATOM     10  C   UNL     1      36.929   5.441  14.976  0.00  0.00    +0.000 A 
ATOM     11  C   UNL     1      38.181   5.308  15.538  0.00  0.00    +0.000 A 
ATOM     12  C   UNL     1      38.904   4.191  15.153  0.00  0.00    +0.000 A 
ATOM     13  C   UNL     1      38.393   3.274  14.261  0.00  0.00    +0.000 A 
ENDROOT
BRANCH   1  17
ATOM     14  C   UNL     1      37.158  -2.462  15.300  0.00  0.00    +0.000 A 
ATOM     15  C   UNL     1      36.661  -1.179  15.250  0.00  0.00    +0.000 A 
ATOM     16  C   UNL     1      36.975  -0.338  14.214  0.00  0.00    +0.000 A 
ATOM     17  C   UNL     1      37.803  -0.806  13.218  0.00  0.00    +0.000 A 
ATOM     18  C   UNL     1      38.303  -2.041  13.232  0.00  0.00    +0.000 A 
ATOM     19  C   UNL     1      37.982  -2.881  14.279  0.00  0.00    +0.000 A 
BRANCH  14  20
ATOM     20  O   UNL     1      36.788  -3.242  16.385  0.00  0.00    +0.000 OA
BRANCH  20  21
ATOM     21  C   UNL     1      35.483  -3.787  16.384  0.00  0.00    +0.000 C 
BRANCH  21  22
ATOM     22  C   UNL     1      35.479  -5.152  15.684  0.00  0.00    +0.000 C 
BRANCH  22  24
ATOM     23  C   UNL     1      33.263  -4.411  14.796  0.00  0.00    +0.000 C 
ATOM     24  C   UNL     1      34.542  -5.153  14.522  0.00  0.00    +0.000 C 
ENDBRANCH  22  24
ENDBRANCH  21  22
ENDBRANCH  20  21
ENDBRANCH  14  20
ENDBRANCH   1  17
BRANCH  11  25
ATOM     25  O   UNL     1      38.670   6.245  16.432  0.00  0.00    +0.000 OA
BRANCH  25  26
ATOM     26  C   UNL     1      38.714   6.112  17.805  0.00  0.00    +0.000 C 
BRANCH  26  27
ATOM     27  C   UNL     1      40.049   6.272  18.395  0.00  0.00    +0.000 A 
ATOM     28  C   UNL     1      40.274   6.266  19.748  0.00  0.00    +0.000 A 
ATOM     29  C   UNL     1      41.528   6.415  20.299  0.00  0.00    +0.000 A 
ATOM     30  C   UNL     1      42.614   6.579  19.477  0.00  0.00    +0.000 A 
ATOM     31  C   UNL     1      42.420   6.590  18.117  0.00  0.00    +0.000 A 
ATOM     32  C   UNL     1      41.136   6.436  17.572  0.00  0.00    +0.000 A 
ENDBRANCH  26  27
ENDBRANCH  25  26
ENDBRANCH  11  25
TORSDOF 8
ENDMDL
MODEL 8
REMARK VINA RESULT:      -7.1     28.459     32.259
REMARK  Name = 
REMARK  8 active torsions:
REMARK  status: ('A' for Active; 'I' for Inactive)
REMARK    1  A    between atoms: C_2  and  C_3
REMARK    2  A    between atoms: C_3  and  C_4
REMARK    3  A    between atoms: C_4  and  O_5
REMARK    4  A    between atoms: O_5  and  C_6
REMARK    5  A    between atoms: C_9  and  C_10
REMARK    6  A    between atoms: C_20  and  O_21
REMARK    7  A    between atoms: O_21  and  C_22
REMARK    8  A    between atoms: C_22  and  C_23
REMARK                            x       y       z     vdW  Elec       q    Type
REMARK                         _______ _______ _______ _____ _____    ______ ____
ROOT
ATOM      1  C   UNL     1      27.357  15.260  37.815  0.00  0.00    +0.000 C 
ATOM      2  N   UNL     1      27.850  16.669  38.267  0.00  0.00    +0.000 NA
ATOM      3  C   UNL     1      26.751  17.558  38.331  0.00  0.00    +0.000 C 
ATOM      4  C   UNL     1      26.452  18.079  36.946  0.00  0.00    +0.000 C 
ATOM      5  C   UNL     1      26.303  16.876  36.095  0.00  0.00    +0.000 A 
ATOM      6  C   UNL     1      26.689  15.669  36.460  0.00  0.00    +0.000 A 
ATOM      7  N   UNL     1      26.401  14.833  35.449  0.00  0.00    +0.000 NA
ATOM      8  C   UNL     1      25.822  15.527  34.424  0.00  0.00    +0.000 A 
ATOM      9  C   UNL     1      25.341  15.174  33.176  0.00  0.00    +0.000 A 
ATOM     10  C   UNL     1      24.802  16.148  32.359  0.00  0.00    +0.000 A 
ATOM     11  C   UNL     1      24.710  17.477  32.718  0.00  0.00    +0.000 A 
ATOM     12  C   UNL     1      25.200  17.802  33.973  0.00  0.00    +0.000 A 
ATOM     13  C   UNL     1      25.743  16.848  34.804  0.00  0.00    +0.000 A 
ENDROOT
BRANCH   1  17
ATOM     14  C   UNL     1      23.898  15.161  40.420  0.00  0.00    +0.000 A 
ATOM     15  C   UNL     1      25.178  15.263  40.918  0.00  0.00    +0.000 A 
ATOM     16  C   UNL     1      26.262  15.294  40.079  0.00  0.00    +0.000 A 
ATOM     17  C   UNL     1      26.044  15.221  38.722  0.00  0.00    +0.000 A 
ATOM     18  C   UNL     1      24.820  15.122  38.204  0.00  0.00    +0.000 A 
ATOM     19  C   UNL     1      23.734  15.091  39.055  0.00  0.00    +0.000 A 
BRANCH  14  20
ATOM     20  O   UNL     1      22.863  15.136  41.342  0.00  0.00    +0.000 OA
BRANCH  20  21
ATOM     21  C   UNL     1      21.957  16.222  41.339  0.00  0.00    +0.000 C 
BRANCH  21  22
ATOM     22  C   UNL     1      22.670  17.507  41.782  0.00  0.00    +0.000 C 
BRANCH  22  24
ATOM     23  C   UNL     1      23.447  18.723  39.741  0.00  0.00    +0.000 C 
ATOM     24  C   UNL     1      22.408  18.621  40.822  0.00  0.00    +0.000 C 
ENDBRANCH  22  24
ENDBRANCH  21  22
ENDBRANCH  20  21
ENDBRANCH  14  20
ENDBRANCH   1  17
BRANCH  11  25
ATOM     25  O   UNL     1      24.160  18.415  31.862  0.00  0.00    +0.000 OA
BRANCH  25  26
ATOM     26  C   UNL     1      23.021  19.159  32.096  0.00  0.00    +0.000 C 
BRANCH  26  27
ATOM     27  C   UNL     1      23.240  20.608  32.181  0.00  0.00    +0.000 A 
ATOM     28  C   UNL     1      24.476  21.166  32.384  0.00  0.00    +0.000 A 
ATOM     29  C   UNL     1      24.680  22.527  32.463  0.00  0.00    +0.000 A 
ATOM     30  C   UNL     1      23.613  23.380  32.336  0.00  0.00    +0.000 A 
ATOM     31  C   UNL     1      22.361  22.850  32.132  0.00  0.00    +0.000 A 
ATOM     32  C   UNL     1      22.172  21.462  32.054  0.00  0.00    +0.000 A 
ENDBRANCH  26  27
ENDBRANCH  25  26
ENDBRANCH  11  25
TORSDOF 8
ENDMDL
MODEL 9
REMARK VINA RESULT:      -7.1     11.419     14.256
REMARK  Name = 
REMARK  8 active torsions:
REMARK  status: ('A' for Active; 'I' for Inactive)
REMARK    1  A    between atoms: C_2  and  C_3
REMARK    2  A    between atoms: C_3  and  C_4
REMARK    3  A    between atoms: C_4  and  O_5
REMARK    4  A    between atoms: O_5  and  C_6
REMARK    5  A    between atoms: C_9  and  C_10
REMARK    6  A    between atoms: C_20  and  O_21
REMARK    7  A    between atoms: O_21  and  C_22
REMARK    8  A    between atoms: C_22  and  C_23
REMARK                            x       y       z     vdW  Elec       q    Type
REMARK                         _______ _______ _______ _____ _____    ______ ____
ROOT
ATOM      1  C   UNL     1      46.095   6.016  27.620  0.00  0.00    +0.000 C 
ATOM      2  N   UNL     1      45.742   7.525  27.791  0.00  0.00    +0.000 NA
ATOM      3  C   UNL     1      44.383   7.736  27.457  0.00  0.00    +0.000 C 
ATOM      4  C   UNL     1      44.252   7.849  25.957  0.00  0.00    +0.000 C 
ATOM      5  C   UNL     1      44.904   6.637  25.411  0.00  0.00    +0.000 A 
ATOM      6  C   UNL     1      45.694   5.850  26.116  0.00  0.00    +0.000 A 
ATOM      7  N   UNL     1      46.102   4.861  25.305  0.00  0.00    +0.000 NA
ATOM      8  C   UNL     1      45.559   5.025  24.062  0.00  0.00    +0.000 A 
ATOM      9  C   UNL     1      45.641   4.318  22.876  0.00  0.00    +0.000 A 
ATOM     10  C   UNL     1      44.947   4.770  21.771  0.00  0.00    +0.000 A 
ATOM     11  C   UNL     1      44.162   5.904  21.776  0.00  0.00    +0.000 A 
ATOM     12  C   UNL     1      44.097   6.592  22.977  0.00  0.00    +0.000 A 
ATOM     13  C   UNL     1      44.781   6.161  24.092  0.00  0.00    +0.000 A 
ENDROOT
BRANCH   1  17
ATOM     14  C   UNL     1      42.443   4.363  29.262  0.00  0.00    +0.000 A 
ATOM     15  C   UNL     1      42.860   4.072  27.982  0.00  0.00    +0.000 A 
ATOM     16  C   UNL     1      44.019   4.603  27.477  0.00  0.00    +0.000 A 
ATOM     17  C   UNL     1      44.763   5.437  28.282  0.00  0.00    +0.000 A 
ATOM     18  C   UNL     1      44.391   5.741  29.525  0.00  0.00    +0.000 A 
ATOM     19  C   UNL     1      43.223   5.202  30.025  0.00  0.00    +0.000 A 
BRANCH  14  20
ATOM     20  O   UNL     1      41.259   3.781  29.687  0.00  0.00    +0.000 OA
BRANCH  20  21
ATOM     21  C   UNL     1      40.050   4.428  29.339  0.00  0.00    +0.000 C 
BRANCH  21  22
ATOM     22  C   UNL     1      39.634   5.405  30.447  0.00  0.00    +0.000 C 
BRANCH  22  24
ATOM     23  C   UNL     1      40.332   7.107  28.755  0.00  0.00    +0.000 C 
ATOM     24  C   UNL     1      39.410   6.774  29.895  0.00  0.00    +0.000 C 
ENDBRANCH  22  24
ENDBRANCH  21  22
ENDBRANCH  20  21
ENDBRANCH  14  20
ENDBRANCH   1  17
BRANCH  11  25
ATOM     25  O   UNL     1      43.485   6.314  20.640  0.00  0.00    +0.000 OA
BRANCH  25  26
ATOM     26  C   UNL     1      42.311   7.039  20.612  0.00  0.00    +0.000 C 
BRANCH  26  27
ATOM     27  C   UNL     1      41.361   6.628  19.570  0.00  0.00    +0.000 A 
ATOM     28  C   UNL     1      40.040   6.364  19.825  0.00  0.00    +0.000 A 
ATOM     29  C   UNL     1      39.151   5.978  18.846  0.00  0.00    +0.000 A 
ATOM     30  C   UNL     1      39.584   5.847  17.551  0.00  0.00    +0.000 A 
ATOM     31  C   UNL     1      40.903   6.105  17.264  0.00  0.00    +0.000 A 
ATOM     32  C   UNL     1      41.795   6.497  18.274  0.00  0.00    +0.000 A 
ENDBRANCH  26  27
ENDBRANCH  25  26
ENDBRANCH  11  25
TORSDOF 8
ENDMDL
MODEL 10
REMARK VINA RESULT:      -7.1      4.213      7.965
REMARK  Name = 
REMARK  8 active torsions:
REMARK  status: ('A' for Active; 'I' for Inactive)
REMARK    1  A    between atoms: C_2  and  C_3
REMARK    2  A    between atoms: C_3  and  C_4
REMARK    3  A    between atoms: C_4  and  O_5
REMARK    4  A    between atoms: O_5  and  C_6
REMARK    5  A    between atoms: C_9  and  C_10
REMARK    6  A    between atoms: C_20  and  O_21
REMARK    7  A    between atoms: O_21  and  C_22
REMARK    8  A    between atoms: C_22  and  C_23
REMARK                            x       y       z     vdW  Elec       q    Type
REMARK                         _______ _______ _______ _____ _____    ______ ____
ROOT
ATOM      1  C   UNL     1      37.799   1.812  10.982  0.00  0.00    +0.000 C 
ATOM      2  N   UNL     1      39.020   2.690  10.572  0.00  0.00    +0.000 NA
ATOM      3  C   UNL     1      40.117   2.405  11.420  0.00  0.00    +0.000 C 
ATOM      4  C   UNL     1      39.962   3.176  12.709  0.00  0.00    +0.000 C 
ATOM      5  C   UNL     1      38.610   2.838  13.211  0.00  0.00    +0.000 A 
ATOM      6  C   UNL     1      37.681   2.257  12.478  0.00  0.00    +0.000 A 
ATOM      7  N   UNL     1      36.595   2.107  13.253  0.00  0.00    +0.000 NA
ATOM      8  C   UNL     1      36.842   2.605  14.501  0.00  0.00    +0.000 A 
ATOM      9  C   UNL     1      36.095   2.706  15.661  0.00  0.00    +0.000 A 
ATOM     10  C   UNL     1      36.662   3.281  16.781  0.00  0.00    +0.000 A 
ATOM     11  C   UNL     1      37.951   3.769  16.817  0.00  0.00    +0.000 A 
ATOM     12  C   UNL     1      38.676   3.654  15.642  0.00  0.00    +0.000 A 
ATOM     13  C   UNL     1      38.133   3.086  14.512  0.00  0.00    +0.000 A 
ENDROOT
BRANCH   1  17
ATOM     14  C   UNL     1      39.906  -1.897  11.735  0.00  0.00    +0.000 A 
ATOM     15  C   UNL     1      38.879  -1.469  12.546  0.00  0.00    +0.000 A 
ATOM     16  C   UNL     1      38.221  -0.293  12.293  0.00  0.00    +0.000 A 
ATOM     17  C   UNL     1      38.611   0.456  11.205  0.00  0.00    +0.000 A 
ATOM     18  C   UNL     1      39.600   0.073  10.398  0.00  0.00    +0.000 A 
ATOM     19  C   UNL     1      40.257  -1.112  10.660  0.00  0.00    +0.000 A 
BRANCH  14  20
ATOM     20  O   UNL     1      40.514  -3.098  12.067  0.00  0.00    +0.000 OA
BRANCH  20  21
ATOM     21  C   UNL     1      41.920  -3.100  12.219  0.00  0.00    +0.000 C 
BRANCH  21  22
ATOM     22  C   UNL     1      42.306  -2.547  13.597  0.00  0.00    +0.000 C 
BRANCH  22  24
ATOM     23  C   UNL     1      41.981  -0.104  14.016  0.00  0.00    +0.000 C 
ATOM     24  C   UNL     1      42.887  -1.177  13.479  0.00  0.00    +0.000 C 
ENDBRANCH  22  24
ENDBRANCH  21  22
ENDBRANCH  20  21
ENDBRANCH  14  20
ENDBRANCH   1  17
BRANCH  11  25
ATOM     25  O   UNL     1      38.473   4.336  17.967  0.00  0.00    +0.000 OA
BRANCH  25  26
ATOM     26  C   UNL     1      38.668   5.684  18.191  0.00  0.00    +0.000 C 
BRANCH  26  27
ATOM     27  C   UNL     1      40.044   6.054  18.547  0.00  0.00    +0.000 A 
ATOM     28  C   UNL     1      40.450   6.267  19.839  0.00  0.00    +0.000 A 
ATOM     29  C   UNL     1      41.741   6.614  20.171  0.00  0.00    +0.000 A 
ATOM     30  C   UNL     1      42.680   6.759  19.180  0.00  0.00    +0.000 A 
ATOM     31  C   UNL     1      42.302   6.552  17.875  0.00  0.00    +0.000 A 
ATOM     32  C   UNL     1      40.983   6.199  17.555  0.00  0.00    +0.000 A 
ENDBRANCH  26  27
ENDBRANCH  25  26
ENDBRANCH  11  25
TORSDOF 8
ENDMDL
