MODEL 1
REMARK VINA RESULT:      -8.2      0.000      0.000
REMARK  Name = 
REMARK  5 active torsions:
REMARK  status: ('A' for Active; 'I' for Inactive)
REMARK    1  A    between atoms: O_2  and  C_3
REMARK    2  A    between atoms: N_9  and  C_10
REMARK    3  A    between atoms: C_14  and  N_15
REMARK    4  A    between atoms: N_15  and  C_16
REMARK    5  A    between atoms: C_16  and  C_17
REMARK                            x       y       z     vdW  Elec       q    Type
REMARK                         _______ _______ _______ _____ _____    ______ ____
ROOT
ATOM      1  C   UNL     1      13.126  -1.560  27.136  0.00  0.00    +0.000 C 
ATOM      2  C   UNL     1      12.832  -0.547  28.379  0.00  0.00    +0.000 C 
ATOM      3  C   UNL     1      12.607   0.847  27.842  0.00  0.00    +0.000 C 
ATOM      4  C   UNL     1      13.963   1.444  27.519  0.00  0.00    +0.000 C 
ATOM      5  C   UNL     1      14.908  -0.008  27.514  0.00  0.00    +0.000 C 
ATOM      6  C   UNL     1      14.058  -0.588  26.263  0.00  0.00    +0.000 C 
ENDROOT
BRANCH   1  13
ATOM      7  C   UNL     1       9.683  -4.620  21.403  0.00  0.00    +0.000 A 
ATOM      8  C   UNL     1      10.787  -5.239  21.882  0.00  0.00    +0.000 A 
ATOM      9  C   UNL     1      11.495  -4.785  23.010  0.00  0.00    +0.000 A 
ATOM     10  C   UNL     1      11.020  -3.636  23.649  0.00  0.00    +0.000 A 
ATOM     11  N   UNL     1      11.640  -3.119  24.740  0.00  0.00    +0.000 NA
ATOM     12  C   UNL     1      11.232  -2.024  25.386  0.00  0.00    +0.000 A 
ATOM     13  N   UNL     1      11.813  -1.399  26.428  0.00  0.00    +0.000 NA
ATOM     14  C   UNL     1      10.090  -1.430  24.849  0.00  0.00    +0.000 A 
ATOM     15  C   UNL     1       9.420  -1.879  23.779  0.00  0.00    +0.000 A 
ATOM     16  C   UNL     1       8.217  -1.209  23.256  0.00  0.00    +0.000 C 
ATOM     17  C   UNL     1       9.914  -3.018  23.171  0.00  0.00    +0.000 A 
ATOM     18  C   UNL     1       9.215  -3.469  22.064  0.00  0.00    +0.000 A 
BRANCH   7  20
ATOM     19  C   UNL     1       8.456  -4.170  19.325  0.00  0.00    +0.000 C 
ATOM     20  O   UNL     1       8.966  -5.079  20.275  0.00  0.00    +0.000 OA
ENDBRANCH   7  20
ENDBRANCH   1  13
BRANCH   5  21
ATOM     21  N   UNL     1      16.063   0.682  26.744  0.00  0.00    +0.000 NA
BRANCH  21  22
ATOM     22  C   UNL     1      17.168  -0.244  27.043  0.00  0.00    +0.000 C 
BRANCH  22  23
ATOM     23  C   UNL     1      18.056  -0.461  25.873  0.00  0.00    +0.000 A 
ATOM     24  C   UNL     1      18.303  -1.695  25.298  0.00  0.00    +0.000 A 
ATOM     25  C   UNL     1      19.160  -1.534  24.201  0.00  0.00    +0.000 A 
ATOM     26  C   UNL     1      19.722  -2.377  23.267  0.00  0.00    +0.000 A 
ATOM     27  C   UNL     1      20.551  -1.894  22.263  0.00  0.00    +0.000 A 
ATOM     28  C   UNL     1      20.783  -0.533  22.250  0.00  0.00    +0.000 A 
ATOM     29  C   UNL     1      20.232   0.330  23.174  0.00  0.00    +0.000 A 
ATOM     30  C   UNL     1      19.401  -0.188  24.168  0.00  0.00    +0.000 A 
ATOM     31  O   UNL     1      18.738   0.394  25.160  0.00  0.00    +0.000 OA
ENDBRANCH  22  23
ENDBRANCH  21  22
ENDBRANCH   5  21
TORSDOF 5
ENDMDL
MODEL 2
REMARK VINA RESULT:      -8.1     24.128     28.036
REMARK  Name = 
REMARK  5 active torsions:
REMARK  status: ('A' for Active; 'I' for Inactive)
REMARK    1  A    between atoms: O_2  and  C_3
REMARK    2  A    between atoms: N_9  and  C_10
REMARK    3  A    between atoms: C_14  and  N_15
REMARK    4  A    between atoms: N_15  and  C_16
REMARK    5  A    between atoms: C_16  and  C_17
REMARK                            x       y       z     vdW  Elec       q    Type
REMARK                         _______ _______ _______ _____ _____    ______ ____
ROOT
ATOM      1  C   UNL     1      38.494   3.925  15.861  0.00  0.00    +0.000 C 
ATOM      2  C   UNL     1      38.032   4.801  14.566  0.00  0.00    +0.000 C 
ATOM      3  C   UNL     1      36.605   5.259  14.760  0.00  0.00    +0.000 C 
ATOM      4  C   UNL     1      35.695   4.087  14.445  0.00  0.00    +0.000 C 
ATOM      5  C   UNL     1      36.860   2.807  14.518  0.00  0.00    +0.000 C 
ATOM      6  C   UNL     1      37.131   3.108  16.086  0.00  0.00    +0.000 C 
ENDROOT
BRANCH   1  13
ATOM      7  C   UNL     1      42.956   8.060  19.993  0.00  0.00    +0.000 A 
ATOM      8  C   UNL     1      43.507   7.359  18.975  0.00  0.00    +0.000 A 
ATOM      9  C   UNL     1      42.750   6.581  18.079  0.00  0.00    +0.000 A 
ATOM     10  C   UNL     1      41.366   6.544  18.270  0.00  0.00    +0.000 A 
ATOM     11  N   UNL     1      40.554   5.817  17.461  0.00  0.00    +0.000 NA
ATOM     12  C   UNL     1      39.228   5.742  17.600  0.00  0.00    +0.000 A 
ATOM     13  N   UNL     1      38.350   5.001  16.896  0.00  0.00    +0.000 NA
ATOM     14  C   UNL     1      38.717   6.486  18.664  0.00  0.00    +0.000 A 
ATOM     15  C   UNL     1      39.450   7.229  19.504  0.00  0.00    +0.000 A 
ATOM     16  C   UNL     1      38.854   7.996  20.612  0.00  0.00    +0.000 C 
ATOM     17  C   UNL     1      40.815   7.247  19.288  0.00  0.00    +0.000 A 
ATOM     18  C   UNL     1      41.560   8.015  20.166  0.00  0.00    +0.000 A 
BRANCH   7  20
ATOM     19  C   UNL     1      45.115   8.948  20.752  0.00  0.00    +0.000 C 
ATOM     20  O   UNL     1      43.715   8.847  20.889  0.00  0.00    +0.000 OA
ENDBRANCH   7  20
ENDBRANCH   1  13
BRANCH   5  21
ATOM     21  N   UNL     1      35.750   1.733  14.649  0.00  0.00    +0.000 NA
BRANCH  21  22
ATOM     22  C   UNL     1      36.526   0.517  14.352  0.00  0.00    +0.000 C 
BRANCH  22  23
ATOM     23  C   UNL     1      36.866  -0.250  15.576  0.00  0.00    +0.000 A 
ATOM     24  C   UNL     1      37.827  -1.244  15.636  0.00  0.00    +0.000 A 
ATOM     25  C   UNL     1      37.908  -1.737  16.945  0.00  0.00    +0.000 A 
ATOM     26  C   UNL     1      38.669  -2.690  17.586  0.00  0.00    +0.000 A 
ATOM     27  C   UNL     1      38.512  -2.948  18.941  0.00  0.00    +0.000 A 
ATOM     28  C   UNL     1      37.559  -2.206  19.610  0.00  0.00    +0.000 A 
ATOM     29  C   UNL     1      36.786  -1.246  18.990  0.00  0.00    +0.000 A 
ATOM     30  C   UNL     1      36.971  -1.010  17.627  0.00  0.00    +0.000 A 
ATOM     31  O   UNL     1      36.390  -0.159  16.789  0.00  0.00    +0.000 OA
ENDBRANCH  22  23
ENDBRANCH  21  22
ENDBRANCH   5  21
TORSDOF 5
ENDMDL
MODEL 3
REMARK VINA RESULT:      -8.0     23.014     25.683
REMARK  Name = 
REMARK  5 active torsions:
REMARK  status: ('A' for Active; 'I' for Inactive)
REMARK    1  A    between atoms: O_2  and  C_3
REMARK    2  A    between atoms: N_9  and  C_10
REMARK    3  A    between atoms: C_14  and  N_15
REMARK    4  A    between atoms: N_15  and  C_16
REMARK    5  A    between atoms: C_16  and  C_17
REMARK                            x       y       z     vdW  Elec       q    Type
REMARK                         _______ _______ _______ _____ _____    ______ ____
ROOT
ATOM      1  C   UNL     1      25.892  15.940  39.641  0.00  0.00    +0.000 C 
ATOM      2  C   UNL     1      27.178  15.182  40.298  0.00  0.00    +0.000 C 
ATOM      3  C   UNL     1      27.017  13.690  40.123  0.00  0.00    +0.000 C 
ATOM      4  C   UNL     1      26.039  13.202  41.174  0.00  0.00    +0.000 C 
ATOM      5  C   UNL     1      25.340  14.722  41.626  0.00  0.00    +0.000 C 
ATOM      6  C   UNL     1      24.751  14.923  40.130  0.00  0.00    +0.000 C 
ENDROOT
BRANCH   1  13
ATOM      7  C   UNL     1      24.423  18.488  32.901  0.00  0.00    +0.000 A 
ATOM      8  C   UNL     1      24.304  19.346  33.942  0.00  0.00    +0.000 A 
ATOM      9  C   UNL     1      24.616  18.994  35.268  0.00  0.00    +0.000 A 
ATOM     10  C   UNL     1      25.065  17.691  35.499  0.00  0.00    +0.000 A 
ATOM     11  N   UNL     1      25.383  17.257  36.745  0.00  0.00    +0.000 NA
ATOM     12  C   UNL     1      25.813  16.025  37.024  0.00  0.00    +0.000 A 
ATOM     13  N   UNL     1      26.088  15.483  38.226  0.00  0.00    +0.000 NA
ATOM     14  C   UNL     1      25.918  15.186  35.914  0.00  0.00    +0.000 A 
ATOM     15  C   UNL     1      25.626  15.538  34.654  0.00  0.00    +0.000 A 
ATOM     16  C   UNL     1      25.757  14.609  33.519  0.00  0.00    +0.000 C 
ATOM     17  C   UNL     1      25.186  16.834  34.458  0.00  0.00    +0.000 A 
ATOM     18  C   UNL     1      24.884  17.183  33.153  0.00  0.00    +0.000 A 
BRANCH   7  20
ATOM     19  C   UNL     1      23.175  19.855  31.288  0.00  0.00    +0.000 C 
ATOM     20  O   UNL     1      24.118  18.843  31.568  0.00  0.00    +0.000 OA
ENDBRANCH   7  20
ENDBRANCH   1  13
BRANCH   5  21
ATOM     21  N   UNL     1      24.126  14.026  42.291  0.00  0.00    +0.000 NA
BRANCH  21  22
ATOM     22  C   UNL     1      23.167  15.143  42.320  0.00  0.00    +0.000 C 
BRANCH  22  23
ATOM     23  C   UNL     1      21.760  14.679  42.418  0.00  0.00    +0.000 A 
ATOM     24  C   UNL     1      20.727  15.422  42.964  0.00  0.00    +0.000 A 
ATOM     25  C   UNL     1      19.532  14.696  42.871  0.00  0.00    +0.000 A 
ATOM     26  C   UNL     1      18.219  14.924  43.222  0.00  0.00    +0.000 A 
ATOM     27  C   UNL     1      17.232  13.978  42.981  0.00  0.00    +0.000 A 
ATOM     28  C   UNL     1      17.631  12.803  42.375  0.00  0.00    +0.000 A 
ATOM     29  C   UNL     1      18.938  12.552  42.014  0.00  0.00    +0.000 A 
ATOM     30  C   UNL     1      19.906  13.526  42.269  0.00  0.00    +0.000 A 
ATOM     31  O   UNL     1      21.210  13.562  42.026  0.00  0.00    +0.000 OA
ENDBRANCH  22  23
ENDBRANCH  21  22
ENDBRANCH   5  21
TORSDOF 5
ENDMDL
MODEL 4
REMARK VINA RESULT:      -7.9     22.605     25.721
REMARK  Name = 
REMARK  5 active torsions:
REMARK  status: ('A' for Active; 'I' for Inactive)
REMARK    1  A    between atoms: O_2  and  C_3
REMARK    2  A    between atoms: N_9  and  C_10
REMARK    3  A    between atoms: C_14  and  N_15
REMARK    4  A    between atoms: N_15  and  C_16
REMARK    5  A    between atoms: C_16  and  C_17
REMARK                            x       y       z     vdW  Elec       q    Type
REMARK                         _______ _______ _______ _____ _____    ______ ____
ROOT
ATOM      1  C   UNL     1      30.294  15.707  36.311  0.00  0.00    +0.000 C 
ATOM      2  C   UNL     1      31.612  15.329  35.428  0.00  0.00    +0.000 C 
ATOM      3  C   UNL     1      31.633  13.838  35.182  0.00  0.00    +0.000 C 
ATOM      4  C   UNL     1      32.137  13.166  36.445  0.00  0.00    +0.000 C 
ATOM      5  C   UNL     1      31.927  14.478  37.557  0.00  0.00    +0.000 C 
ATOM      6  C   UNL     1      30.325  14.458  37.318  0.00  0.00    +0.000 C 
ENDROOT
BRANCH   1  13
ATOM      7  C   UNL     1      24.283  18.509  33.135  0.00  0.00    +0.000 A 
ATOM      8  C   UNL     1      25.105  19.360  33.794  0.00  0.00    +0.000 A 
ATOM      9  C   UNL     1      26.314  18.954  34.388  0.00  0.00    +0.000 A 
ATOM     10  C   UNL     1      26.661  17.604  34.285  0.00  0.00    +0.000 A 
ATOM     11  N   UNL     1      27.803  17.118  34.832  0.00  0.00    +0.000 NA
ATOM     12  C   UNL     1      28.182  15.839  34.766  0.00  0.00    +0.000 A 
ATOM     13  N   UNL     1      29.255  15.251  35.330  0.00  0.00    +0.000 NA
ATOM     14  C   UNL     1      27.298  15.011  34.075  0.00  0.00    +0.000 A 
ATOM     15  C   UNL     1      26.153  15.413  33.505  0.00  0.00    +0.000 A 
ATOM     16  C   UNL     1      25.257  14.492  32.786  0.00  0.00    +0.000 C 
ATOM     17  C   UNL     1      25.839  16.754  33.624  0.00  0.00    +0.000 A 
ATOM     18  C   UNL     1      24.652  17.155  33.035  0.00  0.00    +0.000 A 
BRANCH   7  20
ATOM     19  C   UNL     1      23.000  20.124  31.802  0.00  0.00    +0.000 C 
ATOM     20  O   UNL     1      23.072  18.917  32.531  0.00  0.00    +0.000 OA
ENDBRANCH   7  20
ENDBRANCH   1  13
BRANCH   5  21
ATOM     21  N   UNL     1      32.018  13.529  38.778  0.00  0.00    +0.000 NA
BRANCH  21  22
ATOM     22  C   UNL     1      30.655  13.663  39.318  0.00  0.00    +0.000 C 
BRANCH  22  23
ATOM     23  C   UNL     1      30.153  12.397  39.907  0.00  0.00    +0.000 A 
ATOM     24  C   UNL     1      30.926  11.266  40.108  0.00  0.00    +0.000 A 
ATOM     25  C   UNL     1      30.144  10.268  40.705  0.00  0.00    +0.000 A 
ATOM     26  C   UNL     1      30.368   8.978  41.137  0.00  0.00    +0.000 A 
ATOM     27  C   UNL     1      29.356   8.224  41.716  0.00  0.00    +0.000 A 
ATOM     28  C   UNL     1      28.120   8.829  41.833  0.00  0.00    +0.000 A 
ATOM     29  C   UNL     1      27.872  10.118  41.409  0.00  0.00    +0.000 A 
ATOM     30  C   UNL     1      28.912  10.849  40.834  0.00  0.00    +0.000 A 
ATOM     31  O   UNL     1      28.966  12.086  40.355  0.00  0.00    +0.000 OA
ENDBRANCH  22  23
ENDBRANCH  21  22
ENDBRANCH   5  21
TORSDOF 5
ENDMDL
MODEL 5
REMARK VINA RESULT:      -7.9     26.399     29.623
REMARK  Name = 
REMARK  5 active torsions:
REMARK  status: ('A' for Active; 'I' for Inactive)
REMARK    1  A    between atoms: O_2  and  C_3
REMARK    2  A    between atoms: N_9  and  C_10
REMARK    3  A    between atoms: C_14  and  N_15
REMARK    4  A    between atoms: N_15  and  C_16
REMARK    5  A    between atoms: C_16  and  C_17
REMARK                            x       y       z     vdW  Elec       q    Type
REMARK                         _______ _______ _______ _____ _____    ______ ____
ROOT
ATOM      1  C   UNL     1      44.168   7.242  21.783  0.00  0.00    +0.000 C 
ATOM      2  C   UNL     1      45.473   6.408  21.272  0.00  0.00    +0.000 C 
ATOM      3  C   UNL     1      45.223   4.930  21.462  0.00  0.00    +0.000 C 
ATOM      4  C   UNL     1      45.441   4.608  22.928  0.00  0.00    +0.000 C 
ATOM      5  C   UNL     1      45.376   6.214  23.575  0.00  0.00    +0.000 C 
ATOM      6  C   UNL     1      43.838   6.374  23.092  0.00  0.00    +0.000 C 
ENDROOT
BRANCH   1  13
ATOM      7  C   UNL     1      37.402   8.895  19.424  0.00  0.00    +0.000 A 
ATOM      8  C   UNL     1      38.066   9.829  20.145  0.00  0.00    +0.000 A 
ATOM      9  C   UNL     1      39.386   9.654  20.599  0.00  0.00    +0.000 A 
ATOM     10  C   UNL     1      40.022   8.450  20.281  0.00  0.00    +0.000 A 
ATOM     11  N   UNL     1      41.292   8.188  20.680  0.00  0.00    +0.000 NA
ATOM     12  C   UNL     1      41.945   7.056  20.408  0.00  0.00    +0.000 A 
ATOM     13  N   UNL     1      43.173   6.676  20.814  0.00  0.00    +0.000 NA
ATOM     14  C   UNL     1      41.213   6.132  19.662  0.00  0.00    +0.000 A 
ATOM     15  C   UNL     1      39.958   6.316  19.228  0.00  0.00    +0.000 A 
ATOM     16  C   UNL     1      39.233   5.304  18.441  0.00  0.00    +0.000 C 
ATOM     17  C   UNL     1      39.358   7.518  19.558  0.00  0.00    +0.000 A 
ATOM     18  C   UNL     1      38.060   7.693  19.108  0.00  0.00    +0.000 A 
BRANCH   7  20
ATOM     19  C   UNL     1      35.828   9.530  17.650  0.00  0.00    +0.000 C 
ATOM     20  O   UNL     1      36.078   9.073  18.961  0.00  0.00    +0.000 OA
ENDBRANCH   7  20
ENDBRANCH   1  13
BRANCH   5  21
ATOM     21  N   UNL     1      45.142   5.684  25.012  0.00  0.00    +0.000 NA
BRANCH  21  22
ATOM     22  C   UNL     1      44.303   6.765  25.557  0.00  0.00    +0.000 C 
BRANCH  22  23
ATOM     23  C   UNL     1      43.419   6.296  26.653  0.00  0.00    +0.000 A 
ATOM     24  C   UNL     1      43.305   4.977  27.057  0.00  0.00    +0.000 A 
ATOM     25  C   UNL     1      42.407   4.894  28.130  0.00  0.00    +0.000 A 
ATOM     26  C   UNL     1      41.925   3.877  28.926  0.00  0.00    +0.000 A 
ATOM     27  C   UNL     1      41.020   4.127  29.948  0.00  0.00    +0.000 A 
ATOM     28  C   UNL     1      40.628   5.439  30.125  0.00  0.00    +0.000 A 
ATOM     29  C   UNL     1      41.097   6.473  29.342  0.00  0.00    +0.000 A 
ATOM     30  C   UNL     1      42.008   6.188  28.324  0.00  0.00    +0.000 A 
ATOM     31  O   UNL     1      42.622   6.966  27.441  0.00  0.00    +0.000 OA
ENDBRANCH  22  23
ENDBRANCH  21  22
ENDBRANCH   5  21
TORSDOF 5
ENDMDL
MODEL 6
REMARK VINA RESULT:      -7.7     23.946     26.422
REMARK  Name = 
REMARK  5 active torsions:
REMARK  status: ('A' for Active; 'I' for Inactive)
REMARK    1  A    between atoms: O_2  and  C_3
REMARK    2  A    between atoms: N_9  and  C_10
REMARK    3  A    between atoms: C_14  and  N_15
REMARK    4  A    between atoms: N_15  and  C_16
REMARK    5  A    between atoms: C_16  and  C_17
REMARK                            x       y       z     vdW  Elec       q    Type
REMARK                         _______ _______ _______ _____ _____    ______ ____
ROOT
ATOM      1  C   UNL     1      35.418   4.473  14.670  0.00  0.00    +0.000 C 
ATOM      2  C   UNL     1      35.589   5.156  13.199  0.00  0.00    +0.000 C 
ATOM      3  C   UNL     1      36.992   4.905  12.695  0.00  0.00    +0.000 C 
ATOM      4  C   UNL     1      37.916   5.885  13.392  0.00  0.00    +0.000 C 
ATOM      5  C   UNL     1      36.875   6.371  14.689  0.00  0.00    +0.000 C 
ATOM      6  C   UNL     1      36.855   4.860  15.272  0.00  0.00    +0.000 C 
ENDROOT
BRANCH   1  13
ATOM      7  C   UNL     1      37.072  -1.878  17.989  0.00  0.00    +0.000 A 
ATOM      8  C   UNL     1      36.685  -0.839  18.767  0.00  0.00    +0.000 A 
ATOM      9  C   UNL     1      36.286   0.405  18.245  0.00  0.00    +0.000 A 
ATOM     10  C   UNL     1      36.299   0.555  16.855  0.00  0.00    +0.000 A 
ATOM     11  N   UNL     1      35.937   1.719  16.260  0.00  0.00    +0.000 NA
ATOM     12  C   UNL     1      35.934   1.918  14.940  0.00  0.00    +0.000 A 
ATOM     13  N   UNL     1      35.659   3.049  14.262  0.00  0.00    +0.000 NA
ATOM     14  C   UNL     1      36.340   0.815  14.190  0.00  0.00    +0.000 A 
ATOM     15  C   UNL     1      36.710  -0.368  14.700  0.00  0.00    +0.000 A 
ATOM     16  C   UNL     1      37.128  -1.501  13.857  0.00  0.00    +0.000 C 
ATOM     17  C   UNL     1      36.684  -0.485  16.078  0.00  0.00    +0.000 A 
ATOM     18  C   UNL     1      37.072  -1.710  16.592  0.00  0.00    +0.000 A 
BRANCH   7  20
ATOM     19  C   UNL     1      38.523  -3.224  19.441  0.00  0.00    +0.000 C 
ATOM     20  O   UNL     1      37.466  -3.131  18.511  0.00  0.00    +0.000 OA
ENDBRANCH   7  20
ENDBRANCH   1  13
BRANCH   5  21
ATOM     21  N   UNL     1      38.065   6.945  15.500  0.00  0.00    +0.000 NA
BRANCH  21  22
ATOM     22  C   UNL     1      38.230   5.885  16.509  0.00  0.00    +0.000 C 
BRANCH  22  23
ATOM     23  C   UNL     1      39.423   6.101  17.366  0.00  0.00    +0.000 A 
ATOM     24  C   UNL     1      39.414   6.041  18.749  0.00  0.00    +0.000 A 
ATOM     25  C   UNL     1      40.709   6.266  19.233  0.00  0.00    +0.000 A 
ATOM     26  C   UNL     1      41.293   6.310  20.481  0.00  0.00    +0.000 A 
ATOM     27  C   UNL     1      42.651   6.556  20.635  0.00  0.00    +0.000 A 
ATOM     28  C   UNL     1      43.382   6.754  19.481  0.00  0.00    +0.000 A 
ATOM     29  C   UNL     1      42.820   6.714  18.222  0.00  0.00    +0.000 A 
ATOM     30  C   UNL     1      41.453   6.462  18.102  0.00  0.00    +0.000 A 
ATOM     31  O   UNL     1      40.661   6.358  17.041  0.00  0.00    +0.000 OA
ENDBRANCH  22  23
ENDBRANCH  21  22
ENDBRANCH   5  21
TORSDOF 5
ENDMDL
MODEL 7
REMARK VINA RESULT:      -7.6     24.120     28.705
REMARK  Name = 
REMARK  5 active torsions:
REMARK  status: ('A' for Active; 'I' for Inactive)
REMARK    1  A    between atoms: O_2  and  C_3
REMARK    2  A    between atoms: N_9  and  C_10
REMARK    3  A    between atoms: C_14  and  N_15
REMARK    4  A    between atoms: N_15  and  C_16
REMARK    5  A    between atoms: C_16  and  C_17
REMARK                            x       y       z     vdW  Elec       q    Type
REMARK                         _______ _______ _______ _____ _____    ______ ____
ROOT
ATOM      1  C   UNL     1      36.854   3.343  14.762  0.00  0.00    +0.000 C 
ATOM      2  C   UNL     1      35.287   3.155  15.173  0.00  0.00    +0.000 C 
ATOM      3  C   UNL     1      35.203   2.359  16.455  0.00  0.00    +0.000 C 
ATOM      4  C   UNL     1      35.413   0.898  16.109  0.00  0.00    +0.000 C 
ATOM      5  C   UNL     1      36.095   1.085  14.527  0.00  0.00    +0.000 C 
ATOM      6  C   UNL     1      37.370   1.872  15.143  0.00  0.00    +0.000 C 
ENDROOT
BRANCH   1  13
ATOM      7  C   UNL     1      42.829   7.042  16.928  0.00  0.00    +0.000 A 
ATOM      8  C   UNL     1      42.742   6.688  15.624  0.00  0.00    +0.000 A 
ATOM      9  C   UNL     1      41.623   6.033  15.078  0.00  0.00    +0.000 A 
ATOM     10  C   UNL     1      40.564   5.741  15.942  0.00  0.00    +0.000 A 
ATOM     11  N   UNL     1      39.446   5.106  15.509  0.00  0.00    +0.000 NA
ATOM     12  C   UNL     1      38.407   4.799  16.289  0.00  0.00    +0.000 A 
ATOM     13  N   UNL     1      37.290   4.115  15.971  0.00  0.00    +0.000 NA
ATOM     14  C   UNL     1      38.551   5.188  17.621  0.00  0.00    +0.000 A 
ATOM     15  C   UNL     1      39.620   5.820  18.125  0.00  0.00    +0.000 A 
ATOM     16  C   UNL     1      39.717   6.209  19.543  0.00  0.00    +0.000 C 
ATOM     17  C   UNL     1      40.650   6.097  17.245  0.00  0.00    +0.000 A 
ATOM     18  C   UNL     1      41.749   6.746  17.781  0.00  0.00    +0.000 A 
BRANCH   7  20
ATOM     19  C   UNL     1      44.942   6.990  18.177  0.00  0.00    +0.000 C 
ATOM     20  O   UNL     1      43.949   7.707  17.476  0.00  0.00    +0.000 OA
ENDBRANCH   7  20
ENDBRANCH   1  13
BRANCH   5  21
ATOM     21  N   UNL     1      36.653  -0.361  14.538  0.00  0.00    +0.000 NA
BRANCH  21  22
ATOM     22  C   UNL     1      37.289  -0.407  13.211  0.00  0.00    +0.000 C 
BRANCH  22  23
ATOM     23  C   UNL     1      38.670  -0.947  13.264  0.00  0.00    +0.000 A 
ATOM     24  C   UNL     1      39.104  -2.057  12.559  0.00  0.00    +0.000 A 
ATOM     25  C   UNL     1      40.465  -2.271  12.820  0.00  0.00    +0.000 A 
ATOM     26  C   UNL     1      41.408  -3.185  12.403  0.00  0.00    +0.000 A 
ATOM     27  C   UNL     1      42.721  -3.123  12.850  0.00  0.00    +0.000 A 
ATOM     28  C   UNL     1      43.031  -2.105  13.730  0.00  0.00    +0.000 A 
ATOM     29  C   UNL     1      42.104  -1.178  14.160  0.00  0.00    +0.000 A 
ATOM     30  C   UNL     1      40.794  -1.268  13.689  0.00  0.00    +0.000 A 
ATOM     31  O   UNL     1      39.718  -0.525  13.919  0.00  0.00    +0.000 OA
ENDBRANCH  22  23
ENDBRANCH  21  22
ENDBRANCH   5  21
TORSDOF 5
ENDMDL
MODEL 8
REMARK VINA RESULT:      -7.6     22.359     26.188
REMARK  Name = 
REMARK  5 active torsions:
REMARK  status: ('A' for Active; 'I' for Inactive)
REMARK    1  A    between atoms: O_2  and  C_3
REMARK    2  A    between atoms: N_9  and  C_10
REMARK    3  A    between atoms: C_14  and  N_15
REMARK    4  A    between atoms: N_15  and  C_16
REMARK    5  A    between atoms: C_16  and  C_17
REMARK                            x       y       z     vdW  Elec       q    Type
REMARK                         _______ _______ _______ _____ _____    ______ ____
ROOT
ATOM      1  C   UNL     1      38.220   2.335  14.635  0.00  0.00    +0.000 C 
ATOM      2  C   UNL     1      38.036   3.820  15.285  0.00  0.00    +0.000 C 
ATOM      3  C   UNL     1      36.596   4.252  15.134  0.00  0.00    +0.000 C 
ATOM      4  C   UNL     1      36.400   4.721  13.705  0.00  0.00    +0.000 C 
ATOM      5  C   UNL     1      37.818   4.027  12.991  0.00  0.00    +0.000 C 
ATOM      6  C   UNL     1      37.295   2.535  13.339  0.00  0.00    +0.000 C 
ENDROOT
BRANCH   1  13
ATOM      7  C   UNL     1      35.396  -4.437  15.117  0.00  0.00    +0.000 A 
ATOM      8  C   UNL     1      36.432  -4.243  14.267  0.00  0.00    +0.000 A 
ATOM      9  C   UNL     1      37.095  -3.009  14.133  0.00  0.00    +0.000 A 
ATOM     10  C   UNL     1      36.644  -1.947  14.922  0.00  0.00    +0.000 A 
ATOM     11  N   UNL     1      37.216  -0.718  14.857  0.00  0.00    +0.000 NA
ATOM     12  C   UNL     1      36.824   0.332  15.583  0.00  0.00    +0.000 A 
ATOM     13  N   UNL     1      37.279   1.599  15.542  0.00  0.00    +0.000 NA
ATOM     14  C   UNL     1      35.755   0.072  16.441  0.00  0.00    +0.000 A 
ATOM     15  C   UNL     1      35.139  -1.112  16.565  0.00  0.00    +0.000 A 
ATOM     16  C   UNL     1      34.013  -1.328  17.490  0.00  0.00    +0.000 C 
ATOM     17  C   UNL     1      35.609  -2.142  15.773  0.00  0.00    +0.000 A 
ATOM     18  C   UNL     1      34.961  -3.358  15.908  0.00  0.00    +0.000 A 
BRANCH   7  20
ATOM     19  C   UNL     1      35.162  -6.618  16.220  0.00  0.00    +0.000 C 
ATOM     20  O   UNL     1      34.735  -5.678  15.258  0.00  0.00    +0.000 OA
ENDBRANCH   7  20
ENDBRANCH   1  13
BRANCH   5  21
ATOM     21  N   UNL     1      37.238   4.178  11.562  0.00  0.00    +0.000 NA
BRANCH  21  22
ATOM     22  C   UNL     1      37.474   2.822  11.039  0.00  0.00    +0.000 C 
BRANCH  22  23
ATOM     23  C   UNL     1      37.058   2.683   9.620  0.00  0.00    +0.000 A 
ATOM     24  C   UNL     1      37.234   1.539   8.862  0.00  0.00    +0.000 A 
ATOM     25  C   UNL     1      36.705   1.744   7.580  0.00  0.00    +0.000 A 
ATOM     26  C   UNL     1      36.584   0.981   6.439  0.00  0.00    +0.000 A 
ATOM     27  C   UNL     1      35.981   1.485   5.294  0.00  0.00    +0.000 A 
ATOM     28  C   UNL     1      35.513   2.782   5.357  0.00  0.00    +0.000 A 
ATOM     29  C   UNL     1      35.622   3.565   6.488  0.00  0.00    +0.000 A 
ATOM     30  C   UNL     1      36.232   3.026   7.622  0.00  0.00    +0.000 A 
ATOM     31  O   UNL     1      36.461   3.532   8.828  0.00  0.00    +0.000 OA
ENDBRANCH  22  23
ENDBRANCH  21  22
ENDBRANCH   5  21
TORSDOF 5
ENDMDL
MODEL 9
REMARK VINA RESULT:      -7.6     22.934     26.490
REMARK  Name = 
REMARK  5 active torsions:
REMARK  status: ('A' for Active; 'I' for Inactive)
REMARK    1  A    between atoms: O_2  and  C_3
REMARK    2  A    between atoms: N_9  and  C_10
REMARK    3  A    between atoms: C_14  and  N_15
REMARK    4  A    between atoms: N_15  and  C_16
REMARK    5  A    between atoms: C_16  and  C_17
REMARK                            x       y       z     vdW  Elec       q    Type
REMARK                         _______ _______ _______ _____ _____    ______ ____
ROOT
ATOM      1  C   UNL     1      37.598   5.052  15.869  0.00  0.00    +0.000 C 
ATOM      2  C   UNL     1      38.429   6.055  14.888  0.00  0.00    +0.000 C 
ATOM      3  C   UNL     1      39.804   5.479  14.638  0.00  0.00    +0.000 C 
ATOM      4  C   UNL     1      40.657   5.768  15.858  0.00  0.00    +0.000 C 
ATOM      5  C   UNL     1      39.401   6.161  16.985  0.00  0.00    +0.000 C 
ATOM      6  C   UNL     1      38.792   4.664  16.868  0.00  0.00    +0.000 C 
ENDROOT
BRANCH   1  13
ATOM      7  C   UNL     1      35.255  -1.911  16.199  0.00  0.00    +0.000 A 
ATOM      8  C   UNL     1      34.841  -1.058  17.165  0.00  0.00    +0.000 A 
ATOM      9  C   UNL     1      35.172   0.310  17.176  0.00  0.00    +0.000 A 
ATOM     10  C   UNL     1      35.969   0.788  16.132  0.00  0.00    +0.000 A 
ATOM     11  N   UNL     1      36.344   2.090  16.061  0.00  0.00    +0.000 NA
ATOM     12  C   UNL     1      37.106   2.599  15.090  0.00  0.00    +0.000 A 
ATOM     13  N   UNL     1      37.585   3.852  14.968  0.00  0.00    +0.000 NA
ATOM     14  C   UNL     1      37.501   1.675  14.123  0.00  0.00    +0.000 A 
ATOM     15  C   UNL     1      37.171   0.376  14.120  0.00  0.00    +0.000 A 
ATOM     16  C   UNL     1      37.617  -0.555  13.069  0.00  0.00    +0.000 C 
ATOM     17  C   UNL     1      36.381  -0.065  15.165  0.00  0.00    +0.000 A 
ATOM     18  C   UNL     1      36.051  -1.410  15.152  0.00  0.00    +0.000 A 
BRANCH   7  20
ATOM     19  C   UNL     1      34.538  -3.919  14.981  0.00  0.00    +0.000 C 
ATOM     20  O   UNL     1      34.918  -3.283  16.183  0.00  0.00    +0.000 OA
ENDBRANCH   7  20
ENDBRANCH   1  13
BRANCH   5  21
ATOM     21  N   UNL     1      40.350   5.960  18.194  0.00  0.00    +0.000 NA
BRANCH  21  22
ATOM     22  C   UNL     1      39.428   6.257  19.303  0.00  0.00    +0.000 C 
BRANCH  22  23
ATOM     23  C   UNL     1      39.578   7.646  19.807  0.00  0.00    +0.000 A 
ATOM     24  C   UNL     1      38.523   8.464  20.173  0.00  0.00    +0.000 A 
ATOM     25  C   UNL     1      39.022   9.692  20.626  0.00  0.00    +0.000 A 
ATOM     26  C   UNL     1      38.465  10.853  21.117  0.00  0.00    +0.000 A 
ATOM     27  C   UNL     1      39.255  11.928  21.502  0.00  0.00    +0.000 A 
ATOM     28  C   UNL     1      40.621  11.774  21.368  0.00  0.00    +0.000 A 
ATOM     29  C   UNL     1      41.202  10.622  20.881  0.00  0.00    +0.000 A 
ATOM     30  C   UNL     1      40.378   9.560  20.504  0.00  0.00    +0.000 A 
ATOM     31  O   UNL     1      40.654   8.354  20.023  0.00  0.00    +0.000 OA
ENDBRANCH  22  23
ENDBRANCH  21  22
ENDBRANCH   5  21
TORSDOF 5
ENDMDL
MODEL 10
REMARK VINA RESULT:      -7.6     26.411     28.246
REMARK  Name = 
REMARK  5 active torsions:
REMARK  status: ('A' for Active; 'I' for Inactive)
REMARK    1  A    between atoms: O_2  and  C_3
REMARK    2  A    between atoms: N_9  and  C_10
REMARK    3  A    between atoms: C_14  and  N_15
REMARK    4  A    between atoms: N_15  and  C_16
REMARK    5  A    between atoms: C_16  and  C_17
REMARK                            x       y       z     vdW  Elec       q    Type
REMARK                         _______ _______ _______ _____ _____    ______ ____
ROOT
ATOM      1  C   UNL     1      37.284   3.888  11.889  0.00  0.00    +0.000 C 
ATOM      2  C   UNL     1      38.815   4.451  11.890  0.00  0.00    +0.000 C 
ATOM      3  C   UNL     1      39.768   3.298  12.105  0.00  0.00    +0.000 C 
ATOM      4  C   UNL     1      39.762   2.961  13.583  0.00  0.00    +0.000 C 
ATOM      5  C   UNL     1      38.312   3.787  14.048  0.00  0.00    +0.000 C 
ATOM      6  C   UNL     1      37.428   2.829  13.086  0.00  0.00    +0.000 C 
ENDROOT
BRANCH   1  13
ATOM      7  C   UNL     1      34.923   3.809   4.925  0.00  0.00    +0.000 A 
ATOM      8  C   UNL     1      34.801   4.964   5.622  0.00  0.00    +0.000 A 
ATOM      9  C   UNL     1      35.270   5.120   6.939  0.00  0.00    +0.000 A 
ATOM     10  C   UNL     1      35.886   4.018   7.538  0.00  0.00    +0.000 A 
ATOM     11  N   UNL     1      36.365   4.071   8.806  0.00  0.00    +0.000 NA
ATOM     12  C   UNL     1      36.958   3.050   9.428  0.00  0.00    +0.000 A 
ATOM     13  N   UNL     1      37.402   2.983  10.699  0.00  0.00    +0.000 NA
ATOM     14  C   UNL     1      37.057   1.888   8.663  0.00  0.00    +0.000 A 
ATOM     15  C   UNL     1      36.613   1.756   7.405  0.00  0.00    +0.000 A 
ATOM     16  C   UNL     1      36.746   0.502   6.643  0.00  0.00    +0.000 C 
ATOM     17  C   UNL     1      36.010   2.864   6.840  0.00  0.00    +0.000 A 
ATOM     18  C   UNL     1      35.552   2.712   5.543  0.00  0.00    +0.000 A 
BRANCH   7  20
ATOM     19  C   UNL     1      33.766   4.697   2.950  0.00  0.00    +0.000 C 
ATOM     20  O   UNL     1      34.458   3.653   3.600  0.00  0.00    +0.000 OA
ENDBRANCH   7  20
ENDBRANCH   1  13
BRANCH   5  21
ATOM     21  N   UNL     1      38.215   2.985  15.371  0.00  0.00    +0.000 NA
BRANCH  21  22
ATOM     22  C   UNL     1      37.668   4.019  16.265  0.00  0.00    +0.000 C 
BRANCH  22  23
ATOM     23  C   UNL     1      38.732   4.784  16.962  0.00  0.00    +0.000 A 
ATOM     24  C   UNL     1      38.787   4.978  18.332  0.00  0.00    +0.000 A 
ATOM     25  C   UNL     1      39.933   5.719  18.651  0.00  0.00    +0.000 A 
ATOM     26  C   UNL     1      40.501   6.188  19.816  0.00  0.00    +0.000 A 
ATOM     27  C   UNL     1      41.688   6.908  19.802  0.00  0.00    +0.000 A 
ATOM     28  C   UNL     1      42.266   7.131  18.568  0.00  0.00    +0.000 A 
ATOM     29  C   UNL     1      41.717   6.671  17.389  0.00  0.00    +0.000 A 
ATOM     30  C   UNL     1      40.524   5.948  17.439  0.00  0.00    +0.000 A 
ATOM     31  O   UNL     1      39.789   5.387  16.487  0.00  0.00    +0.000 OA
ENDBRANCH  22  23
ENDBRANCH  21  22
ENDBRANCH   5  21
TORSDOF 5
ENDMDL
