MODEL 1
REMARK VINA RESULT:      -6.4      0.000      0.000
REMARK  Name = 
REMARK  3 active torsions:
REMARK  status: ('A' for Active; 'I' for Inactive)
REMARK    1  A    between atoms: C_3  and  C_4
REMARK    2  A    between atoms: C_8  and  C_9
REMARK    3  A    between atoms: C_12  and  C_13
REMARK                            x       y       z     vdW  Elec       q    Type
REMARK                         _______ _______ _______ _____ _____    ______ ____
ROOT
ATOM      1  C   UNL     1      24.652  24.966  27.485  0.00  0.00    +0.000 C 
ATOM      2  C   UNL     1      26.029  24.521  27.175  0.00  0.00    +0.000 A 
ATOM      3  C   UNL     1      26.731  23.953  28.191  0.00  0.00    +0.000 A 
ATOM      4  C   UNL     1      28.012  23.531  27.948  0.00  0.00    +0.000 A 
ATOM      5  C   UNL     1      28.549  23.689  26.686  0.00  0.00    +0.000 A 
ATOM      6  C   UNL     1      27.808  24.271  25.664  0.00  0.00    +0.000 A 
ATOM      7  C   UNL     1      26.509  24.703  25.907  0.00  0.00    +0.000 A 
ATOM      8 CL   UNL     1      25.490  25.455  24.705  0.00  0.00    +0.000 Cl
ENDROOT
BRANCH   6   9
ATOM      9  C   UNL     1      28.304  24.431  24.325  0.00  0.00    +0.000 A 
ATOM     10  C   UNL     1      28.999  25.545  23.932  0.00  0.00    +0.000 A 
ATOM     11  C   UNL     1      29.489  25.743  22.648  0.00  0.00    +0.000 A 
ATOM     12  C   UNL     1      29.245  24.727  21.712  0.00  0.00    +0.000 A 
ATOM     13  O   UNL     1      29.731  24.888  20.396  0.00  0.00    +0.000 OA
ATOM     14  C   UNL     1      28.553  23.616  22.099  0.00  0.00    +0.000 A 
ATOM     15  C   UNL     1      28.066  23.424  23.389  0.00  0.00    +0.000 A 
ENDBRANCH   6   9
BRANCH   3  16
ATOM     16  C   UNL     1      26.059  23.727  29.594  0.00  0.00    +0.000 C 
ATOM     17  C   UNL     1      26.688  22.247  29.882  0.00  0.00    +0.000 C 
ATOM     18  O   UNL     1      27.025  24.450  30.497  0.00  0.00    +0.000 OA
ENDBRANCH   3  16
BRANCH   5  19
ATOM     19  C   UNL     1      29.932  23.189  26.452  0.00  0.00    +0.000 C 
ATOM     20  C   UNL     1      30.940  24.182  26.976  0.00  0.00    +0.000 C 
ATOM     21  C   UNL     1      30.123  21.821  27.073  0.00  0.00    +0.000 C 
ENDBRANCH   5  19
TORSDOF 3
ENDMDL
MODEL 2
REMARK VINA RESULT:      -5.9      1.736      3.367
REMARK  Name = 
REMARK  3 active torsions:
REMARK  status: ('A' for Active; 'I' for Inactive)
REMARK    1  A    between atoms: C_3  and  C_4
REMARK    2  A    between atoms: C_8  and  C_9
REMARK    3  A    between atoms: C_12  and  C_13
REMARK                            x       y       z     vdW  Elec       q    Type
REMARK                         _______ _______ _______ _____ _____    ______ ____
ROOT
ATOM      1  C   UNL     1      29.171  22.582  29.405  0.00  0.00    +0.000 C 
ATOM      2  C   UNL     1      28.363  23.367  28.445  0.00  0.00    +0.000 A 
ATOM      3  C   UNL     1      27.265  23.998  28.942  0.00  0.00    +0.000 A 
ATOM      4  C   UNL     1      26.486  24.731  28.085  0.00  0.00    +0.000 A 
ATOM      5  C   UNL     1      26.837  24.813  26.752  0.00  0.00    +0.000 A 
ATOM      6  C   UNL     1      27.966  24.161  26.271  0.00  0.00    +0.000 A 
ATOM      7  C   UNL     1      28.758  23.412  27.136  0.00  0.00    +0.000 A 
ATOM      8 CL   UNL     1      30.190  22.546  26.642  0.00  0.00    +0.000 Cl
ENDROOT
BRANCH   6   9
ATOM      9  C   UNL     1      28.396  24.238  24.903  0.00  0.00    +0.000 A 
ATOM     10  C   UNL     1      27.915  23.392  23.938  0.00  0.00    +0.000 A 
ATOM     11  C   UNL     1      28.308  23.427  22.606  0.00  0.00    +0.000 A 
ATOM     12  C   UNL     1      29.259  24.397  22.251  0.00  0.00    +0.000 A 
ATOM     13  O   UNL     1      29.682  24.468  20.905  0.00  0.00    +0.000 OA
ATOM     14  C   UNL     1      29.741  25.240  23.209  0.00  0.00    +0.000 A 
ATOM     15  C   UNL     1      29.340  25.199  24.542  0.00  0.00    +0.000 A 
ENDBRANCH   6   9
BRANCH   3  16
ATOM     16  C   UNL     1      26.940  23.936  30.478  0.00  0.00    +0.000 C 
ATOM     17  C   UNL     1      25.781  25.088  30.483  0.00  0.00    +0.000 C 
ATOM     18  O   UNL     1      25.969  22.784  30.522  0.00  0.00    +0.000 OA
ENDBRANCH   3  16
BRANCH   5  19
ATOM     19  C   UNL     1      25.984  25.646  25.860  0.00  0.00    +0.000 C 
ATOM     20  C   UNL     1      24.533  25.507  26.249  0.00  0.00    +0.000 C 
ATOM     21  C   UNL     1      26.432  27.092  25.883  0.00  0.00    +0.000 C 
ENDBRANCH   5  19
TORSDOF 3
ENDMDL
MODEL 3
REMARK VINA RESULT:      -5.9      3.129      4.945
REMARK  Name = 
REMARK  3 active torsions:
REMARK  status: ('A' for Active; 'I' for Inactive)
REMARK    1  A    between atoms: C_3  and  C_4
REMARK    2  A    between atoms: C_8  and  C_9
REMARK    3  A    between atoms: C_12  and  C_13
REMARK                            x       y       z     vdW  Elec       q    Type
REMARK                         _______ _______ _______ _____ _____    ______ ____
ROOT
ATOM      1  C   UNL     1      32.498  22.705  29.007  0.00  0.00    +0.000 C 
ATOM      2  C   UNL     1      31.031  22.762  29.199  0.00  0.00    +0.000 A 
ATOM      3  C   UNL     1      30.571  22.542  30.460  0.00  0.00    +0.000 A 
ATOM      4  C   UNL     1      29.219  22.581  30.681  0.00  0.00    +0.000 A 
ATOM      5  C   UNL     1      28.368  22.846  29.626  0.00  0.00    +0.000 A 
ATOM      6  C   UNL     1      28.865  23.070  28.348  0.00  0.00    +0.000 A 
ATOM      7  C   UNL     1      30.236  23.028  28.119  0.00  0.00    +0.000 A 
ATOM      8 CL   UNL     1      30.972  23.284  26.557  0.00  0.00    +0.000 Cl
ENDROOT
BRANCH   6   9
ATOM      9  C   UNL     1      28.030  23.381  27.222  0.00  0.00    +0.000 A 
ATOM     10  C   UNL     1      27.652  24.665  26.927  0.00  0.00    +0.000 A 
ATOM     11  C   UNL     1      26.840  25.010  25.854  0.00  0.00    +0.000 A 
ATOM     12  C   UNL     1      26.392  23.962  25.035  0.00  0.00    +0.000 A 
ATOM     13  O   UNL     1      25.569  24.271  23.930  0.00  0.00    +0.000 OA
ATOM     14  C   UNL     1      26.766  22.682  25.326  0.00  0.00    +0.000 A 
ATOM     15  C   UNL     1      27.581  22.345  26.404  0.00  0.00    +0.000 A 
ENDBRANCH   6   9
BRANCH   3  16
ATOM     16  C   UNL     1      31.577  22.313  31.646  0.00  0.00    +0.000 C 
ATOM     17  C   UNL     1      30.506  22.529  32.861  0.00  0.00    +0.000 C 
ATOM     18  O   UNL     1      31.572  20.809  31.742  0.00  0.00    +0.000 OA
ENDBRANCH   3  16
BRANCH   5  19
ATOM     19  C   UNL     1      26.908  22.912  29.912  0.00  0.00    +0.000 C 
ATOM     20  C   UNL     1      26.430  21.600  30.483  0.00  0.00    +0.000 C 
ATOM     21  C   UNL     1      26.592  24.069  30.836  0.00  0.00    +0.000 C 
ENDBRANCH   5  19
TORSDOF 3
ENDMDL
MODEL 4
REMARK VINA RESULT:      -5.7     32.716     34.832
REMARK  Name = 
REMARK  3 active torsions:
REMARK  status: ('A' for Active; 'I' for Inactive)
REMARK    1  A    between atoms: C_3  and  C_4
REMARK    2  A    between atoms: C_8  and  C_9
REMARK    3  A    between atoms: C_12  and  C_13
REMARK                            x       y       z     vdW  Elec       q    Type
REMARK                         _______ _______ _______ _____ _____    ______ ____
ROOT
ATOM      1  C   UNL     1      22.889 -10.319  26.109  0.00  0.00    +0.000 C 
ATOM      2  C   UNL     1      21.669  -9.523  26.369  0.00  0.00    +0.000 A 
ATOM      3  C   UNL     1      21.495  -8.405  25.613  0.00  0.00    +0.000 A 
ATOM      4  C   UNL     1      20.380  -7.637  25.825  0.00  0.00    +0.000 A 
ATOM      5  C   UNL     1      19.469  -8.018  26.790  0.00  0.00    +0.000 A 
ATOM      6  C   UNL     1      19.669  -9.166  27.546  0.00  0.00    +0.000 A 
ATOM      7  C   UNL     1      20.801  -9.947  27.337  0.00  0.00    +0.000 A 
ATOM      8 CL   UNL     1      21.160 -11.402  28.232  0.00  0.00    +0.000 Cl
ENDROOT
BRANCH   6   9
ATOM      9  C   UNL     1      18.739  -9.627  28.539  0.00  0.00    +0.000 A 
ATOM     10  C   UNL     1      18.867  -9.304  29.865  0.00  0.00    +0.000 A 
ATOM     11  C   UNL     1      17.996  -9.734  30.857  0.00  0.00    +0.000 A 
ATOM     12  C   UNL     1      16.926 -10.547  30.454  0.00  0.00    +0.000 A 
ATOM     13  O   UNL     1      16.014 -11.001  31.433  0.00  0.00    +0.000 OA
ATOM     14  C   UNL     1      16.796 -10.871  29.135  0.00  0.00    +0.000 A 
ATOM     15  C   UNL     1      17.673 -10.435  28.145  0.00  0.00    +0.000 A 
ENDBRANCH   6   9
BRANCH   3  16
ATOM     16  C   UNL     1      22.521  -8.045  24.478  0.00  0.00    +0.000 C 
ATOM     17  C   UNL     1      21.611  -8.552  23.219  0.00  0.00    +0.000 C 
ATOM     18  O   UNL     1      22.218  -6.584  24.269  0.00  0.00    +0.000 OA
ENDBRANCH   3  16
BRANCH   5  19
ATOM     19  C   UNL     1      18.254  -7.174  26.968  0.00  0.00    +0.000 C 
ATOM     20  C   UNL     1      18.607  -5.715  26.819  0.00  0.00    +0.000 C 
ATOM     21  C   UNL     1      17.165  -7.586  25.999  0.00  0.00    +0.000 C 
ENDBRANCH   5  19
TORSDOF 3
ENDMDL
MODEL 5
REMARK VINA RESULT:      -5.6      3.396      5.911
REMARK  Name = 
REMARK  3 active torsions:
REMARK  status: ('A' for Active; 'I' for Inactive)
REMARK    1  A    between atoms: C_3  and  C_4
REMARK    2  A    between atoms: C_8  and  C_9
REMARK    3  A    between atoms: C_12  and  C_13
REMARK                            x       y       z     vdW  Elec       q    Type
REMARK                         _______ _______ _______ _____ _____    ______ ____
ROOT
ATOM      1  C   UNL     1      26.443  23.028  28.998  0.00  0.00    +0.000 C 
ATOM      2  C   UNL     1      27.696  23.054  28.212  0.00  0.00    +0.000 A 
ATOM      3  C   UNL     1      27.572  23.232  26.869  0.00  0.00    +0.000 A 
ATOM      4  C   UNL     1      28.708  23.258  26.103  0.00  0.00    +0.000 A 
ATOM      5  C   UNL     1      29.938  23.108  26.711  0.00  0.00    +0.000 A 
ATOM      6  C   UNL     1      30.038  22.931  28.086  0.00  0.00    +0.000 A 
ATOM      7  C   UNL     1      28.887  22.901  28.867  0.00  0.00    +0.000 A 
ATOM      8 CL   UNL     1      28.889  22.675  30.598  0.00  0.00    +0.000 Cl
ENDROOT
BRANCH   6   9
ATOM      9  C   UNL     1      31.291  22.803  28.775  0.00  0.00    +0.000 A 
ATOM     10  C   UNL     1      31.925  21.596  28.919  0.00  0.00    +0.000 A 
ATOM     11  C   UNL     1      33.132  21.426  29.583  0.00  0.00    +0.000 A 
ATOM     12  C   UNL     1      33.721  22.576  30.132  0.00  0.00    +0.000 A 
ATOM     13  O   UNL     1      34.953  22.446  30.811  0.00  0.00    +0.000 OA
ATOM     14  C   UNL     1      33.094  23.779  29.991  0.00  0.00    +0.000 A 
ATOM     15  C   UNL     1      31.883  23.941  29.322  0.00  0.00    +0.000 A 
ENDBRANCH   6   9
BRANCH   3  16
ATOM     16  C   UNL     1      26.158  23.469  26.225  0.00  0.00    +0.000 C 
ATOM     17  C   UNL     1      26.478  24.931  25.571  0.00  0.00    +0.000 C 
ATOM     18  O   UNL     1      26.302  22.717  24.927  0.00  0.00    +0.000 OA
ENDBRANCH   3  16
BRANCH   5  19
ATOM     19  C   UNL     1      31.152  23.174  25.849  0.00  0.00    +0.000 C 
ATOM     20  C   UNL     1      30.874  22.537  24.511  0.00  0.00    +0.000 C 
ATOM     21  C   UNL     1      31.627  24.604  25.697  0.00  0.00    +0.000 C 
ENDBRANCH   5  19
TORSDOF 3
ENDMDL
MODEL 6
REMARK VINA RESULT:      -5.6     20.861     22.757
REMARK  Name = 
REMARK  3 active torsions:
REMARK  status: ('A' for Active; 'I' for Inactive)
REMARK    1  A    between atoms: C_3  and  C_4
REMARK    2  A    between atoms: C_8  and  C_9
REMARK    3  A    between atoms: C_12  and  C_13
REMARK                            x       y       z     vdW  Elec       q    Type
REMARK                         _______ _______ _______ _____ _____    ______ ____
ROOT
ATOM      1  C   UNL     1      29.902   1.978  15.520  0.00  0.00    +0.000 C 
ATOM      2  C   UNL     1      29.051   3.025  16.127  0.00  0.00    +0.000 A 
ATOM      3  C   UNL     1      29.648   4.216  16.402  0.00  0.00    +0.000 A 
ATOM      4  C   UNL     1      28.896   5.212  16.969  0.00  0.00    +0.000 A 
ATOM      5  C   UNL     1      27.562   4.982  17.239  0.00  0.00    +0.000 A 
ATOM      6  C   UNL     1      26.975   3.757  16.946  0.00  0.00    +0.000 A 
ATOM      7  C   UNL     1      27.735   2.742  16.373  0.00  0.00    +0.000 A 
ATOM      8 CL   UNL     1      27.108   1.164  15.970  0.00  0.00    +0.000 Cl
ENDROOT
BRANCH   6   9
ATOM      9  C   UNL     1      25.586   3.475  17.175  0.00  0.00    +0.000 A 
ATOM     10  C   UNL     1      25.120   3.039  18.388  0.00  0.00    +0.000 A 
ATOM     11  C   UNL     1      23.788   2.748  18.650  0.00  0.00    +0.000 A 
ATOM     12  C   UNL     1      22.881   2.917  17.593  0.00  0.00    +0.000 A 
ATOM     13  O   UNL     1      21.516   2.636  17.820  0.00  0.00    +0.000 OA
ATOM     14  C   UNL     1      23.341   3.350  16.383  0.00  0.00    +0.000 A 
ATOM     15  C   UNL     1      24.679   3.641  16.128  0.00  0.00    +0.000 A 
ENDBRANCH   6   9
BRANCH   3  16
ATOM     16  C   UNL     1      31.152   4.460  16.014  0.00  0.00    +0.000 C 
ATOM     17  C   UNL     1      31.124   6.090  16.121  0.00  0.00    +0.000 C 
ATOM     18  O   UNL     1      31.829   4.260  17.346  0.00  0.00    +0.000 OA
ENDBRANCH   3  16
BRANCH   5  19
ATOM     19  C   UNL     1      26.770   6.100  17.826  0.00  0.00    +0.000 C 
ATOM     20  C   UNL     1      27.634   6.917  18.755  0.00  0.00    +0.000 C 
ATOM     21  C   UNL     1      26.158   6.955  16.737  0.00  0.00    +0.000 C 
ENDBRANCH   5  19
TORSDOF 3
ENDMDL
MODEL 7
REMARK VINA RESULT:      -5.5     18.425     22.381
REMARK  Name = 
REMARK  3 active torsions:
REMARK  status: ('A' for Active; 'I' for Inactive)
REMARK    1  A    between atoms: C_3  and  C_4
REMARK    2  A    between atoms: C_8  and  C_9
REMARK    3  A    between atoms: C_12  and  C_13
REMARK                            x       y       z     vdW  Elec       q    Type
REMARK                         _______ _______ _______ _____ _____    ______ ____
ROOT
ATOM      1  C   UNL     1      23.786   8.802  39.847  0.00  0.00    +0.000 C 
ATOM      2  C   UNL     1      22.457   9.100  39.269  0.00  0.00    +0.000 A 
ATOM      3  C   UNL     1      22.441   9.684  38.040  0.00  0.00    +0.000 A 
ATOM      4  C   UNL     1      21.231   9.980  37.470  0.00  0.00    +0.000 A 
ATOM      5  C   UNL     1      20.069   9.676  38.152  0.00  0.00    +0.000 A 
ATOM      6  C   UNL     1      20.113   9.077  39.405  0.00  0.00    +0.000 A 
ATOM      7  C   UNL     1      21.340   8.777  39.989  0.00  0.00    +0.000 A 
ATOM      8 CL   UNL     1      21.517   8.034  41.558  0.00  0.00    +0.000 Cl
ENDROOT
BRANCH   6   9
ATOM      9  C   UNL     1      18.937   8.710  40.144  0.00  0.00    +0.000 A 
ATOM     10  C   UNL     1      18.266   9.602  40.938  0.00  0.00    +0.000 A 
ATOM     11  C   UNL     1      17.131   9.288  41.674  0.00  0.00    +0.000 A 
ATOM     12  C   UNL     1      16.662   7.968  41.583  0.00  0.00    +0.000 A 
ATOM     13  O   UNL     1      15.507   7.609  42.313  0.00  0.00    +0.000 OA
ATOM     14  C   UNL     1      17.328   7.077  40.794  0.00  0.00    +0.000 A 
ATOM     15  C   UNL     1      18.465   7.400  40.058  0.00  0.00    +0.000 A 
ENDBRANCH   6   9
BRANCH   3  16
ATOM     16  C   UNL     1      23.785   9.949  37.268  0.00  0.00    +0.000 C 
ATOM     17  C   UNL     1      23.124  10.180  35.792  0.00  0.00    +0.000 C 
ATOM     18  O   UNL     1      23.990  11.416  37.544  0.00  0.00    +0.000 OA
ENDBRANCH   3  16
BRANCH   5  19
ATOM     19  C   UNL     1      18.773   9.985  37.486  0.00  0.00    +0.000 C 
ATOM     20  C   UNL     1      18.442  11.448  37.644  0.00  0.00    +0.000 C 
ATOM     21  C   UNL     1      18.806   9.575  36.028  0.00  0.00    +0.000 C 
ENDBRANCH   5  19
TORSDOF 3
ENDMDL
MODEL 8
REMARK VINA RESULT:      -5.5      3.001      5.821
REMARK  Name = 
REMARK  3 active torsions:
REMARK  status: ('A' for Active; 'I' for Inactive)
REMARK    1  A    between atoms: C_3  and  C_4
REMARK    2  A    between atoms: C_8  and  C_9
REMARK    3  A    between atoms: C_12  and  C_13
REMARK                            x       y       z     vdW  Elec       q    Type
REMARK                         _______ _______ _______ _____ _____    ______ ____
ROOT
ATOM      1  C   UNL     1      29.424  23.468  23.138  0.00  0.00    +0.000 C 
ATOM      2  C   UNL     1      29.203  23.419  24.600  0.00  0.00    +0.000 A 
ATOM      3  C   UNL     1      27.918  23.547  25.029  0.00  0.00    +0.000 A 
ATOM      4  C   UNL     1      27.670  23.512  26.377  0.00  0.00    +0.000 A 
ATOM      5  C   UNL     1      28.723  23.346  27.255  0.00  0.00    +0.000 A 
ATOM      6  C   UNL     1      30.026  23.215  26.790  0.00  0.00    +0.000 A 
ATOM      7  C   UNL     1      30.283  23.253  25.423  0.00  0.00    +0.000 A 
ATOM      8 CL   UNL     1      31.877  23.109  24.727  0.00  0.00    +0.000 Cl
ENDROOT
BRANCH   6   9
ATOM      9  C   UNL     1      31.153  23.007  27.655  0.00  0.00    +0.000 A 
ATOM     10  C   UNL     1      31.472  21.771  28.154  0.00  0.00    +0.000 A 
ATOM     11  C   UNL     1      32.547  21.527  28.998  0.00  0.00    +0.000 A 
ATOM     12  C   UNL     1      33.342  22.629  29.349  0.00  0.00    +0.000 A 
ATOM     13  O   UNL     1      34.449  22.422  30.202  0.00  0.00    +0.000 OA
ATOM     14  C   UNL     1      33.027  23.862  28.855  0.00  0.00    +0.000 A 
ATOM     15  C   UNL     1      31.947  24.098  28.008  0.00  0.00    +0.000 A 
ENDBRANCH   6   9
BRANCH   3  16
ATOM     16  C   UNL     1      26.742  23.664  23.993  0.00  0.00    +0.000 C 
ATOM     17  C   UNL     1      25.569  23.053  24.953  0.00  0.00    +0.000 C 
ATOM     18  O   UNL     1      26.327  25.100  24.190  0.00  0.00    +0.000 OA
ENDBRANCH   3  16
BRANCH   5  19
ATOM     19  C   UNL     1      28.409  23.281  28.710  0.00  0.00    +0.000 C 
ATOM     20  C   UNL     1      28.189  24.669  29.257  0.00  0.00    +0.000 C 
ATOM     21  C   UNL     1      27.213  22.386  28.963  0.00  0.00    +0.000 C 
ENDBRANCH   5  19
TORSDOF 3
ENDMDL
MODEL 9
REMARK VINA RESULT:      -5.5     18.183     21.305
REMARK  Name = 
REMARK  3 active torsions:
REMARK  status: ('A' for Active; 'I' for Inactive)
REMARK    1  A    between atoms: C_3  and  C_4
REMARK    2  A    between atoms: C_8  and  C_9
REMARK    3  A    between atoms: C_12  and  C_13
REMARK                            x       y       z     vdW  Elec       q    Type
REMARK                         _______ _______ _______ _____ _____    ______ ____
ROOT
ATOM      1  C   UNL     1      19.153   8.547  42.324  0.00  0.00    +0.000 C 
ATOM      2  C   UNL     1      18.985   9.104  40.963  0.00  0.00    +0.000 A 
ATOM      3  C   UNL     1      17.709   9.283  40.529  0.00  0.00    +0.000 A 
ATOM      4  C   UNL     1      17.509   9.793  39.272  0.00  0.00    +0.000 A 
ATOM      5  C   UNL     1      18.601  10.112  38.490  0.00  0.00    +0.000 A 
ATOM      6  C   UNL     1      19.895   9.922  38.959  0.00  0.00    +0.000 A 
ATOM      7  C   UNL     1      20.103   9.402  40.233  0.00  0.00    +0.000 A 
ATOM      8 CL   UNL     1      21.680   9.112  40.923  0.00  0.00    +0.000 Cl
ENDROOT
BRANCH   6   9
ATOM      9  C   UNL     1      21.066  10.267  38.202  0.00  0.00    +0.000 A 
ATOM     10  C   UNL     1      21.541   9.473  37.191  0.00  0.00    +0.000 A 
ATOM     11  C   UNL     1      22.672   9.764  36.440  0.00  0.00    +0.000 A 
ATOM     12  C   UNL     1      23.354  10.950  36.754  0.00  0.00    +0.000 A 
ATOM     13  O   UNL     1      24.507  11.285  36.009  0.00  0.00    +0.000 OA
ATOM     14  C   UNL     1      22.885  11.742  37.760  0.00  0.00    +0.000 A 
ATOM     15  C   UNL     1      21.749  11.444  38.508  0.00  0.00    +0.000 A 
ENDBRANCH   6   9
BRANCH   3  16
ATOM     16  C   UNL     1      16.494   8.973  41.477  0.00  0.00    +0.000 C 
ATOM     17  C   UNL     1      15.339   9.673  40.558  0.00  0.00    +0.000 C 
ATOM     18  O   UNL     1      16.152   7.566  41.056  0.00  0.00    +0.000 OA
ENDBRANCH   3  16
BRANCH   5  19
ATOM     19  C   UNL     1      18.344  10.694  37.143  0.00  0.00    +0.000 C 
ATOM     20  C   UNL     1      17.505   9.748  36.320  0.00  0.00    +0.000 C 
ATOM     21  C   UNL     1      17.694  12.057  37.260  0.00  0.00    +0.000 C 
ENDBRANCH   5  19
TORSDOF 3
ENDMDL
MODEL 10
REMARK VINA RESULT:      -5.4      3.619      6.174
REMARK  Name = 
REMARK  3 active torsions:
REMARK  status: ('A' for Active; 'I' for Inactive)
REMARK    1  A    between atoms: C_3  and  C_4
REMARK    2  A    between atoms: C_8  and  C_9
REMARK    3  A    between atoms: C_12  and  C_13
REMARK                            x       y       z     vdW  Elec       q    Type
REMARK                         _______ _______ _______ _____ _____    ______ ____
ROOT
ATOM      1  C   UNL     1      23.053  27.084  29.427  0.00  0.00    +0.000 C 
ATOM      2  C   UNL     1      23.964  26.195  28.671  0.00  0.00    +0.000 A 
ATOM      3  C   UNL     1      23.777  26.130  27.325  0.00  0.00    +0.000 A 
ATOM      4  C   UNL     1      24.596  25.314  26.588  0.00  0.00    +0.000 A 
ATOM      5  C   UNL     1      25.583  24.590  27.227  0.00  0.00    +0.000 A 
ATOM      6  C   UNL     1      25.754  24.677  28.604  0.00  0.00    +0.000 A 
ATOM      7  C   UNL     1      24.923  25.501  29.356  0.00  0.00    +0.000 A 
ATOM      8 CL   UNL     1      25.039  25.682  31.088  0.00  0.00    +0.000 Cl
ENDROOT
BRANCH   6   9
ATOM      9  C   UNL     1      26.784  23.972  29.315  0.00  0.00    +0.000 A 
ATOM     10  C   UNL     1      26.604  22.698  29.787  0.00  0.00    +0.000 A 
ATOM     11  C   UNL     1      27.569  21.984  30.485  0.00  0.00    +0.000 A 
ATOM     12  C   UNL     1      28.795  22.628  30.710  0.00  0.00    +0.000 A 
ATOM     13  O   UNL     1      29.805  21.933  31.412  0.00  0.00    +0.000 OA
ATOM     14  C   UNL     1      28.978  23.896  30.242  0.00  0.00    +0.000 A 
ATOM     15  C   UNL     1      28.006  24.606  29.542  0.00  0.00    +0.000 A 
ENDBRANCH   6   9
BRANCH   3  16
ATOM     16  C   UNL     1      22.688  27.024  26.629  0.00  0.00    +0.000 C 
ATOM     17  C   UNL     1      23.178  26.774  25.091  0.00  0.00    +0.000 C 
ATOM     18  O   UNL     1      21.532  26.059  26.549  0.00  0.00    +0.000 OA
ENDBRANCH   3  16
BRANCH   5  19
ATOM     19  C   UNL     1      26.473  23.740  26.388  0.00  0.00    +0.000 C 
ATOM     20  C   UNL     1      25.680  23.090  25.282  0.00  0.00    +0.000 C 
ATOM     21  C   UNL     1      27.632  24.548  25.843  0.00  0.00    +0.000 C 
ENDBRANCH   5  19
TORSDOF 3
ENDMDL
