MODEL 1
REMARK VINA RESULT:      -7.9      0.000      0.000
REMARK  Name = 
REMARK  2 active torsions:
REMARK  status: ('A' for Active; 'I' for Inactive)
REMARK    1  A    between atoms: C_7  and  C_8
REMARK    2  A    between atoms: C_12  and  N_13
REMARK                            x       y       z     vdW  Elec       q    Type
REMARK                         _______ _______ _______ _____ _____    ______ ____
ROOT
ATOM      1  C   UNL     1      34.570  22.021  10.050  0.00  0.00    +0.000 C 
ATOM      2  C   UNL     1      34.235  20.776   9.005  0.00  0.00    +0.000 C 
ATOM      3  N   UNL     1      33.791  19.806  10.157  0.00  0.00    +0.000 NA
ATOM      4  C   UNL     1      32.751  20.410  10.857  0.00  0.00    +0.000 A 
ATOM      5  C   UNL     1      32.331  20.252  12.207  0.00  0.00    +0.000 A 
ATOM      6  C   UNL     1      31.247  20.961  12.666  0.00  0.00    +0.000 A 
ATOM      7  C   UNL     1      30.564  21.831  11.808  0.00  0.00    +0.000 A 
ATOM      8  C   UNL     1      31.021  21.936  10.522  0.00  0.00    +0.000 A 
ATOM      9  C   UNL     1      32.113  21.237  10.018  0.00  0.00    +0.000 A 
ATOM     10  C   UNL     1      32.661  21.283   8.731  0.00  0.00    +0.000 C 
ATOM     11  C   UNL     1      32.745  22.539   7.978  0.00  0.00    +0.000 C 
ATOM     12  C   UNL     1      32.204  20.172   7.803  0.00  0.00    +0.000 C 
ENDROOT
BRANCH   7  13
ATOM     13  C   UNL     1      29.417  22.573  12.309  0.00  0.00    +0.000 A 
ATOM     14  C   UNL     1      29.541  23.165  13.546  0.00  0.00    +0.000 A 
ATOM     15  C   UNL     1      28.512  23.894  14.111  0.00  0.00    +0.000 A 
ATOM     16  C   UNL     1      27.354  24.017  13.408  0.00  0.00    +0.000 A 
ATOM     17  C   UNL     1      27.168  23.455  12.178  0.00  0.00    +0.000 A 
ATOM     18  C   UNL     1      28.225  22.729  11.640  0.00  0.00    +0.000 A 
BRANCH  17  19
ATOM     19  N   UNL     1      25.948  23.603  11.468  0.00  0.00    +0.000 N 
ATOM     20  O   UNL     1      25.177  24.549  11.644  0.00  0.00    +0.000 OA
ATOM     21  O   UNL     1      25.607  22.653  10.537  0.00  0.00    +0.000 OA
ENDBRANCH  17  19
ENDBRANCH   7  13
TORSDOF 2
ENDMDL
MODEL 2
REMARK VINA RESULT:      -7.6     13.423     16.041
REMARK  Name = 
REMARK  2 active torsions:
REMARK  status: ('A' for Active; 'I' for Inactive)
REMARK    1  A    between atoms: C_7  and  C_8
REMARK    2  A    between atoms: C_12  and  N_13
REMARK                            x       y       z     vdW  Elec       q    Type
REMARK                         _______ _______ _______ _____ _____    ______ ____
ROOT
ATOM      1  C   UNL     1      29.534  25.911  23.108  0.00  0.00    +0.000 C 
ATOM      2  C   UNL     1      28.557  24.992  22.131  0.00  0.00    +0.000 C 
ATOM      3  N   UNL     1      29.424  23.698  22.324  0.00  0.00    +0.000 NA
ATOM      4  C   UNL     1      29.490  23.417  23.685  0.00  0.00    +0.000 A 
ATOM      5  C   UNL     1      30.479  22.728  24.441  0.00  0.00    +0.000 A 
ATOM      6  C   UNL     1      30.305  22.563  25.794  0.00  0.00    +0.000 A 
ATOM      7  C   UNL     1      29.160  23.070  26.420  0.00  0.00    +0.000 A 
ATOM      8  C   UNL     1      28.248  23.723  25.635  0.00  0.00    +0.000 A 
ATOM      9  C   UNL     1      28.387  23.910  24.263  0.00  0.00    +0.000 A 
ATOM     10  C   UNL     1      27.521  24.568  23.380  0.00  0.00    +0.000 C 
ATOM     11  C   UNL     1      26.808  25.787  23.772  0.00  0.00    +0.000 C 
ATOM     12  C   UNL     1      26.577  23.658  22.616  0.00  0.00    +0.000 C 
ENDROOT
BRANCH   7  13
ATOM     13  C   UNL     1      28.988  22.886  27.853  0.00  0.00    +0.000 A 
ATOM     14  C   UNL     1      30.131  22.758  28.613  0.00  0.00    +0.000 A 
ATOM     15  C   UNL     1      30.078  22.581  29.981  0.00  0.00    +0.000 A 
ATOM     16  C   UNL     1      28.855  22.535  30.574  0.00  0.00    +0.000 A 
ATOM     17  C   UNL     1      27.686  22.656  29.879  0.00  0.00    +0.000 A 
ATOM     18  C   UNL     1      27.777  22.833  28.502  0.00  0.00    +0.000 A 
BRANCH  17  19
ATOM     19  N   UNL     1      26.424  22.606  30.526  0.00  0.00    +0.000 N 
ATOM     20  O   UNL     1      25.887  21.551  30.872  0.00  0.00    +0.000 OA
ATOM     21  O   UNL     1      25.767  23.783  30.783  0.00  0.00    +0.000 OA
ENDBRANCH  17  19
ENDBRANCH   7  13
TORSDOF 2
ENDMDL
MODEL 3
REMARK VINA RESULT:      -7.4     31.160     33.607
REMARK  Name = 
REMARK  2 active torsions:
REMARK  status: ('A' for Active; 'I' for Inactive)
REMARK    1  A    between atoms: C_7  and  C_8
REMARK    2  A    between atoms: C_12  and  N_13
REMARK                            x       y       z     vdW  Elec       q    Type
REMARK                         _______ _______ _______ _____ _____    ______ ____
ROOT
ATOM      1  C   UNL     1      17.707   6.764  40.786  0.00  0.00    +0.000 C 
ATOM      2  C   UNL     1      17.846   7.641  42.188  0.00  0.00    +0.000 C 
ATOM      3  N   UNL     1      18.951   8.586  41.597  0.00  0.00    +0.000 NA
ATOM      4  C   UNL     1      18.438   9.196  40.456  0.00  0.00    +0.000 A 
ATOM      5  C   UNL     1      19.098   9.708  39.305  0.00  0.00    +0.000 A 
ATOM      6  C   UNL     1      18.358  10.288  38.302  0.00  0.00    +0.000 A 
ATOM      7  C   UNL     1      16.966  10.372  38.417  0.00  0.00    +0.000 A 
ATOM      8  C   UNL     1      16.394   9.859  39.551  0.00  0.00    +0.000 A 
ATOM      9  C   UNL     1      17.107   9.265  40.588  0.00  0.00    +0.000 A 
ATOM     10  C   UNL     1      16.617   8.705  41.774  0.00  0.00    +0.000 C 
ATOM     11  C   UNL     1      15.367   7.940  41.802  0.00  0.00    +0.000 C 
ATOM     12  C   UNL     1      16.671   9.622  42.982  0.00  0.00    +0.000 C 
ENDROOT
BRANCH   7  13
ATOM     13  C   UNL     1      16.197  10.991  37.348  0.00  0.00    +0.000 A 
ATOM     14  C   UNL     1      16.819  11.139  36.129  0.00  0.00    +0.000 A 
ATOM     15  C   UNL     1      16.177  11.712  35.049  0.00  0.00    +0.000 A 
ATOM     16  C   UNL     1      14.895  12.134  35.216  0.00  0.00    +0.000 A 
ATOM     17  C   UNL     1      14.222  12.016  36.398  0.00  0.00    +0.000 A 
ATOM     18  C   UNL     1      14.899  11.434  37.464  0.00  0.00    +0.000 A 
BRANCH  17  19
ATOM     19  N   UNL     1      12.883  12.464  36.542  0.00  0.00    +0.000 N 
ATOM     20  O   UNL     1      12.026  11.832  37.164  0.00  0.00    +0.000 OA
ATOM     21  O   UNL     1      12.520  13.656  35.968  0.00  0.00    +0.000 OA
ENDBRANCH  17  19
ENDBRANCH   7  13
TORSDOF 2
ENDMDL
MODEL 4
REMARK VINA RESULT:      -7.3     27.509     30.065
REMARK  Name = 
REMARK  2 active torsions:
REMARK  status: ('A' for Active; 'I' for Inactive)
REMARK    1  A    between atoms: C_7  and  C_8
REMARK    2  A    between atoms: C_12  and  N_13
REMARK                            x       y       z     vdW  Elec       q    Type
REMARK                         _______ _______ _______ _____ _____    ______ ____
ROOT
ATOM      1  C   UNL     1      13.261  11.985  30.853  0.00  0.00    +0.000 C 
ATOM      2  C   UNL     1      14.418  12.992  30.218  0.00  0.00    +0.000 C 
ATOM      3  N   UNL     1      14.046  14.177  31.180  0.00  0.00    +0.000 NA
ATOM      4  C   UNL     1      14.174  13.728  32.491  0.00  0.00    +0.000 A 
ATOM      5  C   UNL     1      13.526  14.157  33.682  0.00  0.00    +0.000 A 
ATOM      6  C   UNL     1      13.839  13.558  34.879  0.00  0.00    +0.000 A 
ATOM      7  C   UNL     1      14.791  12.532  34.919  0.00  0.00    +0.000 A 
ATOM      8  C   UNL     1      15.377  12.167  33.737  0.00  0.00    +0.000 A 
ATOM      9  C   UNL     1      15.087  12.749  32.506  0.00  0.00    +0.000 A 
ATOM     10  C   UNL     1      15.620  12.441  31.249  0.00  0.00    +0.000 C 
ATOM     11  C   UNL     1      15.914  11.059  30.858  0.00  0.00    +0.000 C 
ATOM     12  C   UNL     1      16.758  13.341  30.800  0.00  0.00    +0.000 C 
ENDROOT
BRANCH   7  13
ATOM     13  C   UNL     1      15.115  11.908  36.193  0.00  0.00    +0.000 A 
ATOM     14  C   UNL     1      14.091  11.769  37.104  0.00  0.00    +0.000 A 
ATOM     15  C   UNL     1      14.291  11.189  38.342  0.00  0.00    +0.000 A 
ATOM     16  C   UNL     1      15.542  10.749  38.647  0.00  0.00    +0.000 A 
ATOM     17  C   UNL     1      16.598  10.857  37.790  0.00  0.00    +0.000 A 
ATOM     18  C   UNL     1      16.360  11.446  36.552  0.00  0.00    +0.000 A 
BRANCH  17  19
ATOM     19  N   UNL     1      17.892  10.387  38.136  0.00  0.00    +0.000 N 
ATOM     20  O   UNL     1      18.796  11.131  38.524  0.00  0.00    +0.000 OA
ATOM     21  O   UNL     1      18.154   9.043  38.039  0.00  0.00    +0.000 OA
ENDBRANCH  17  19
ENDBRANCH   7  13
TORSDOF 2
ENDMDL
MODEL 5
REMARK VINA RESULT:      -7.1     13.362     16.939
REMARK  Name = 
REMARK  2 active torsions:
REMARK  status: ('A' for Active; 'I' for Inactive)
REMARK    1  A    between atoms: C_7  and  C_8
REMARK    2  A    between atoms: C_12  and  N_13
REMARK                            x       y       z     vdW  Elec       q    Type
REMARK                         _______ _______ _______ _____ _____    ______ ____
ROOT
ATOM      1  C   UNL     1      27.652  25.440  30.143  0.00  0.00    +0.000 C 
ATOM      2  C   UNL     1      26.901  24.172  30.905  0.00  0.00    +0.000 C 
ATOM      3  N   UNL     1      25.502  24.498  30.270  0.00  0.00    +0.000 NA
ATOM      4  C   UNL     1      25.639  24.480  28.885  0.00  0.00    +0.000 A 
ATOM      5  C   UNL     1      24.901  25.156  27.875  0.00  0.00    +0.000 A 
ATOM      6  C   UNL     1      25.223  24.959  26.553  0.00  0.00    +0.000 A 
ATOM      7  C   UNL     1      26.272  24.098  26.210  0.00  0.00    +0.000 A 
ATOM      8  C   UNL     1      26.941  23.480  27.231  0.00  0.00    +0.000 A 
ATOM      9  C   UNL     1      26.646  23.652  28.580  0.00  0.00    +0.000 A 
ATOM     10  C   UNL     1      27.274  23.077  29.691  0.00  0.00    +0.000 C 
ATOM     11  C   UNL     1      28.726  22.877  29.732  0.00  0.00    +0.000 C 
ATOM     12  C   UNL     1      26.582  21.847  30.250  0.00  0.00    +0.000 C 
ENDROOT
BRANCH   7  13
ATOM     13  C   UNL     1      26.600  23.897  24.806  0.00  0.00    +0.000 A 
ATOM     14  C   UNL     1      25.577  23.510  23.969  0.00  0.00    +0.000 A 
ATOM     15  C   UNL     1      25.783  23.295  22.620  0.00  0.00    +0.000 A 
ATOM     16  C   UNL     1      27.038  23.477  22.127  0.00  0.00    +0.000 A 
ATOM     17  C   UNL     1      28.093  23.860  22.903  0.00  0.00    +0.000 A 
ATOM     18  C   UNL     1      27.850  24.068  24.257  0.00  0.00    +0.000 A 
BRANCH  17  19
ATOM     19  N   UNL     1      29.392  24.043  22.359  0.00  0.00    +0.000 N 
ATOM     20  O   UNL     1      29.598  24.222  21.156  0.00  0.00    +0.000 OA
ATOM     21  O   UNL     1      30.471  24.025  23.206  0.00  0.00    +0.000 OA
ENDBRANCH  17  19
ENDBRANCH   7  13
TORSDOF 2
ENDMDL
MODEL 6
REMARK VINA RESULT:      -6.8     32.868     34.148
REMARK  Name = 
REMARK  2 active torsions:
REMARK  status: ('A' for Active; 'I' for Inactive)
REMARK    1  A    between atoms: C_7  and  C_8
REMARK    2  A    between atoms: C_12  and  N_13
REMARK                            x       y       z     vdW  Elec       q    Type
REMARK                         _______ _______ _______ _____ _____    ______ ____
ROOT
ATOM      1  C   UNL     1      24.808  -9.069  21.507  0.00  0.00    +0.000 C 
ATOM      2  C   UNL     1      26.187  -9.196  22.421  0.00  0.00    +0.000 C 
ATOM      3  N   UNL     1      26.081  -7.723  22.953  0.00  0.00    +0.000 NA
ATOM      4  C   UNL     1      24.851  -7.577  23.587  0.00  0.00    +0.000 A 
ATOM      5  C   UNL     1      24.046  -6.422  23.789  0.00  0.00    +0.000 A 
ATOM      6  C   UNL     1      22.858  -6.535  24.471  0.00  0.00    +0.000 A 
ATOM      7  C   UNL     1      22.448  -7.779  24.963  0.00  0.00    +0.000 A 
ATOM      8  C   UNL     1      23.269  -8.850  24.733  0.00  0.00    +0.000 A 
ATOM      9  C   UNL     1      24.479  -8.778  24.048  0.00  0.00    +0.000 A 
ATOM     10  C   UNL     1      25.378  -9.810  23.755  0.00  0.00    +0.000 C 
ATOM     11  C   UNL     1      24.913 -11.152  23.390  0.00  0.00    +0.000 C 
ATOM     12  C   UNL     1      26.547  -9.930  24.716  0.00  0.00    +0.000 C 
ENDROOT
BRANCH   7  13
ATOM     13  C   UNL     1      21.189  -7.883  25.685  0.00  0.00    +0.000 A 
ATOM     14  C   UNL     1      20.888  -9.100  26.255  0.00  0.00    +0.000 A 
ATOM     15  C   UNL     1      19.719  -9.303  26.963  0.00  0.00    +0.000 A 
ATOM     16  C   UNL     1      18.857  -8.259  27.088  0.00  0.00    +0.000 A 
ATOM     17  C   UNL     1      19.097  -7.028  26.549  0.00  0.00    +0.000 A 
ATOM     18  C   UNL     1      20.283  -6.859  25.842  0.00  0.00    +0.000 A 
BRANCH  17  19
ATOM     19  N   UNL     1      18.179  -5.956  26.698  0.00  0.00    +0.000 N 
ATOM     20  O   UNL     1      17.052  -6.098  27.179  0.00  0.00    +0.000 OA
ATOM     21  O   UNL     1      18.558  -4.701  26.294  0.00  0.00    +0.000 OA
ENDBRANCH  17  19
ENDBRANCH   7  13
TORSDOF 2
ENDMDL
MODEL 7
REMARK VINA RESULT:      -6.6     13.769     16.328
REMARK  Name = 
REMARK  2 active torsions:
REMARK  status: ('A' for Active; 'I' for Inactive)
REMARK    1  A    between atoms: C_7  and  C_8
REMARK    2  A    between atoms: C_12  and  N_13
REMARK                            x       y       z     vdW  Elec       q    Type
REMARK                         _______ _______ _______ _____ _____    ______ ____
ROOT
ATOM      1  C   UNL     1      29.756  25.984  23.359  0.00  0.00    +0.000 C 
ATOM      2  C   UNL     1      28.866  25.125  22.252  0.00  0.00    +0.000 C 
ATOM      3  N   UNL     1      29.692  23.808  22.471  0.00  0.00    +0.000 NA
ATOM      4  C   UNL     1      29.620  23.469  23.819  0.00  0.00    +0.000 A 
ATOM      5  C   UNL     1      30.521  22.731  24.636  0.00  0.00    +0.000 A 
ATOM      6  C   UNL     1      30.213  22.513  25.958  0.00  0.00    +0.000 A 
ATOM      7  C   UNL     1      29.020  23.014  26.491  0.00  0.00    +0.000 A 
ATOM      8  C   UNL     1      28.198  23.715  25.650  0.00  0.00    +0.000 A 
ATOM      9  C   UNL     1      28.473  23.958  24.308  0.00  0.00    +0.000 A 
ATOM     10  C   UNL     1      27.707  24.667  23.375  0.00  0.00    +0.000 C 
ATOM     11  C   UNL     1      26.976  25.882  23.749  0.00  0.00    +0.000 C 
ATOM     12  C   UNL     1      26.830  23.808  22.484  0.00  0.00    +0.000 C 
ENDROOT
BRANCH   7  13
ATOM     13  C   UNL     1      28.706  22.772  27.891  0.00  0.00    +0.000 A 
ATOM     14  C   UNL     1      27.377  22.618  28.222  0.00  0.00    +0.000 A 
ATOM     15  C   UNL     1      26.973  22.384  29.521  0.00  0.00    +0.000 A 
ATOM     16  C   UNL     1      27.930  22.306  30.485  0.00  0.00    +0.000 A 
ATOM     17  C   UNL     1      29.262  22.449  30.224  0.00  0.00    +0.000 A 
ATOM     18  C   UNL     1      29.633  22.684  28.904  0.00  0.00    +0.000 A 
BRANCH  17  19
ATOM     19  N   UNL     1      30.238  22.361  31.250  0.00  0.00    +0.000 N 
ATOM     20  O   UNL     1      30.141  21.586  32.205  0.00  0.00    +0.000 OA
ATOM     21  O   UNL     1      31.344  23.170  31.181  0.00  0.00    +0.000 OA
ENDBRANCH  17  19
ENDBRANCH   7  13
TORSDOF 2
ENDMDL
MODEL 8
REMARK VINA RESULT:      -6.5     14.010     16.744
REMARK  Name = 
REMARK  2 active torsions:
REMARK  status: ('A' for Active; 'I' for Inactive)
REMARK    1  A    between atoms: C_7  and  C_8
REMARK    2  A    between atoms: C_12  and  N_13
REMARK                            x       y       z     vdW  Elec       q    Type
REMARK                         _______ _______ _______ _____ _____    ______ ____
ROOT
ATOM      1  C   UNL     1      31.312  24.656  30.440  0.00  0.00    +0.000 C 
ATOM      2  C   UNL     1      32.029  23.192  30.752  0.00  0.00    +0.000 C 
ATOM      3  N   UNL     1      30.664  22.490  31.085  0.00  0.00    +0.000 NA
ATOM      4  C   UNL     1      29.827  22.621  29.981  0.00  0.00    +0.000 A 
ATOM      5  C   UNL     1      28.408  22.640  29.894  0.00  0.00    +0.000 A 
ATOM      6  C   UNL     1      27.806  22.766  28.665  0.00  0.00    +0.000 A 
ATOM      7  C   UNL     1      28.589  22.874  27.510  0.00  0.00    +0.000 A 
ATOM      8  C   UNL     1      29.949  22.850  27.664  0.00  0.00    +0.000 A 
ATOM      9  C   UNL     1      30.596  22.723  28.889  0.00  0.00    +0.000 A 
ATOM     10  C   UNL     1      31.971  22.698  29.151  0.00  0.00    +0.000 C 
ATOM     11  C   UNL     1      32.908  23.549  28.411  0.00  0.00    +0.000 C 
ATOM     12  C   UNL     1      32.567  21.310  29.302  0.00  0.00    +0.000 C 
ENDROOT
BRANCH   7  13
ATOM     13  C   UNL     1      27.938  23.005  26.215  0.00  0.00    +0.000 A 
ATOM     14  C   UNL     1      26.563  22.922  26.190  0.00  0.00    +0.000 A 
ATOM     15  C   UNL     1      25.848  23.036  25.014  0.00  0.00    +0.000 A 
ATOM     16  C   UNL     1      26.541  23.234  23.860  0.00  0.00    +0.000 A 
ATOM     17  C   UNL     1      27.902  23.325  23.817  0.00  0.00    +0.000 A 
ATOM     18  C   UNL     1      28.590  23.207  25.020  0.00  0.00    +0.000 A 
BRANCH  17  19
ATOM     19  N   UNL     1      28.598  23.535  22.598  0.00  0.00    +0.000 N 
ATOM     20  O   UNL     1      28.080  23.368  21.491  0.00  0.00    +0.000 OA
ATOM     21  O   UNL     1      29.907  23.945  22.646  0.00  0.00    +0.000 OA
ENDBRANCH  17  19
ENDBRANCH   7  13
TORSDOF 2
ENDMDL
MODEL 9
REMARK VINA RESULT:      -6.4     14.996     17.652
REMARK  Name = 
REMARK  2 active torsions:
REMARK  status: ('A' for Active; 'I' for Inactive)
REMARK    1  A    between atoms: C_7  and  C_8
REMARK    2  A    between atoms: C_12  and  N_13
REMARK                            x       y       z     vdW  Elec       q    Type
REMARK                         _______ _______ _______ _____ _____    ______ ____
ROOT
ATOM      1  C   UNL     1      31.848  24.410  31.609  0.00  0.00    +0.000 C 
ATOM      2  C   UNL     1      32.254  22.914  32.202  0.00  0.00    +0.000 C 
ATOM      3  N   UNL     1      30.772  22.397  32.170  0.00  0.00    +0.000 NA
ATOM      4  C   UNL     1      30.299  22.512  30.867  0.00  0.00    +0.000 A 
ATOM      5  C   UNL     1      28.974  22.674  30.375  0.00  0.00    +0.000 A 
ATOM      6  C   UNL     1      28.759  22.747  29.019  0.00  0.00    +0.000 A 
ATOM      7  C   UNL     1      29.839  22.662  28.133  0.00  0.00    +0.000 A 
ATOM      8  C   UNL     1      31.087  22.506  28.673  0.00  0.00    +0.000 A 
ATOM      9  C   UNL     1      31.347  22.427  30.038  0.00  0.00    +0.000 A 
ATOM     10  C   UNL     1      32.580  22.280  30.684  0.00  0.00    +0.000 C 
ATOM     11  C   UNL     1      33.788  22.952  30.194  0.00  0.00    +0.000 C 
ATOM     12  C   UNL     1      32.926  20.857  31.083  0.00  0.00    +0.000 C 
ENDROOT
BRANCH   7  13
ATOM     13  C   UNL     1      29.596  22.739  26.700  0.00  0.00    +0.000 A 
ATOM     14  C   UNL     1      30.692  22.658  25.870  0.00  0.00    +0.000 A 
ATOM     15  C   UNL     1      30.570  22.718  24.496  0.00  0.00    +0.000 A 
ATOM     16  C   UNL     1      29.324  22.862  23.969  0.00  0.00    +0.000 A 
ATOM     17  C   UNL     1      28.198  22.948  24.736  0.00  0.00    +0.000 A 
ATOM     18  C   UNL     1      28.358  22.883  26.117  0.00  0.00    +0.000 A 
BRANCH  17  19
ATOM     19  N   UNL     1      26.910  23.096  24.159  0.00  0.00    +0.000 N 
ATOM     20  O   UNL     1      26.723  23.159  22.941  0.00  0.00    +0.000 OA
ATOM     21  O   UNL     1      25.819  23.169  24.988  0.00  0.00    +0.000 OA
ENDBRANCH  17  19
ENDBRANCH   7  13
TORSDOF 2
ENDMDL
MODEL 10
REMARK VINA RESULT:      -6.4     30.742     33.118
REMARK  Name = 
REMARK  2 active torsions:
REMARK  status: ('A' for Active; 'I' for Inactive)
REMARK    1  A    between atoms: C_7  and  C_8
REMARK    2  A    between atoms: C_12  and  N_13
REMARK                            x       y       z     vdW  Elec       q    Type
REMARK                         _______ _______ _______ _____ _____    ______ ____
ROOT
ATOM      1  C   UNL     1      19.199   9.821  42.287  0.00  0.00    +0.000 C 
ATOM      2  C   UNL     1      19.222   8.162  42.230  0.00  0.00    +0.000 C 
ATOM      3  N   UNL     1      17.658   8.046  42.313  0.00  0.00    +0.000 NA
ATOM      4  C   UNL     1      17.112   8.759  41.251  0.00  0.00    +0.000 A 
ATOM      5  C   UNL     1      15.846   9.393  41.117  0.00  0.00    +0.000 A 
ATOM      6  C   UNL     1      15.528  10.032  39.942  0.00  0.00    +0.000 A 
ATOM      7  C   UNL     1      16.448  10.055  38.887  0.00  0.00    +0.000 A 
ATOM      8  C   UNL     1      17.648   9.426  39.083  0.00  0.00    +0.000 A 
ATOM      9  C   UNL     1      18.007   8.769  40.255  0.00  0.00    +0.000 A 
ATOM     10  C   UNL     1      19.206   8.110  40.554  0.00  0.00    +0.000 C 
ATOM     11  C   UNL     1      20.500   8.628  40.101  0.00  0.00    +0.000 C 
ATOM     12  C   UNL     1      19.172   6.605  40.357  0.00  0.00    +0.000 C 
ENDROOT
BRANCH   7  13
ATOM     13  C   UNL     1      16.097  10.734  37.649  0.00  0.00    +0.000 A 
ATOM     14  C   UNL     1      15.093  11.675  37.709  0.00  0.00    +0.000 A 
ATOM     15  C   UNL     1      14.686  12.376  36.591  0.00  0.00    +0.000 A 
ATOM     16  C   UNL     1      15.307  12.115  35.409  0.00  0.00    +0.000 A 
ATOM     17  C   UNL     1      16.308  11.196  35.283  0.00  0.00    +0.000 A 
ATOM     18  C   UNL     1      16.693  10.508  36.429  0.00  0.00    +0.000 A 
BRANCH  17  19
ATOM     19  N   UNL     1      16.939  10.946  34.037  0.00  0.00    +0.000 N 
ATOM     20  O   UNL     1      16.545  11.432  32.974  0.00  0.00    +0.000 OA
ATOM     21  O   UNL     1      18.040  10.127  34.007  0.00  0.00    +0.000 OA
ENDBRANCH  17  19
ENDBRANCH   7  13
TORSDOF 2
ENDMDL
