MODEL 1
REMARK VINA RESULT:      -7.2      0.000      0.000
REMARK  Name = 
REMARK  2 active torsions:
REMARK  status: ('A' for Active; 'I' for Inactive)
REMARK    1  A    between atoms: C_6  and  N_7
REMARK    2  A    between atoms: C_8  and  C_10
REMARK                            x       y       z     vdW  Elec       q    Type
REMARK                         _______ _______ _______ _____ _____    ______ ____
ROOT
ATOM      1  N   UNL     1      30.917  22.934  11.799  0.00  0.00    +0.000 NA
ATOM      2  C   UNL     1      31.655  21.725  11.923  0.00  0.00    +0.000 C 
ATOM      3  O   UNL     1      31.063  20.753  12.460  0.00  0.00    +0.000 OA
ENDROOT
BRANCH   2   4
ATOM      4  C   UNL     1      33.027  21.636  11.445  0.00  0.00    +0.000 C 
ATOM      5  C   UNL     1      33.467  20.277  11.019  0.00  0.00    +0.000 C 
ATOM      6  C   UNL     1      34.992  20.263  11.075  0.00  0.00    +0.000 C 
ATOM      7  C   UNL     1      35.509  21.376  10.188  0.00  0.00    +0.000 C 
ATOM      8  C   UNL     1      35.056  21.062   8.775  0.00  0.00    +0.000 C 
ATOM      9  C   UNL     1      33.544  21.137   8.715  0.00  0.00    +0.000 C 
ATOM     10  C   UNL     1      32.999  20.002   9.586  0.00  0.00    +0.000 C 
ATOM     11  C   UNL     1      33.032  22.476   9.150  0.00  0.00    +0.000 C 
ATOM     12  C   UNL     1      33.481  22.743  10.571  0.00  0.00    +0.000 C 
ATOM     13  C   UNL     1      35.010  22.725  10.578  0.00  0.00    +0.000 C 
ENDBRANCH   2   4
BRANCH   1  19
ATOM     14  N   UNL     1      26.167  22.262  11.030  0.00  0.00    +0.000 NA
ATOM     15  C   UNL     1      27.224  22.697  11.870  0.00  0.00    +0.000 A 
ATOM     16  C   UNL     1      27.005  23.217  13.127  0.00  0.00    +0.000 A 
ATOM     17  C   UNL     1      28.024  23.645  13.959  0.00  0.00    +0.000 A 
ATOM     18  C   UNL     1      29.340  23.553  13.519  0.00  0.00    +0.000 A 
ATOM     19  C   UNL     1      29.557  23.036  12.269  0.00  0.00    +0.000 A 
ATOM     20  C   UNL     1      28.547  22.609  11.439  0.00  0.00    +0.000 A 
ENDBRANCH   1  19
TORSDOF 2
ENDMDL
MODEL 2
REMARK VINA RESULT:      -7.0      1.501      2.594
REMARK  Name = 
REMARK  2 active torsions:
REMARK  status: ('A' for Active; 'I' for Inactive)
REMARK    1  A    between atoms: C_6  and  N_7
REMARK    2  A    between atoms: C_8  and  C_10
REMARK                            x       y       z     vdW  Elec       q    Type
REMARK                         _______ _______ _______ _____ _____    ______ ____
ROOT
ATOM      1  N   UNL     1      29.551  22.380  10.846  0.00  0.00    +0.000 NA
ATOM      2  C   UNL     1      30.473  21.352  11.186  0.00  0.00    +0.000 C 
ATOM      3  O   UNL     1      30.415  20.906  12.361  0.00  0.00    +0.000 OA
ENDROOT
BRANCH   2   4
ATOM      4  C   UNL     1      31.429  20.854  10.209  0.00  0.00    +0.000 C 
ATOM      5  C   UNL     1      31.192  21.291   8.804  0.00  0.00    +0.000 C 
ATOM      6  C   UNL     1      31.908  20.292   7.898  0.00  0.00    +0.000 C 
ATOM      7  C   UNL     1      33.371  20.264   8.287  0.00  0.00    +0.000 C 
ATOM      8  C   UNL     1      33.923  21.654   8.036  0.00  0.00    +0.000 C 
ATOM      9  C   UNL     1      33.249  22.629   8.980  0.00  0.00    +0.000 C 
ATOM     10  C   UNL     1      31.771  22.693   8.587  0.00  0.00    +0.000 C 
ATOM     11  C   UNL     1      33.434  22.237  10.415  0.00  0.00    +0.000 C 
ATOM     12  C   UNL     1      32.850  20.858  10.633  0.00  0.00    +0.000 C 
ATOM     13  C   UNL     1      33.598  19.894   9.713  0.00  0.00    +0.000 C 
ENDBRANCH   2   4
BRANCH   1  19
ATOM     14  N   UNL     1      28.600  25.078  14.773  0.00  0.00    +0.000 NA
ATOM     15  C   UNL     1      28.151  24.216  13.739  0.00  0.00    +0.000 A 
ATOM     16  C   UNL     1      26.834  23.836  13.610  0.00  0.00    +0.000 A 
ATOM     17  C   UNL     1      26.380  22.998  12.608  0.00  0.00    +0.000 A 
ATOM     18  C   UNL     1      27.287  22.505  11.677  0.00  0.00    +0.000 A 
ATOM     19  C   UNL     1      28.599  22.883  11.805  0.00  0.00    +0.000 A 
ATOM     20  C   UNL     1      29.053  23.717  12.800  0.00  0.00    +0.000 A 
ENDBRANCH   1  19
TORSDOF 2
ENDMDL
MODEL 3
REMARK VINA RESULT:      -6.5     28.807     30.438
REMARK  Name = 
REMARK  2 active torsions:
REMARK  status: ('A' for Active; 'I' for Inactive)
REMARK    1  A    between atoms: C_6  and  N_7
REMARK    2  A    between atoms: C_8  and  C_10
REMARK                            x       y       z     vdW  Elec       q    Type
REMARK                         _______ _______ _______ _____ _____    ______ ____
ROOT
ATOM      1  N   UNL     1      20.549   9.632  37.801  0.00  0.00    +0.000 NA
ATOM      2  C   UNL     1      21.489  10.683  37.984  0.00  0.00    +0.000 C 
ATOM      3  O   UNL     1      21.063  11.857  37.823  0.00  0.00    +0.000 OA
ENDROOT
BRANCH   2   4
ATOM      4  C   UNL     1      22.870  10.397  38.341  0.00  0.00    +0.000 C 
ATOM      5  C   UNL     1      23.382   9.071  37.893  0.00  0.00    +0.000 C 
ATOM      6  C   UNL     1      24.581   8.733  38.776  0.00  0.00    +0.000 C 
ATOM      7  C   UNL     1      25.593   9.852  38.648  0.00  0.00    +0.000 C 
ATOM      8  C   UNL     1      26.034   9.886  37.197  0.00  0.00    +0.000 C 
ATOM      9  C   UNL     1      24.853  10.280  36.334  0.00  0.00    +0.000 C 
ATOM     10  C   UNL     1      23.825   9.149  36.428  0.00  0.00    +0.000 C 
ATOM     11  C   UNL     1      24.275  11.601  36.744  0.00  0.00    +0.000 C 
ATOM     12  C   UNL     1      23.825  11.521  38.186  0.00  0.00    +0.000 C 
ATOM     13  C   UNL     1      25.054  11.187  39.031  0.00  0.00    +0.000 C 
ENDBRANCH   2   4
BRANCH   1  19
ATOM     14  N   UNL     1      17.083   9.901  34.408  0.00  0.00    +0.000 NA
ATOM     15  C   UNL     1      17.486  10.028  35.762  0.00  0.00    +0.000 A 
ATOM     16  C   UNL     1      16.616  10.402  36.762  0.00  0.00    +0.000 A 
ATOM     17  C   UNL     1      16.992  10.531  38.087  0.00  0.00    +0.000 A 
ATOM     18  C   UNL     1      18.312  10.274  38.443  0.00  0.00    +0.000 A 
ATOM     19  C   UNL     1      19.178   9.902  37.447  0.00  0.00    +0.000 A 
ATOM     20  C   UNL     1      18.806   9.773  36.129  0.00  0.00    +0.000 A 
ENDBRANCH   1  19
TORSDOF 2
ENDMDL
MODEL 4
REMARK VINA RESULT:      -6.4     12.750     15.651
REMARK  Name = 
REMARK  2 active torsions:
REMARK  status: ('A' for Active; 'I' for Inactive)
REMARK    1  A    between atoms: C_6  and  N_7
REMARK    2  A    between atoms: C_8  and  C_10
REMARK                            x       y       z     vdW  Elec       q    Type
REMARK                         _______ _______ _______ _____ _____    ______ ____
ROOT
ATOM      1  N   UNL     1      27.834  23.165  26.439  0.00  0.00    +0.000 NA
ATOM      2  C   UNL     1      27.673  24.479  25.920  0.00  0.00    +0.000 C 
ATOM      3  O   UNL     1      27.708  25.423  26.751  0.00  0.00    +0.000 OA
ENDROOT
BRANCH   2   4
ATOM      4  C   UNL     1      27.479  24.700  24.495  0.00  0.00    +0.000 C 
ATOM      5  C   UNL     1      28.091  25.947  23.954  0.00  0.00    +0.000 C 
ATOM      6  C   UNL     1      27.362  26.275  22.653  0.00  0.00    +0.000 C 
ATOM      7  C   UNL     1      27.487  25.084  21.727  0.00  0.00    +0.000 C 
ATOM      8  C   UNL     1      28.965  24.900  21.440  0.00  0.00    +0.000 C 
ATOM      9  C   UNL     1      29.671  24.516  22.725  0.00  0.00    +0.000 C 
ATOM     10  C   UNL     1      29.579  25.718  23.669  0.00  0.00    +0.000 C 
ATOM     11  C   UNL     1      29.092  23.276  23.333  0.00  0.00    +0.000 C 
ATOM     12  C   UNL     1      27.625  23.505  23.629  0.00  0.00    +0.000 C 
ATOM     13  C   UNL     1      26.936  23.825  22.301  0.00  0.00    +0.000 C 
ENDBRANCH   2   4
BRANCH   1  19
ATOM     14  N   UNL     1      25.979  21.982  30.770  0.00  0.00    +0.000 NA
ATOM     15  C   UNL     1      27.093  22.347  29.972  0.00  0.00    +0.000 A 
ATOM     16  C   UNL     1      28.361  22.489  30.490  0.00  0.00    +0.000 A 
ATOM     17  C   UNL     1      29.459  22.844  29.725  0.00  0.00    +0.000 A 
ATOM     18  C   UNL     1      29.288  23.073  28.364  0.00  0.00    +0.000 A 
ATOM     19  C   UNL     1      28.026  22.931  27.849  0.00  0.00    +0.000 A 
ATOM     20  C   UNL     1      26.933  22.578  28.606  0.00  0.00    +0.000 A 
ENDBRANCH   1  19
TORSDOF 2
ENDMDL
MODEL 5
REMARK VINA RESULT:      -6.3     19.070     19.954
REMARK  Name = 
REMARK  2 active torsions:
REMARK  status: ('A' for Active; 'I' for Inactive)
REMARK    1  A    between atoms: C_6  and  N_7
REMARK    2  A    between atoms: C_8  and  C_10
REMARK                            x       y       z     vdW  Elec       q    Type
REMARK                         _______ _______ _______ _____ _____    ______ ____
ROOT
ATOM      1  N   UNL     1      24.828   3.378  18.287  0.00  0.00    +0.000 NA
ATOM      2  C   UNL     1      25.507   4.030  17.221  0.00  0.00    +0.000 C 
ATOM      3  O   UNL     1      25.067   3.823  16.060  0.00  0.00    +0.000 OA
ENDROOT
BRANCH   2   4
ATOM      4  C   UNL     1      26.652   4.890  17.480  0.00  0.00    +0.000 C 
ATOM      5  C   UNL     1      27.856   4.617  16.644  0.00  0.00    +0.000 C 
ATOM      6  C   UNL     1      29.056   5.199  17.386  0.00  0.00    +0.000 C 
ATOM      7  C   UNL     1      28.799   6.673  17.620  0.00  0.00    +0.000 C 
ATOM      8  C   UNL     1      28.688   7.325  16.255  0.00  0.00    +0.000 C 
ATOM      9  C   UNL     1      27.461   6.785  15.550  0.00  0.00    +0.000 C 
ATOM     10  C   UNL     1      27.711   5.299  15.280  0.00  0.00    +0.000 C 
ATOM     11  C   UNL     1      26.212   7.011  16.347  0.00  0.00    +0.000 C 
ATOM     12  C   UNL     1      26.349   6.326  17.690  0.00  0.00    +0.000 C 
ATOM     13  C   UNL     1      27.556   6.942  18.397  0.00  0.00    +0.000 C 
ENDBRANCH   2   4
BRANCH   1  19
ATOM     14  N   UNL     1      20.015   2.819  17.939  0.00  0.00    +0.000 NA
ATOM     15  C   UNL     1      21.321   2.269  17.878  0.00  0.00    +0.000 A 
ATOM     16  C   UNL     1      21.553   0.942  17.594  0.00  0.00    +0.000 A 
ATOM     17  C   UNL     1      22.820   0.389  17.529  0.00  0.00    +0.000 A 
ATOM     18  C   UNL     1      23.924   1.202  17.761  0.00  0.00    +0.000 A 
ATOM     19  C   UNL     1      23.693   2.523  18.045  0.00  0.00    +0.000 A 
ATOM     20  C   UNL     1      22.435   3.075  18.109  0.00  0.00    +0.000 A 
ENDBRANCH   1  19
TORSDOF 2
ENDMDL
MODEL 6
REMARK VINA RESULT:      -6.3     28.888     30.969
REMARK  Name = 
REMARK  2 active torsions:
REMARK  status: ('A' for Active; 'I' for Inactive)
REMARK    1  A    between atoms: C_6  and  N_7
REMARK    2  A    between atoms: C_8  and  C_10
REMARK                            x       y       z     vdW  Elec       q    Type
REMARK                         _______ _______ _______ _____ _____    ______ ____
ROOT
ATOM      1  N   UNL     1      20.208   9.821  37.652  0.00  0.00    +0.000 NA
ATOM      2  C   UNL     1      21.143  10.884  37.788  0.00  0.00    +0.000 C 
ATOM      3  O   UNL     1      20.762  11.892  38.438  0.00  0.00    +0.000 OA
ENDROOT
BRANCH   2   4
ATOM      4  C   UNL     1      22.470  10.791  37.198  0.00  0.00    +0.000 C 
ATOM      5  C   UNL     1      23.488  11.717  37.770  0.00  0.00    +0.000 C 
ATOM      6  C   UNL     1      24.592  11.867  36.727  0.00  0.00    +0.000 C 
ATOM      7  C   UNL     1      25.133  10.489  36.407  0.00  0.00    +0.000 C 
ATOM      8  C   UNL     1      25.726   9.938  37.690  0.00  0.00    +0.000 C 
ATOM      9  C   UNL     1      24.615   9.736  38.700  0.00  0.00    +0.000 C 
ATOM     10  C   UNL     1      24.070  11.122  39.057  0.00  0.00    +0.000 C 
ATOM     11  C   UNL     1      23.544   8.827  38.179  0.00  0.00    +0.000 C 
ATOM     12  C   UNL     1      22.958   9.420  36.915  0.00  0.00    +0.000 C 
ATOM     13  C   UNL     1      24.095   9.548  35.901  0.00  0.00    +0.000 C 
ENDBRANCH   2   4
BRANCH   1  19
ATOM     14  N   UNL     1      15.556  11.171  37.287  0.00  0.00    +0.000 NA
ATOM     15  C   UNL     1      16.604  10.572  38.032  0.00  0.00    +0.000 A 
ATOM     16  C   UNL     1      16.415  10.058  39.295  0.00  0.00    +0.000 A 
ATOM     17  C   UNL     1      17.426   9.470  40.035  0.00  0.00    +0.000 A 
ATOM     18  C   UNL     1      18.702   9.387  39.489  0.00  0.00    +0.000 A 
ATOM     19  C   UNL     1      18.890   9.900  38.231  0.00  0.00    +0.000 A 
ATOM     20  C   UNL     1      17.887  10.484  37.493  0.00  0.00    +0.000 A 
ENDBRANCH   1  19
TORSDOF 2
ENDMDL
MODEL 7
REMARK VINA RESULT:      -6.1     33.217     34.124
REMARK  Name = 
REMARK  2 active torsions:
REMARK  status: ('A' for Active; 'I' for Inactive)
REMARK    1  A    between atoms: C_6  and  N_7
REMARK    2  A    between atoms: C_8  and  C_10
REMARK                            x       y       z     vdW  Elec       q    Type
REMARK                         _______ _______ _______ _____ _____    ______ ____
ROOT
ATOM      1  N   UNL     1      21.297  -6.889  24.937  0.00  0.00    +0.000 NA
ATOM      2  C   UNL     1      22.189  -7.944  25.272  0.00  0.00    +0.000 C 
ATOM      3  O   UNL     1      21.818  -8.731  26.183  0.00  0.00    +0.000 OA
ENDROOT
BRANCH   2   4
ATOM      4  C   UNL     1      23.464  -8.092  24.586  0.00  0.00    +0.000 C 
ATOM      5  C   UNL     1      23.883  -9.496  24.314  0.00  0.00    +0.000 C 
ATOM      6  C   UNL     1      25.395  -9.479  24.107  0.00  0.00    +0.000 C 
ATOM      7  C   UNL     1      25.709  -8.520  22.978  0.00  0.00    +0.000 C 
ATOM      8  C   UNL     1      25.038  -9.068  21.733  0.00  0.00    +0.000 C 
ATOM      9  C   UNL     1      23.536  -9.026  21.923  0.00  0.00    +0.000 C 
ATOM     10  C   UNL     1      23.194 -10.010  23.045  0.00  0.00    +0.000 C 
ATOM     11  C   UNL     1      23.048  -7.641  22.220  0.00  0.00    +0.000 C 
ATOM     12  C   UNL     1      23.718  -7.137  23.481  0.00  0.00    +0.000 C 
ATOM     13  C   UNL     1      25.225  -7.132  23.227  0.00  0.00    +0.000 C 
ENDBRANCH   2   4
BRANCH   1  19
ATOM     14  N   UNL     1      17.078  -8.797  26.406  0.00  0.00    +0.000 NA
ATOM     15  C   UNL     1      17.961  -7.689  26.324  0.00  0.00    +0.000 A 
ATOM     16  C   UNL     1      17.658  -6.459  26.864  0.00  0.00    +0.000 A 
ATOM     17  C   UNL     1      18.507  -5.369  26.793  0.00  0.00    +0.000 A 
ATOM     18  C   UNL     1      19.731  -5.507  26.147  0.00  0.00    +0.000 A 
ATOM     19  C   UNL     1      20.032  -6.731  25.609  0.00  0.00    +0.000 A 
ATOM     20  C   UNL     1      19.190  -7.817  25.679  0.00  0.00    +0.000 A 
ENDBRANCH   1  19
TORSDOF 2
ENDMDL
MODEL 8
REMARK VINA RESULT:      -6.0      9.051     10.961
REMARK  Name = 
REMARK  2 active torsions:
REMARK  status: ('A' for Active; 'I' for Inactive)
REMARK    1  A    between atoms: C_6  and  N_7
REMARK    2  A    between atoms: C_8  and  C_10
REMARK                            x       y       z     vdW  Elec       q    Type
REMARK                         _______ _______ _______ _____ _____    ______ ____
ROOT
ATOM      1  N   UNL     1      28.810  26.821  21.318  0.00  0.00    +0.000 NA
ATOM      2  C   UNL     1      29.602  26.729  20.141  0.00  0.00    +0.000 C 
ATOM      3  O   UNL     1      29.935  25.572  19.772  0.00  0.00    +0.000 OA
ENDROOT
BRANCH   2   4
ATOM      4  C   UNL     1      29.998  27.924  19.413  0.00  0.00    +0.000 C 
ATOM      5  C   UNL     1      30.824  27.685  18.195  0.00  0.00    +0.000 C 
ATOM      6  C   UNL     1      31.566  28.985  17.895  0.00  0.00    +0.000 C 
ATOM      7  C   UNL     1      30.541  30.087  17.728  0.00  0.00    +0.000 C 
ATOM      8  C   UNL     1      29.680  29.714  16.536  0.00  0.00    +0.000 C 
ATOM      9  C   UNL     1      28.902  28.456  16.865  0.00  0.00    +0.000 C 
ATOM     10  C   UNL     1      29.919  27.321  17.013  0.00  0.00    +0.000 C 
ATOM     11  C   UNL     1      28.062  28.622  18.094  0.00  0.00    +0.000 C 
ATOM     12  C   UNL     1      28.955  28.968  19.266  0.00  0.00    +0.000 C 
ATOM     13  C   UNL     1      29.672  30.275  18.924  0.00  0.00    +0.000 C 
ENDBRANCH   2   4
BRANCH   1  19
ATOM     14  N   UNL     1      25.722  23.119  21.919  0.00  0.00    +0.000 NA
ATOM     15  C   UNL     1      26.880  23.829  22.329  0.00  0.00    +0.000 A 
ATOM     16  C   UNL     1      27.646  23.439  23.405  0.00  0.00    +0.000 A 
ATOM     17  C   UNL     1      28.778  24.119  23.817  0.00  0.00    +0.000 A 
ATOM     18  C   UNL     1      29.174  25.256  23.121  0.00  0.00    +0.000 A 
ATOM     19  C   UNL     1      28.411  25.644  22.050  0.00  0.00    +0.000 A 
ATOM     20  C   UNL     1      27.286  24.969  21.638  0.00  0.00    +0.000 A 
ENDBRANCH   1  19
TORSDOF 2
ENDMDL
MODEL 9
REMARK VINA RESULT:      -5.9     33.422     34.647
REMARK  Name = 
REMARK  2 active torsions:
REMARK  status: ('A' for Active; 'I' for Inactive)
REMARK    1  A    between atoms: C_6  and  N_7
REMARK    2  A    between atoms: C_8  and  C_10
REMARK                            x       y       z     vdW  Elec       q    Type
REMARK                         _______ _______ _______ _____ _____    ______ ____
ROOT
ATOM      1  N   UNL     1      33.700  -4.063  32.746  0.00  0.00    +0.000 NA
ATOM      2  C   UNL     1      32.872  -5.189  32.487  0.00  0.00    +0.000 C 
ATOM      3  O   UNL     1      32.154  -5.595  33.439  0.00  0.00    +0.000 OA
ENDROOT
BRANCH   2   4
ATOM      4  C   UNL     1      32.867  -5.828  31.180  0.00  0.00    +0.000 C 
ATOM      5  C   UNL     1      33.989  -5.442  30.278  0.00  0.00    +0.000 C 
ATOM      6  C   UNL     1      33.544  -5.757  28.852  0.00  0.00    +0.000 C 
ATOM      7  C   UNL     1      33.183  -7.226  28.781  0.00  0.00    +0.000 C 
ATOM      8  C   UNL     1      34.445  -8.007  29.097  0.00  0.00    +0.000 C 
ATOM      9  C   UNL     1      34.846  -7.735  30.532  0.00  0.00    +0.000 C 
ATOM     10  C   UNL     1      35.240  -6.258  30.621  0.00  0.00    +0.000 C 
ATOM     11  C   UNL     1      33.752  -8.085  31.494  0.00  0.00    +0.000 C 
ATOM     12  C   UNL     1      32.520  -7.270  31.166  0.00  0.00    +0.000 C 
ATOM     13  C   UNL     1      32.109  -7.619  29.735  0.00  0.00    +0.000 C 
ENDBRANCH   2   4
BRANCH   1  19
ATOM     14  N   UNL     1      32.055  -0.573  35.698  0.00  0.00    +0.000 NA
ATOM     15  C   UNL     1      32.892  -1.696  35.474  0.00  0.00    +0.000 A 
ATOM     16  C   UNL     1      33.725  -2.204  36.446  0.00  0.00    +0.000 A 
ATOM     17  C   UNL     1      34.547  -3.299  36.245  0.00  0.00    +0.000 A 
ATOM     18  C   UNL     1      34.543  -3.928  35.005  0.00  0.00    +0.000 A 
ATOM     19  C   UNL     1      33.715  -3.421  34.038  0.00  0.00    +0.000 A 
ATOM     20  C   UNL     1      32.896  -2.333  34.235  0.00  0.00    +0.000 A 
ENDBRANCH   1  19
TORSDOF 2
ENDMDL
MODEL 10
REMARK VINA RESULT:      -5.8     33.648     34.590
REMARK  Name = 
REMARK  2 active torsions:
REMARK  status: ('A' for Active; 'I' for Inactive)
REMARK    1  A    between atoms: C_6  and  N_7
REMARK    2  A    between atoms: C_8  and  C_10
REMARK                            x       y       z     vdW  Elec       q    Type
REMARK                         _______ _______ _______ _____ _____    ______ ____
ROOT
ATOM      1  N   UNL     1      21.222  -8.313  25.662  0.00  0.00    +0.000 NA
ATOM      2  C   UNL     1      21.195  -8.941  24.386  0.00  0.00    +0.000 C 
ATOM      3  O   UNL     1      20.085  -8.965  23.791  0.00  0.00    +0.000 OA
ENDROOT
BRANCH   2   4
ATOM      4  C   UNL     1      22.400  -9.522  23.814  0.00  0.00    +0.000 C 
ATOM      5  C   UNL     1      22.453  -9.542  22.325  0.00  0.00    +0.000 C 
ATOM      6  C   UNL     1      23.461 -10.616  21.927  0.00  0.00    +0.000 C 
ATOM      7  C   UNL     1      24.787 -10.286  22.580  0.00  0.00    +0.000 C 
ATOM      8  C   UNL     1      25.234  -8.948  22.021  0.00  0.00    +0.000 C 
ATOM      9  C   UNL     1      24.260  -7.878  22.470  0.00  0.00    +0.000 C 
ATOM     10  C   UNL     1      22.916  -8.178  21.800  0.00  0.00    +0.000 C 
ATOM     11  C   UNL     1      24.144  -7.816  23.962  0.00  0.00    +0.000 C 
ATOM     12  C   UNL     1      23.673  -9.158  24.481  0.00  0.00    +0.000 C 
ATOM     13  C   UNL     1      24.712 -10.199  24.065  0.00  0.00    +0.000 C 
ENDBRANCH   2   4
BRANCH   1  19
ATOM     14  N   UNL     1      18.407  -4.427  26.415  0.00  0.00    +0.000 NA
ATOM     15  C   UNL     1      18.663  -5.810  26.600  0.00  0.00    +0.000 A 
ATOM     16  C   UNL     1      17.819  -6.630  27.315  0.00  0.00    +0.000 A 
ATOM     17  C   UNL     1      18.054  -7.981  27.504  0.00  0.00    +0.000 A 
ATOM     18  C   UNL     1      19.195  -8.552  26.952  0.00  0.00    +0.000 A 
ATOM     19  C   UNL     1      20.035  -7.734  26.241  0.00  0.00    +0.000 A 
ATOM     20  C   UNL     1      19.804  -6.392  26.051  0.00  0.00    +0.000 A 
ENDBRANCH   1  19
TORSDOF 2
ENDMDL
