MODEL 1
REMARK VINA RESULT:      -7.7      0.000      0.000
REMARK  Name = 
REMARK  10 active torsions:
REMARK  status: ('A' for Active; 'I' for Inactive)
REMARK    1  A    between atoms: C_2  and  C_4
REMARK    2  A    between atoms: C_4  and  C_5
REMARK    3  A    between atoms: C_5  and  N_6
REMARK    4  A    between atoms: C_7  and  C_9
REMARK    5  A    between atoms: C_12  and  C_13
REMARK    6  A    between atoms: C_13  and  N_14
REMARK    7  A    between atoms: N_14  and  C_15
REMARK    8  A    between atoms: N_14  and  C_22
REMARK    9  A    between atoms: C_15  and  C_16
REMARK   10  A    between atoms: C_22  and  C_23
REMARK                            x       y       z     vdW  Elec       q    Type
REMARK                         _______ _______ _______ _____ _____    ______ ____
ROOT
ATOM      1  N   UNL     1      35.725  -1.051  16.830  0.00  0.00    +0.000 NA
ENDROOT
BRANCH   1   2
ATOM      2  C   UNL     1      35.072   0.215  17.092  0.00  0.00    +0.000 C 
BRANCH   2   6
ATOM      3  C   UNL     1      36.913   3.089  15.964  0.00  0.00    +0.000 A 
ATOM      4  C   UNL     1      36.424   2.698  14.733  0.00  0.00    +0.000 A 
ATOM      5  C   UNL     1      35.672   1.575  14.977  0.00  0.00    +0.000 A 
ATOM      6  C   UNL     1      35.728   1.327  16.330  0.00  0.00    +0.000 A 
ATOM      7  O   UNL     1      36.476   2.253  16.876  0.00  0.00    +0.000 OA
BRANCH   3   9
ATOM      8  N   UNL     1      38.543   4.341  17.368  0.00  0.00    +0.000 NA
ATOM      9  C   UNL     1      37.770   4.245  16.203  0.00  0.00    +0.000 C 
ATOM     10  O   UNL     1      37.827   5.177  15.361  0.00  0.00    +0.000 OA
BRANCH   8  11
ATOM     11  C   UNL     1      39.419   5.451  17.683  0.00  0.00    +0.000 C 
BRANCH  11  12
ATOM     12  C   UNL     1      39.392   5.720  19.155  0.00  0.00    +0.000 C 
BRANCH  12  14
ATOM     13  C   UNL     1      41.455   6.516  20.184  0.00  0.00    +0.000 C 
ATOM     14  C   UNL     1      40.168   6.932  19.554  0.00  0.00    +0.000 C 
ATOM     15  C   UNL     1      39.375   7.905  20.392  0.00  0.00    +0.000 C 
ENDBRANCH  12  14
ENDBRANCH  11  12
ENDBRANCH   8  11
ENDBRANCH   3   9
ENDBRANCH   2   6
ENDBRANCH   1   2
BRANCH   1  16
ATOM     16  C   UNL     1      34.862  -2.129  17.249  0.00  0.00    +0.000 C 
BRANCH  16  17
ATOM     17  C   UNL     1      34.604  -3.071  16.160  0.00  0.00    +0.000 A 
ATOM     18  C   UNL     1      33.326  -3.602  16.059  0.00  0.00    +0.000 A 
ATOM     19  C   UNL     1      32.979  -4.495  15.073  0.00  0.00    +0.000 A 
ATOM     20  C   UNL     1      33.905  -4.892  14.143  0.00  0.00    +0.000 A 
ATOM     21  C   UNL     1      35.189  -4.371  14.229  0.00  0.00    +0.000 A 
ATOM     22  C   UNL     1      35.537  -3.469  15.227  0.00  0.00    +0.000 A 
ENDBRANCH  16  17
ENDBRANCH   1  16
BRANCH   1  23
ATOM     23  C   UNL     1      36.989  -1.046  17.483  0.00  0.00    +0.000 C 
BRANCH  23  24
ATOM     24  C   UNL     1      38.089  -1.599  16.649  0.00  0.00    +0.000 A 
ATOM     25  C   UNL     1      38.720  -2.774  17.004  0.00  0.00    +0.000 A 
ATOM     26  C   UNL     1      39.747  -3.307  16.239  0.00  0.00    +0.000 A 
ATOM     27  C   UNL     1      40.175  -2.680  15.093  0.00  0.00    +0.000 A 
ATOM     28  F   UNL     1      41.177  -3.172  14.320  0.00  0.00    +0.000 F 
ATOM     29  C   UNL     1      39.553  -1.503  14.723  0.00  0.00    +0.000 A 
ATOM     30  C   UNL     1      38.519  -0.972  15.499  0.00  0.00    +0.000 A 
ENDBRANCH  23  24
ENDBRANCH   1  23
TORSDOF 10
ENDMDL
MODEL 2
REMARK VINA RESULT:      -7.6      3.159      4.451
REMARK  Name = 
REMARK  10 active torsions:
REMARK  status: ('A' for Active; 'I' for Inactive)
REMARK    1  A    between atoms: C_2  and  C_4
REMARK    2  A    between atoms: C_4  and  C_5
REMARK    3  A    between atoms: C_5  and  N_6
REMARK    4  A    between atoms: C_7  and  C_9
REMARK    5  A    between atoms: C_12  and  C_13
REMARK    6  A    between atoms: C_13  and  N_14
REMARK    7  A    between atoms: N_14  and  C_15
REMARK    8  A    between atoms: N_14  and  C_22
REMARK    9  A    between atoms: C_15  and  C_16
REMARK   10  A    between atoms: C_22  and  C_23
REMARK                            x       y       z     vdW  Elec       q    Type
REMARK                         _______ _______ _______ _____ _____    ______ ____
ROOT
ATOM      1  N   UNL     1      38.229  -3.282  16.855  0.00  0.00    +0.000 NA
ENDROOT
BRANCH   1   2
ATOM      2  C   UNL     1      38.323  -2.700  18.179  0.00  0.00    +0.000 C 
BRANCH   2   6
ATOM      3  C   UNL     1      36.266   0.225  17.821  0.00  0.00    +0.000 A 
ATOM      4  C   UNL     1      35.881  -0.106  19.107  0.00  0.00    +0.000 A 
ATOM      5  C   UNL     1      36.590  -1.239  19.421  0.00  0.00    +0.000 A 
ATOM      6  C   UNL     1      37.371  -1.553  18.331  0.00  0.00    +0.000 A 
ATOM      7  O   UNL     1      37.146  -0.655  17.405  0.00  0.00    +0.000 OA
BRANCH   3   9
ATOM      8  N   UNL     1      36.658   2.277  16.468  0.00  0.00    +0.000 NA
ATOM      9  C   UNL     1      35.772   1.367  17.060  0.00  0.00    +0.000 C 
ATOM     10  O   UNL     1      34.535   1.552  16.925  0.00  0.00    +0.000 OA
BRANCH   8  11
ATOM     11  C   UNL     1      36.252   3.436  15.698  0.00  0.00    +0.000 C 
BRANCH  11  12
ATOM     12  C   UNL     1      36.374   3.144  14.236  0.00  0.00    +0.000 C 
BRANCH  12  14
ATOM     13  C   UNL     1      38.512   2.470  13.273  0.00  0.00    +0.000 C 
ATOM     14  C   UNL     1      37.265   1.983  13.933  0.00  0.00    +0.000 C 
ATOM     15  C   UNL     1      36.575   0.877  13.172  0.00  0.00    +0.000 C 
ENDBRANCH  12  14
ENDBRANCH  11  12
ENDBRANCH   8  11
ENDBRANCH   3   9
ENDBRANCH   2   6
ENDBRANCH   1   2
BRANCH   1  16
ATOM     16  C   UNL     1      37.647  -4.599  16.953  0.00  0.00    +0.000 C 
BRANCH  16  17
ATOM     17  C   UNL     1      36.375  -4.683  16.234  0.00  0.00    +0.000 A 
ATOM     18  C   UNL     1      35.766  -5.927  16.150  0.00  0.00    +0.000 A 
ATOM     19  C   UNL     1      34.571  -6.116  15.498  0.00  0.00    +0.000 A 
ATOM     20  C   UNL     1      33.934  -5.057  14.903  0.00  0.00    +0.000 A 
ATOM     21  C   UNL     1      34.528  -3.805  14.977  0.00  0.00    +0.000 A 
ATOM     22  C   UNL     1      35.737  -3.618  15.636  0.00  0.00    +0.000 A 
ENDBRANCH  16  17
ENDBRANCH   1  16
BRANCH   1  23
ATOM     23  C   UNL     1      39.526  -3.274  16.270  0.00  0.00    +0.000 C 
BRANCH  23  24
ATOM     24  C   UNL     1      39.607  -2.471  15.021  0.00  0.00    +0.000 A 
ATOM     25  C   UNL     1      40.470  -1.398  14.927  0.00  0.00    +0.000 A 
ATOM     26  C   UNL     1      40.561  -0.638  13.771  0.00  0.00    +0.000 A 
ATOM     27  C   UNL     1      39.790  -0.929  12.670  0.00  0.00    +0.000 A 
ATOM     28  F   UNL     1      39.853  -0.206  11.522  0.00  0.00    +0.000 F 
ATOM     29  C   UNL     1      38.922  -2.001  12.747  0.00  0.00    +0.000 A 
ATOM     30  C   UNL     1      38.836  -2.762  13.916  0.00  0.00    +0.000 A 
ENDBRANCH  23  24
ENDBRANCH   1  23
TORSDOF 10
ENDMDL
MODEL 3
REMARK VINA RESULT:      -7.5      3.111      7.596
REMARK  Name = 
REMARK  10 active torsions:
REMARK  status: ('A' for Active; 'I' for Inactive)
REMARK    1  A    between atoms: C_2  and  C_4
REMARK    2  A    between atoms: C_4  and  C_5
REMARK    3  A    between atoms: C_5  and  N_6
REMARK    4  A    between atoms: C_7  and  C_9
REMARK    5  A    between atoms: C_12  and  C_13
REMARK    6  A    between atoms: C_13  and  N_14
REMARK    7  A    between atoms: N_14  and  C_15
REMARK    8  A    between atoms: N_14  and  C_22
REMARK    9  A    between atoms: C_15  and  C_16
REMARK   10  A    between atoms: C_22  and  C_23
REMARK                            x       y       z     vdW  Elec       q    Type
REMARK                         _______ _______ _______ _____ _____    ______ ____
ROOT
ATOM      1  N   UNL     1      39.116   4.192  14.702  0.00  0.00    +0.000 NA
ENDROOT
BRANCH   1   2
ATOM      2  C   UNL     1      40.118   3.531  13.891  0.00  0.00    +0.000 C 
BRANCH   2   6
ATOM      3  C   UNL     1      39.601   0.027  14.505  0.00  0.00    +0.000 A 
ATOM      4  C   UNL     1      39.456  -0.011  13.131  0.00  0.00    +0.000 A 
ATOM      5  C   UNL     1      39.627   1.285  12.709  0.00  0.00    +0.000 A 
ATOM      6  C   UNL     1      39.868   2.055  13.825  0.00  0.00    +0.000 A 
ATOM      7  O   UNL     1      39.843   1.264  14.870  0.00  0.00    +0.000 OA
BRANCH   3   9
ATOM      8  N   UNL     1      38.542  -1.166  16.415  0.00  0.00    +0.000 NA
ATOM      9  C   UNL     1      39.502  -1.124  15.396  0.00  0.00    +0.000 C 
ATOM     10  O   UNL     1      40.283  -2.100  15.259  0.00  0.00    +0.000 OA
BRANCH   8  11
ATOM     11  C   UNL     1      38.376  -2.268  17.342  0.00  0.00    +0.000 C 
BRANCH  11  12
ATOM     12  C   UNL     1      37.506  -1.846  18.484  0.00  0.00    +0.000 C 
BRANCH  12  14
ATOM     13  C   UNL     1      35.931  -0.125  19.198  0.00  0.00    +0.000 C 
ATOM     14  C   UNL     1      36.341  -1.009  18.067  0.00  0.00    +0.000 C 
ATOM     15  C   UNL     1      35.201  -1.810  17.487  0.00  0.00    +0.000 C 
ENDBRANCH  12  14
ENDBRANCH  11  12
ENDBRANCH   8  11
ENDBRANCH   3   9
ENDBRANCH   2   6
ENDBRANCH   1   2
BRANCH   1  16
ATOM     16  C   UNL     1      37.857   4.196  13.995  0.00  0.00    +0.000 C 
BRANCH  16  17
ATOM     17  C   UNL     1      36.786   3.601  14.796  0.00  0.00    +0.000 A 
ATOM     18  C   UNL     1      35.478   3.856  14.410  0.00  0.00    +0.000 A 
ATOM     19  C   UNL     1      34.399   3.347  15.092  0.00  0.00    +0.000 A 
ATOM     20  C   UNL     1      34.591   2.555  16.195  0.00  0.00    +0.000 A 
ATOM     21  C   UNL     1      35.893   2.289  16.596  0.00  0.00    +0.000 A 
ATOM     22  C   UNL     1      36.981   2.806  15.905  0.00  0.00    +0.000 A 
ENDBRANCH  16  17
ENDBRANCH   1  16
BRANCH   1  23
ATOM     23  C   UNL     1      39.591   5.494  15.025  0.00  0.00    +0.000 C 
BRANCH  23  24
ATOM     24  C   UNL     1      39.839   5.689  16.478  0.00  0.00    +0.000 A 
ATOM     25  C   UNL     1      41.001   6.290  16.921  0.00  0.00    +0.000 A 
ATOM     26  C   UNL     1      41.250   6.482  18.271  0.00  0.00    +0.000 A 
ATOM     27  C   UNL     1      40.344   6.078  19.223  0.00  0.00    +0.000 A 
ATOM     28  F   UNL     1      40.556   6.249  20.553  0.00  0.00    +0.000 F 
ATOM     29  C   UNL     1      39.176   5.476  18.797  0.00  0.00    +0.000 A 
ATOM     30  C   UNL     1      38.931   5.285  17.434  0.00  0.00    +0.000 A 
ENDBRANCH  23  24
ENDBRANCH   1  23
TORSDOF 10
ENDMDL
MODEL 4
REMARK VINA RESULT:      -7.4      3.287      8.440
REMARK  Name = 
REMARK  10 active torsions:
REMARK  status: ('A' for Active; 'I' for Inactive)
REMARK    1  A    between atoms: C_2  and  C_4
REMARK    2  A    between atoms: C_4  and  C_5
REMARK    3  A    between atoms: C_5  and  N_6
REMARK    4  A    between atoms: C_7  and  C_9
REMARK    5  A    between atoms: C_12  and  C_13
REMARK    6  A    between atoms: C_13  and  N_14
REMARK    7  A    between atoms: N_14  and  C_15
REMARK    8  A    between atoms: N_14  and  C_22
REMARK    9  A    between atoms: C_15  and  C_16
REMARK   10  A    between atoms: C_22  and  C_23
REMARK                            x       y       z     vdW  Elec       q    Type
REMARK                         _______ _______ _______ _____ _____    ______ ____
ROOT
ATOM      1  N   UNL     1      37.772   4.781  14.531  0.00  0.00    +0.000 NA
ENDROOT
BRANCH   1   2
ATOM      2  C   UNL     1      37.434   3.440  14.099  0.00  0.00    +0.000 C 
BRANCH   2   6
ATOM      3  C   UNL     1      36.119   1.370  16.727  0.00  0.00    +0.000 A 
ATOM      4  C   UNL     1      34.953   2.052  16.438  0.00  0.00    +0.000 A 
ATOM      5  C   UNL     1      35.276   2.918  15.422  0.00  0.00    +0.000 A 
ATOM      6  C   UNL     1      36.609   2.733  15.131  0.00  0.00    +0.000 A 
ATOM      7  O   UNL     1      37.069   1.803  15.931  0.00  0.00    +0.000 OA
BRANCH   3   9
ATOM      8  N   UNL     1      37.091  -0.772  17.539  0.00  0.00    +0.000 NA
ATOM      9  C   UNL     1      36.262   0.338  17.747  0.00  0.00    +0.000 C 
ATOM     10  O   UNL     1      35.638   0.431  18.835  0.00  0.00    +0.000 OA
BRANCH   8  11
ATOM     11  C   UNL     1      37.289  -1.841  18.498  0.00  0.00    +0.000 C 
BRANCH  11  12
ATOM     12  C   UNL     1      38.549  -2.583  18.180  0.00  0.00    +0.000 C 
BRANCH  12  14
ATOM     13  C   UNL     1      38.242  -4.767  17.137  0.00  0.00    +0.000 C 
ATOM     14  C   UNL     1      38.495  -3.319  16.881  0.00  0.00    +0.000 C 
ATOM     15  C   UNL     1      39.691  -3.066  15.995  0.00  0.00    +0.000 C 
ENDBRANCH  12  14
ENDBRANCH  11  12
ENDBRANCH   8  11
ENDBRANCH   3   9
ENDBRANCH   2   6
ENDBRANCH   1   2
BRANCH   1  16
ATOM     16  C   UNL     1      37.391   5.722  13.505  0.00  0.00    +0.000 C 
BRANCH  16  17
ATOM     17  C   UNL     1      36.224   6.511  13.901  0.00  0.00    +0.000 A 
ATOM     18  C   UNL     1      34.974   6.049  13.512  0.00  0.00    +0.000 A 
ATOM     19  C   UNL     1      33.815   6.714  13.832  0.00  0.00    +0.000 A 
ATOM     20  C   UNL     1      33.863   7.876  14.559  0.00  0.00    +0.000 A 
ATOM     21  C   UNL     1      35.104   8.353  14.956  0.00  0.00    +0.000 A 
ATOM     22  C   UNL     1      36.274   7.679  14.631  0.00  0.00    +0.000 A 
ENDBRANCH  16  17
ENDBRANCH   1  16
BRANCH   1  23
ATOM     23  C   UNL     1      39.158   4.813  14.848  0.00  0.00    +0.000 C 
BRANCH  23  24
ATOM     24  C   UNL     1      39.435   5.205  16.255  0.00  0.00    +0.000 A 
ATOM     25  C   UNL     1      38.624   4.767  17.283  0.00  0.00    +0.000 A 
ATOM     26  C   UNL     1      38.866   5.121  18.601  0.00  0.00    +0.000 A 
ATOM     27  C   UNL     1      39.929   5.927  18.934  0.00  0.00    +0.000 A 
ATOM     28  F   UNL     1      40.196   6.293  20.214  0.00  0.00    +0.000 F 
ATOM     29  C   UNL     1      40.752   6.374  17.918  0.00  0.00    +0.000 A 
ATOM     30  C   UNL     1      40.501   6.013  16.591  0.00  0.00    +0.000 A 
ENDBRANCH  23  24
ENDBRANCH   1  23
TORSDOF 10
ENDMDL
MODEL 5
REMARK VINA RESULT:      -7.3      2.466      4.211
REMARK  Name = 
REMARK  10 active torsions:
REMARK  status: ('A' for Active; 'I' for Inactive)
REMARK    1  A    between atoms: C_2  and  C_4
REMARK    2  A    between atoms: C_4  and  C_5
REMARK    3  A    between atoms: C_5  and  N_6
REMARK    4  A    between atoms: C_7  and  C_9
REMARK    5  A    between atoms: C_12  and  C_13
REMARK    6  A    between atoms: C_13  and  N_14
REMARK    7  A    between atoms: N_14  and  C_15
REMARK    8  A    between atoms: N_14  and  C_22
REMARK    9  A    between atoms: C_15  and  C_16
REMARK   10  A    between atoms: C_22  and  C_23
REMARK                            x       y       z     vdW  Elec       q    Type
REMARK                         _______ _______ _______ _____ _____    ______ ____
ROOT
ATOM      1  N   UNL     1      37.509  -0.303  13.716  0.00  0.00    +0.000 NA
ENDROOT
BRANCH   1   2
ATOM      2  C   UNL     1      36.596   0.684  13.177  0.00  0.00    +0.000 C 
BRANCH   2   6
ATOM      3  C   UNL     1      36.952   3.575  15.282  0.00  0.00    +0.000 A 
ATOM      4  C   UNL     1      35.617   3.329  15.544  0.00  0.00    +0.000 A 
ATOM      5  C   UNL     1      35.296   2.221  14.798  0.00  0.00    +0.000 A 
ATOM      6  C   UNL     1      36.431   1.837  14.120  0.00  0.00    +0.000 A 
ATOM      7  O   UNL     1      37.390   2.670  14.439  0.00  0.00    +0.000 OA
BRANCH   3   9
ATOM      8  N   UNL     1      38.780   4.402  16.755  0.00  0.00    +0.000 NA
ATOM      9  C   UNL     1      37.737   4.662  15.856  0.00  0.00    +0.000 C 
ATOM     10  O   UNL     1      37.487   5.856  15.548  0.00  0.00    +0.000 OA
BRANCH   8  11
ATOM     11  C   UNL     1      39.607   5.421  17.370  0.00  0.00    +0.000 C 
BRANCH  11  12
ATOM     12  C   UNL     1      39.208   5.606  18.800  0.00  0.00    +0.000 C 
BRANCH  12  14
ATOM     13  C   UNL     1      41.117   6.216  20.191  0.00  0.00    +0.000 C 
ATOM     14  C   UNL     1      39.915   6.735  19.475  0.00  0.00    +0.000 C 
ATOM     15  C   UNL     1      39.014   7.576  20.346  0.00  0.00    +0.000 C 
ENDBRANCH  12  14
ENDBRANCH  11  12
ENDBRANCH   8  11
ENDBRANCH   3   9
ENDBRANCH   2   6
ENDBRANCH   1   2
BRANCH   1  16
ATOM     16  C   UNL     1      38.359  -0.794  12.658  0.00  0.00    +0.000 C 
BRANCH  16  17
ATOM     17  C   UNL     1      39.665  -1.218  13.166  0.00  0.00    +0.000 A 
ATOM     18  C   UNL     1      40.081  -2.508  12.870  0.00  0.00    +0.000 A 
ATOM     19  C   UNL     1      41.288  -3.006  13.299  0.00  0.00    +0.000 A 
ATOM     20  C   UNL     1      42.132  -2.224  14.045  0.00  0.00    +0.000 A 
ATOM     21  C   UNL     1      41.732  -0.930  14.351  0.00  0.00    +0.000 A 
ATOM     22  C   UNL     1      40.511  -0.430  13.917  0.00  0.00    +0.000 A 
ENDBRANCH  16  17
ENDBRANCH   1  16
BRANCH   1  23
ATOM     23  C   UNL     1      36.743  -1.321  14.349  0.00  0.00    +0.000 C 
BRANCH  23  24
ATOM     24  C   UNL     1      36.991  -1.425  15.811  0.00  0.00    +0.000 A 
ATOM     25  C   UNL     1      38.099  -2.092  16.294  0.00  0.00    +0.000 A 
ATOM     26  C   UNL     1      38.348  -2.199  17.653  0.00  0.00    +0.000 A 
ATOM     27  C   UNL     1      37.495  -1.640  18.576  0.00  0.00    +0.000 A 
ATOM     28  F   UNL     1      37.708  -1.725  19.915  0.00  0.00    +0.000 F 
ATOM     29  C   UNL     1      36.382  -0.967  18.110  0.00  0.00    +0.000 A 
ATOM     30  C   UNL     1      36.137  -0.864  16.738  0.00  0.00    +0.000 A 
ENDBRANCH  23  24
ENDBRANCH   1  23
TORSDOF 10
ENDMDL
MODEL 6
REMARK VINA RESULT:      -6.9      3.865      7.031
REMARK  Name = 
REMARK  10 active torsions:
REMARK  status: ('A' for Active; 'I' for Inactive)
REMARK    1  A    between atoms: C_2  and  C_4
REMARK    2  A    between atoms: C_4  and  C_5
REMARK    3  A    between atoms: C_5  and  N_6
REMARK    4  A    between atoms: C_7  and  C_9
REMARK    5  A    between atoms: C_12  and  C_13
REMARK    6  A    between atoms: C_13  and  N_14
REMARK    7  A    between atoms: N_14  and  C_15
REMARK    8  A    between atoms: N_14  and  C_22
REMARK    9  A    between atoms: C_15  and  C_16
REMARK   10  A    between atoms: C_22  and  C_23
REMARK                            x       y       z     vdW  Elec       q    Type
REMARK                         _______ _______ _______ _____ _____    ______ ____
ROOT
ATOM      1  N   UNL     1      35.547  -0.739  17.246  0.00  0.00    +0.000 NA
ENDROOT
BRANCH   1   2
ATOM      2  C   UNL     1      36.666  -0.984  18.133  0.00  0.00    +0.000 C 
BRANCH   2   6
ATOM      3  C   UNL     1      39.272  -2.094  15.921  0.00  0.00    +0.000 A 
ATOM      4  C   UNL     1      39.345  -3.141  16.820  0.00  0.00    +0.000 A 
ATOM      5  C   UNL     1      38.387  -2.877  17.769  0.00  0.00    +0.000 A 
ATOM      6  C   UNL     1      37.774  -1.695  17.418  0.00  0.00    +0.000 A 
ATOM      7  O   UNL     1      38.332  -1.267  16.313  0.00  0.00    +0.000 OA
BRANCH   3   9
ATOM      8  N   UNL     1      39.960  -2.802  13.637  0.00  0.00    +0.000 NA
ATOM      9  C   UNL     1      40.105  -1.942  14.734  0.00  0.00    +0.000 C 
ATOM     10  O   UNL     1      40.970  -1.031  14.679  0.00  0.00    +0.000 OA
BRANCH   8  11
ATOM     11  C   UNL     1      40.745  -2.721  12.421  0.00  0.00    +0.000 C 
BRANCH  11  12
ATOM     12  C   UNL     1      39.899  -2.202  11.302  0.00  0.00    +0.000 C 
BRANCH  12  14
ATOM     13  C   UNL     1      38.687  -0.119  11.678  0.00  0.00    +0.000 C 
ATOM     14  C   UNL     1      39.951  -0.717  11.156  0.00  0.00    +0.000 C 
ATOM     15  C   UNL     1      40.299  -0.261   9.759  0.00  0.00    +0.000 C 
ENDBRANCH  12  14
ENDBRANCH  11  12
ENDBRANCH   8  11
ENDBRANCH   3   9
ENDBRANCH   2   6
ENDBRANCH   1   2
BRANCH   1  16
ATOM     16  C   UNL     1      35.127   0.636  17.377  0.00  0.00    +0.000 C 
BRANCH  16  17
ATOM     17  C   UNL     1      35.380   1.398  16.153  0.00  0.00    +0.000 A 
ATOM     18  C   UNL     1      34.867   2.686  16.081  0.00  0.00    +0.000 A 
ATOM     19  C   UNL     1      35.047   3.486  14.978  0.00  0.00    +0.000 A 
ATOM     20  C   UNL     1      35.754   3.023  13.898  0.00  0.00    +0.000 A 
ATOM     21  C   UNL     1      36.274   1.738  13.952  0.00  0.00    +0.000 A 
ATOM     22  C   UNL     1      36.090   0.931  15.068  0.00  0.00    +0.000 A 
ENDBRANCH  16  17
ENDBRANCH   1  16
BRANCH   1  23
ATOM     23  C   UNL     1      34.522  -1.679  17.547  0.00  0.00    +0.000 C 
BRANCH  23  24
ATOM     24  C   UNL     1      34.303  -2.680  16.470  0.00  0.00    +0.000 A 
ATOM     25  C   UNL     1      35.286  -2.942  15.538  0.00  0.00    +0.000 A 
ATOM     26  C   UNL     1      35.101  -3.872  14.527  0.00  0.00    +0.000 A 
ATOM     27  C   UNL     1      33.923  -4.572  14.416  0.00  0.00    +0.000 A 
ATOM     28  F   UNL     1      33.707  -5.490  13.439  0.00  0.00    +0.000 F 
ATOM     29  C   UNL     1      32.928  -4.323  15.342  0.00  0.00    +0.000 A 
ATOM     30  C   UNL     1      33.122  -3.384  16.358  0.00  0.00    +0.000 A 
ENDBRANCH  23  24
ENDBRANCH   1  23
TORSDOF 10
ENDMDL
MODEL 7
REMARK VINA RESULT:      -6.9      2.715      4.471
REMARK  Name = 
REMARK  10 active torsions:
REMARK  status: ('A' for Active; 'I' for Inactive)
REMARK    1  A    between atoms: C_2  and  C_4
REMARK    2  A    between atoms: C_4  and  C_5
REMARK    3  A    between atoms: C_5  and  N_6
REMARK    4  A    between atoms: C_7  and  C_9
REMARK    5  A    between atoms: C_12  and  C_13
REMARK    6  A    between atoms: C_13  and  N_14
REMARK    7  A    between atoms: N_14  and  C_15
REMARK    8  A    between atoms: N_14  and  C_22
REMARK    9  A    between atoms: C_15  and  C_16
REMARK   10  A    between atoms: C_22  and  C_23
REMARK                            x       y       z     vdW  Elec       q    Type
REMARK                         _______ _______ _______ _____ _____    ______ ____
ROOT
ATOM      1  N   UNL     1      37.509   0.180  14.532  0.00  0.00    +0.000 NA
ENDROOT
BRANCH   1   2
ATOM      2  C   UNL     1      36.967   1.447  14.086  0.00  0.00    +0.000 C 
BRANCH   2   6
ATOM      3  C   UNL     1      38.419   3.958  16.209  0.00  0.00    +0.000 A 
ATOM      4  C   UNL     1      39.000   4.370  15.024  0.00  0.00    +0.000 A 
ATOM      5  C   UNL     1      38.543   3.495  14.069  0.00  0.00    +0.000 A 
ATOM      6  C   UNL     1      37.712   2.595  14.697  0.00  0.00    +0.000 A 
ATOM      7  O   UNL     1      37.668   2.910  15.967  0.00  0.00    +0.000 OA
BRANCH   3   9
ATOM      8  N   UNL     1      39.061   5.915  17.606  0.00  0.00    +0.000 NA
ATOM      9  C   UNL     1      38.613   4.591  17.508  0.00  0.00    +0.000 C 
ATOM     10  O   UNL     1      38.380   3.952  18.566  0.00  0.00    +0.000 OA
BRANCH   8  11
ATOM     11  C   UNL     1      39.280   6.618  18.854  0.00  0.00    +0.000 C 
BRANCH  11  12
ATOM     12  C   UNL     1      40.641   7.240  18.856  0.00  0.00    +0.000 C 
BRANCH  12  14
ATOM     13  C   UNL     1      41.944   8.663  20.349  0.00  0.00    +0.000 C 
ATOM     14  C   UNL     1      41.242   7.352  20.219  0.00  0.00    +0.000 C 
ATOM     15  C   UNL     1      42.102   6.170  20.597  0.00  0.00    +0.000 C 
ENDBRANCH  12  14
ENDBRANCH  11  12
ENDBRANCH   8  11
ENDBRANCH   3   9
ENDBRANCH   2   6
ENDBRANCH   1   2
BRANCH   1  16
ATOM     16  C   UNL     1      38.165  -0.474  13.425  0.00  0.00    +0.000 C 
BRANCH  16  17
ATOM     17  C   UNL     1      39.536  -0.861  13.760  0.00  0.00    +0.000 A 
ATOM     18  C   UNL     1      39.837  -2.216  13.774  0.00  0.00    +0.000 A 
ATOM     19  C   UNL     1      41.093  -2.685  14.076  0.00  0.00    +0.000 A 
ATOM     20  C   UNL     1      42.104  -1.809  14.376  0.00  0.00    +0.000 A 
ATOM     21  C   UNL     1      41.822  -0.450  14.367  0.00  0.00    +0.000 A 
ATOM     22  C   UNL     1      40.551   0.022  14.062  0.00  0.00    +0.000 A 
ENDBRANCH  16  17
ENDBRANCH   1  16
BRANCH   1  23
ATOM     23  C   UNL     1      36.452  -0.584  15.100  0.00  0.00    +0.000 C 
BRANCH  23  24
ATOM     24  C   UNL     1      36.691  -0.964  16.517  0.00  0.00    +0.000 A 
ATOM     25  C   UNL     1      37.804  -1.698  16.873  0.00  0.00    +0.000 A 
ATOM     26  C   UNL     1      38.045  -2.061  18.189  0.00  0.00    +0.000 A 
ATOM     27  C   UNL     1      37.178  -1.701  19.193  0.00  0.00    +0.000 A 
ATOM     28  F   UNL     1      37.382  -2.039  20.492  0.00  0.00    +0.000 F 
ATOM     29  C   UNL     1      36.058  -0.965  18.854  0.00  0.00    +0.000 A 
ATOM     30  C   UNL     1      35.822  -0.603  17.525  0.00  0.00    +0.000 A 
ENDBRANCH  23  24
ENDBRANCH   1  23
TORSDOF 10
ENDMDL
MODEL 8
REMARK VINA RESULT:      -6.9      2.807      4.805
REMARK  Name = 
REMARK  10 active torsions:
REMARK  status: ('A' for Active; 'I' for Inactive)
REMARK    1  A    between atoms: C_2  and  C_4
REMARK    2  A    between atoms: C_4  and  C_5
REMARK    3  A    between atoms: C_5  and  N_6
REMARK    4  A    between atoms: C_7  and  C_9
REMARK    5  A    between atoms: C_12  and  C_13
REMARK    6  A    between atoms: C_13  and  N_14
REMARK    7  A    between atoms: N_14  and  C_15
REMARK    8  A    between atoms: N_14  and  C_22
REMARK    9  A    between atoms: C_15  and  C_16
REMARK   10  A    between atoms: C_22  and  C_23
REMARK                            x       y       z     vdW  Elec       q    Type
REMARK                         _______ _______ _______ _____ _____    ______ ____
ROOT
ATOM      1  N   UNL     1      37.975   2.061  13.483  0.00  0.00    +0.000 NA
ENDROOT
BRANCH   1   2
ATOM      2  C   UNL     1      37.938   3.435  13.025  0.00  0.00    +0.000 C 
BRANCH   2   6
ATOM      3  C   UNL     1      38.164   5.143  16.179  0.00  0.00    +0.000 A 
ATOM      4  C   UNL     1      37.520   6.146  15.480  0.00  0.00    +0.000 A 
ATOM      5  C   UNL     1      37.344   5.654  14.210  0.00  0.00    +0.000 A 
ATOM      6  C   UNL     1      37.881   4.386  14.181  0.00  0.00    +0.000 A 
ATOM      7  O   UNL     1      38.356   4.125  15.374  0.00  0.00    +0.000 OA
BRANCH   3   9
ATOM      8  N   UNL     1      38.871   6.439  18.183  0.00  0.00    +0.000 NA
ATOM      9  C   UNL     1      38.561   5.212  17.581  0.00  0.00    +0.000 C 
ATOM     10  O   UNL     1      38.631   4.164  18.272  0.00  0.00    +0.000 OA
BRANCH   8  11
ATOM     11  C   UNL     1      39.273   6.596  19.567  0.00  0.00    +0.000 C 
BRANCH  11  12
ATOM     12  C   UNL     1      40.593   7.298  19.636  0.00  0.00    +0.000 C 
BRANCH  12  14
ATOM     13  C   UNL     1      42.544   6.342  20.745  0.00  0.00    +0.000 C 
ATOM     14  C   UNL     1      41.763   6.384  19.474  0.00  0.00    +0.000 C 
ATOM     15  C   UNL     1      42.606   6.694  18.261  0.00  0.00    +0.000 C 
ENDBRANCH  12  14
ENDBRANCH  11  12
ENDBRANCH   8  11
ENDBRANCH   3   9
ENDBRANCH   2   6
ENDBRANCH   1   2
BRANCH   1  16
ATOM     16  C   UNL     1      38.977   1.337  12.737  0.00  0.00    +0.000 C 
BRANCH  16  17
ATOM     17  C   UNL     1      39.199  -0.001  13.287  0.00  0.00    +0.000 A 
ATOM     18  C   UNL     1      39.724  -0.090  14.568  0.00  0.00    +0.000 A 
ATOM     19  C   UNL     1      39.972  -1.297  15.177  0.00  0.00    +0.000 A 
ATOM     20  C   UNL     1      39.699  -2.470  14.521  0.00  0.00    +0.000 A 
ATOM     21  C   UNL     1      39.173  -2.400  13.239  0.00  0.00    +0.000 A 
ATOM     22  C   UNL     1      38.925  -1.179  12.625  0.00  0.00    +0.000 A 
ENDBRANCH  16  17
ENDBRANCH   1  16
BRANCH   1  23
ATOM     23  C   UNL     1      36.668   1.513  13.360  0.00  0.00    +0.000 C 
BRANCH  23  24
ATOM     24  C   UNL     1      36.122   0.992  14.641  0.00  0.00    +0.000 A 
ATOM     25  C   UNL     1      36.205  -0.351  14.950  0.00  0.00    +0.000 A 
ATOM     26  C   UNL     1      35.703  -0.856  16.139  0.00  0.00    +0.000 A 
ATOM     27  C   UNL     1      35.101  -0.032  17.061  0.00  0.00    +0.000 A 
ATOM     28  F   UNL     1      34.599  -0.492  18.235  0.00  0.00    +0.000 F 
ATOM     29  C   UNL     1      35.011   1.316  16.768  0.00  0.00    +0.000 A 
ATOM     30  C   UNL     1      35.519   1.818  15.567  0.00  0.00    +0.000 A 
ENDBRANCH  23  24
ENDBRANCH   1  23
TORSDOF 10
ENDMDL
MODEL 9
REMARK VINA RESULT:      -6.8      9.174     14.818
REMARK  Name = 
REMARK  10 active torsions:
REMARK  status: ('A' for Active; 'I' for Inactive)
REMARK    1  A    between atoms: C_2  and  C_4
REMARK    2  A    between atoms: C_4  and  C_5
REMARK    3  A    between atoms: C_5  and  N_6
REMARK    4  A    between atoms: C_7  and  C_9
REMARK    5  A    between atoms: C_12  and  C_13
REMARK    6  A    between atoms: C_13  and  N_14
REMARK    7  A    between atoms: N_14  and  C_15
REMARK    8  A    between atoms: N_14  and  C_22
REMARK    9  A    between atoms: C_15  and  C_16
REMARK   10  A    between atoms: C_22  and  C_23
REMARK                            x       y       z     vdW  Elec       q    Type
REMARK                         _______ _______ _______ _____ _____    ______ ____
ROOT
ATOM      1  N   UNL     1      43.811   4.655  27.960  0.00  0.00    +0.000 NA
ENDROOT
BRANCH   1   2
ATOM      2  C   UNL     1      44.389   4.347  26.668  0.00  0.00    +0.000 C 
BRANCH   2   6
ATOM      3  C   UNL     1      44.120   6.626  23.902  0.00  0.00    +0.000 A 
ATOM      4  C   UNL     1      44.219   7.574  24.903  0.00  0.00    +0.000 A 
ATOM      5  C   UNL     1      44.332   6.861  26.072  0.00  0.00    +0.000 A 
ATOM      6  C   UNL     1      44.300   5.524  25.745  0.00  0.00    +0.000 A 
ATOM      7  O   UNL     1      44.174   5.433  24.444  0.00  0.00    +0.000 OA
BRANCH   3   9
ATOM      8  N   UNL     1      43.039   6.238  21.694  0.00  0.00    +0.000 NA
ATOM      9  C   UNL     1      43.982   6.914  22.479  0.00  0.00    +0.000 C 
ATOM     10  O   UNL     1      44.715   7.779  21.933  0.00  0.00    +0.000 OA
BRANCH   8  11
ATOM     11  C   UNL     1      42.837   6.462  20.277  0.00  0.00    +0.000 C 
BRANCH  11  12
ATOM     12  C   UNL     1      41.673   7.377  20.067  0.00  0.00    +0.000 C 
BRANCH  12  14
ATOM     13  C   UNL     1      40.167   5.914  18.825  0.00  0.00    +0.000 C 
ATOM     14  C   UNL     1      40.353   6.678  20.093  0.00  0.00    +0.000 C 
ATOM     15  C   UNL     1      39.195   7.589  20.421  0.00  0.00    +0.000 C 
ENDBRANCH  12  14
ENDBRANCH  11  12
ENDBRANCH   8  11
ENDBRANCH   3   9
ENDBRANCH   2   6
ENDBRANCH   1   2
BRANCH   1  16
ATOM     16  C   UNL     1      44.708   4.215  29.001  0.00  0.00    +0.000 C 
BRANCH  16  17
ATOM     17  C   UNL     1      44.437   4.890  30.271  0.00  0.00    +0.000 A 
ATOM     18  C   UNL     1      44.214   4.095  31.387  0.00  0.00    +0.000 A 
ATOM     19  C   UNL     1      43.951   4.629  32.626  0.00  0.00    +0.000 A 
ATOM     20  C   UNL     1      43.901   5.988  32.796  0.00  0.00    +0.000 A 
ATOM     21  C   UNL     1      44.121   6.799  31.692  0.00  0.00    +0.000 A 
ATOM     22  C   UNL     1      44.387   6.257  30.440  0.00  0.00    +0.000 A 
ENDBRANCH  16  17
ENDBRANCH   1  16
BRANCH   1  23
ATOM     23  C   UNL     1      42.523   4.054  28.028  0.00  0.00    +0.000 C 
BRANCH  23  24
ATOM     24  C   UNL     1      41.492   4.933  28.641  0.00  0.00    +0.000 A 
ATOM     25  C   UNL     1      40.789   4.524  29.757  0.00  0.00    +0.000 A 
ATOM     26  C   UNL     1      39.825   5.328  30.344  0.00  0.00    +0.000 A 
ATOM     27  C   UNL     1      39.532   6.571  29.833  0.00  0.00    +0.000 A 
ATOM     28  F   UNL     1      38.595   7.385  30.382  0.00  0.00    +0.000 F 
ATOM     29  C   UNL     1      40.227   6.996  28.717  0.00  0.00    +0.000 A 
ATOM     30  C   UNL     1      41.198   6.179  28.131  0.00  0.00    +0.000 A 
ENDBRANCH  23  24
ENDBRANCH   1  23
TORSDOF 10
ENDMDL
MODEL 10
REMARK VINA RESULT:      -6.8      3.935     10.055
REMARK  Name = 
REMARK  10 active torsions:
REMARK  status: ('A' for Active; 'I' for Inactive)
REMARK    1  A    between atoms: C_2  and  C_4
REMARK    2  A    between atoms: C_4  and  C_5
REMARK    3  A    between atoms: C_5  and  N_6
REMARK    4  A    between atoms: C_7  and  C_9
REMARK    5  A    between atoms: C_12  and  C_13
REMARK    6  A    between atoms: C_13  and  N_14
REMARK    7  A    between atoms: N_14  and  C_15
REMARK    8  A    between atoms: N_14  and  C_22
REMARK    9  A    between atoms: C_15  and  C_16
REMARK   10  A    between atoms: C_22  and  C_23
REMARK                            x       y       z     vdW  Elec       q    Type
REMARK                         _______ _______ _______ _____ _____    ______ ____
ROOT
ATOM      1  N   UNL     1      39.218   7.009  16.604  0.00  0.00    +0.000 NA
ENDROOT
BRANCH   1   2
ATOM      2  C   UNL     1      39.000   6.468  15.277  0.00  0.00    +0.000 C 
BRANCH   2   6
ATOM      3  C   UNL     1      37.338   3.327  15.815  0.00  0.00    +0.000 A 
ATOM      4  C   UNL     1      38.442   2.831  15.149  0.00  0.00    +0.000 A 
ATOM      5  C   UNL     1      39.215   3.927  14.854  0.00  0.00    +0.000 A 
ATOM      6  C   UNL     1      38.564   5.036  15.346  0.00  0.00    +0.000 A 
ATOM      7  O   UNL     1      37.453   4.630  15.910  0.00  0.00    +0.000 OA
BRANCH   3   9
ATOM      8  N   UNL     1      36.468   1.332  17.023  0.00  0.00    +0.000 NA
ATOM      9  C   UNL     1      36.232   2.526  16.329  0.00  0.00    +0.000 C 
ATOM     10  O   UNL     1      35.044   2.899  16.153  0.00  0.00    +0.000 OA
BRANCH   8  11
ATOM     11  C   UNL     1      35.430   0.477  17.564  0.00  0.00    +0.000 C 
BRANCH  11  12
ATOM     12  C   UNL     1      35.846  -0.044  18.903  0.00  0.00    +0.000 C 
BRANCH  12  14
ATOM     13  C   UNL     1      37.760  -1.530  19.182  0.00  0.00    +0.000 C 
ATOM     14  C   UNL     1      36.301  -1.466  18.874  0.00  0.00    +0.000 C 
ATOM     15  C   UNL     1      35.922  -2.193  17.607  0.00  0.00    +0.000 C 
ENDBRANCH  12  14
ENDBRANCH  11  12
ENDBRANCH   8  11
ENDBRANCH   3   9
ENDBRANCH   2   6
ENDBRANCH   1   2
BRANCH   1  16
ATOM     16  C   UNL     1      39.587   5.941  17.501  0.00  0.00    +0.000 C 
BRANCH  16  17
ATOM     17  C   UNL     1      40.814   6.251  18.236  0.00  0.00    +0.000 A 
ATOM     18  C   UNL     1      40.740   6.286  19.622  0.00  0.00    +0.000 A 
ATOM     19  C   UNL     1      41.833   6.568  20.407  0.00  0.00    +0.000 A 
ATOM     20  C   UNL     1      43.050   6.827  19.830  0.00  0.00    +0.000 A 
ATOM     21  C   UNL     1      43.142   6.796  18.446  0.00  0.00    +0.000 A 
ATOM     22  C   UNL     1      42.036   6.512  17.654  0.00  0.00    +0.000 A 
ENDBRANCH  16  17
ENDBRANCH   1  16
BRANCH   1  23
ATOM     23  C   UNL     1      38.042   7.705  17.001  0.00  0.00    +0.000 C 
BRANCH  23  24
ATOM     24  C   UNL     1      38.227   8.529  18.224  0.00  0.00    +0.000 A 
ATOM     25  C   UNL     1      37.432   8.332  19.335  0.00  0.00    +0.000 A 
ATOM     26  C   UNL     1      37.590   9.089  20.485  0.00  0.00    +0.000 A 
ATOM     27  C   UNL     1      38.549  10.072  20.561  0.00  0.00    +0.000 A 
ATOM     28  F   UNL     1      38.731  10.833  21.670  0.00  0.00    +0.000 F 
ATOM     29  C   UNL     1      39.354  10.282  19.457  0.00  0.00    +0.000 A 
ATOM     30  C   UNL     1      39.189   9.515  18.301  0.00  0.00    +0.000 A 
ENDBRANCH  23  24
ENDBRANCH   1  23
TORSDOF 10
ENDMDL
