MODEL 1
REMARK VINA RESULT:      -6.6      0.000      0.000
REMARK  Name = 
REMARK  4 active torsions:
REMARK  status: ('A' for Active; 'I' for Inactive)
REMARK    1  A    between atoms: O_2  and  C_3
REMARK    2  A    between atoms: C_6  and  C_7
REMARK    3  A    between atoms: C_7  and  N_8
REMARK    4  A    between atoms: C_11  and  C_12
REMARK                            x       y       z     vdW  Elec       q    Type
REMARK                         _______ _______ _______ _____ _____    ______ ____
ROOT
ATOM      1  N   UNL     1      27.407  23.252  24.239  0.00  0.00    +0.000 N 
ATOM      2  C   UNL     1      27.460  23.652  22.933  0.00  0.00    +0.000 A 
ATOM      3  N   UNL     1      26.369  23.647  22.046  0.00  0.00    +0.000 NA
ATOM      4  C   UNL     1      28.741  24.054  22.637  0.00  0.00    +0.000 A 
ATOM      5  C   UNL     1      29.458  23.886  23.799  0.00  0.00    +0.000 A 
ATOM      6  C   UNL     1      28.613  23.385  24.793  0.00  0.00    +0.000 A 
ATOM      7  C   UNL     1      29.189  23.135  26.114  0.00  0.00    +0.000 C 
ATOM      8  C   UNL     1      30.550  22.525  26.086  0.00  0.00    +0.000 C 
ATOM      9  C   UNL     1      31.370  22.910  24.895  0.00  0.00    +0.000 C 
ATOM     10  C   UNL     1      30.864  24.122  24.171  0.00  0.00    +0.000 C 
ENDROOT
BRANCH   4  11
ATOM     11  C   UNL     1      29.261  24.546  21.405  0.00  0.00    +0.000 C 
ATOM     12  N   UNL     1      29.705  24.953  20.400  0.00  0.00    +0.000 NA
ENDBRANCH   4  11
BRANCH   1  13
ATOM     13  C   UNL     1      26.239  22.758  24.941  0.00  0.00    +0.000 C 
BRANCH  13  17
ATOM     14  C   UNL     1      24.625  26.000  27.209  0.00  0.00    +0.000 A 
ATOM     15  C   UNL     1      24.538  26.012  25.854  0.00  0.00    +0.000 A 
ATOM     16  C   UNL     1      25.063  24.959  25.138  0.00  0.00    +0.000 A 
ATOM     17  C   UNL     1      25.681  23.881  25.743  0.00  0.00    +0.000 A 
ATOM     18  C   UNL     1      25.766  23.875  27.110  0.00  0.00    +0.000 A 
ATOM     19  C   UNL     1      25.240  24.929  27.835  0.00  0.00    +0.000 A 
BRANCH  14  21
ATOM     20  C   UNL     1      23.022  26.855  28.880  0.00  0.00    +0.000 C 
ATOM     21  O   UNL     1      24.135  27.000  28.046  0.00  0.00    +0.000 OA
ENDBRANCH  14  21
ENDBRANCH  13  17
ENDBRANCH   1  13
TORSDOF 4
ENDMDL
MODEL 2
REMARK VINA RESULT:      -6.2     11.569     14.659
REMARK  Name = 
REMARK  4 active torsions:
REMARK  status: ('A' for Active; 'I' for Inactive)
REMARK    1  A    between atoms: O_2  and  C_3
REMARK    2  A    between atoms: C_6  and  C_7
REMARK    3  A    between atoms: C_7  and  N_8
REMARK    4  A    between atoms: C_11  and  C_12
REMARK                            x       y       z     vdW  Elec       q    Type
REMARK                         _______ _______ _______ _____ _____    ______ ____
ROOT
ATOM      1  N   UNL     1      31.886  21.457  10.353  0.00  0.00    +0.000 N 
ATOM      2  C   UNL     1      32.012  22.321   9.301  0.00  0.00    +0.000 A 
ATOM      3  N   UNL     1      30.960  22.723   8.460  0.00  0.00    +0.000 NA
ATOM      4  C   UNL     1      33.322  22.725   9.206  0.00  0.00    +0.000 A 
ATOM      5  C   UNL     1      33.983  22.083  10.228  0.00  0.00    +0.000 A 
ATOM      6  C   UNL     1      33.074  21.294  10.937  0.00  0.00    +0.000 A 
ATOM      7  C   UNL     1      33.583  20.522  12.072  0.00  0.00    +0.000 C 
ATOM      8  C   UNL     1      34.912  19.887  11.837  0.00  0.00    +0.000 C 
ATOM      9  C   UNL     1      35.797  20.646  10.900  0.00  0.00    +0.000 C 
ATOM     10  C   UNL     1      35.382  22.071  10.688  0.00  0.00    +0.000 C 
ENDROOT
BRANCH   4  11
ATOM     11  C   UNL     1      33.916  23.618   8.267  0.00  0.00    +0.000 C 
ATOM     12  N   UNL     1      34.388  24.356   7.489  0.00  0.00    +0.000 NA
ENDBRANCH   4  11
BRANCH   1  13
ATOM     13  C   UNL     1      30.668  20.805  10.790  0.00  0.00    +0.000 C 
BRANCH  13  17
ATOM     14  C   UNL     1      28.453  23.587  13.161  0.00  0.00    +0.000 A 
ATOM     15  C   UNL     1      27.922  23.108  12.006  0.00  0.00    +0.000 A 
ATOM     16  C   UNL     1      28.650  22.212  11.254  0.00  0.00    +0.000 A 
ATOM     17  C   UNL     1      29.907  21.775  11.626  0.00  0.00    +0.000 A 
ATOM     18  C   UNL     1      30.436  22.262  12.791  0.00  0.00    +0.000 A 
ATOM     19  C   UNL     1      29.712  23.161  13.551  0.00  0.00    +0.000 A 
BRANCH  14  21
ATOM     20  C   UNL     1      28.495  25.412  14.822  0.00  0.00    +0.000 C 
ATOM     21  O   UNL     1      27.823  24.493  14.009  0.00  0.00    +0.000 OA
ENDBRANCH  14  21
ENDBRANCH  13  17
ENDBRANCH   1  13
TORSDOF 4
ENDMDL
MODEL 3
REMARK VINA RESULT:      -6.1     19.044     20.707
REMARK  Name = 
REMARK  4 active torsions:
REMARK  status: ('A' for Active; 'I' for Inactive)
REMARK    1  A    between atoms: O_2  and  C_3
REMARK    2  A    between atoms: C_6  and  C_7
REMARK    3  A    between atoms: C_7  and  N_8
REMARK    4  A    between atoms: C_11  and  C_12
REMARK                            x       y       z     vdW  Elec       q    Type
REMARK                         _______ _______ _______ _____ _____    ______ ____
ROOT
ATOM      1  N   UNL     1      18.462  10.511  38.389  0.00  0.00    +0.000 N 
ATOM      2  C   UNL     1      19.193   9.463  38.873  0.00  0.00    +0.000 A 
ATOM      3  N   UNL     1      18.678   8.184  39.152  0.00  0.00    +0.000 NA
ATOM      4  C   UNL     1      20.498   9.862  39.039  0.00  0.00    +0.000 A 
ATOM      5  C   UNL     1      20.534  11.179  38.641  0.00  0.00    +0.000 A 
ATOM      6  C   UNL     1      19.256  11.572  38.237  0.00  0.00    +0.000 A 
ATOM      7  C   UNL     1      19.082  12.950  37.776  0.00  0.00    +0.000 C 
ATOM      8  C   UNL     1      19.824  13.966  38.578  0.00  0.00    +0.000 C 
ATOM      9  C   UNL     1      21.095  13.459  39.183  0.00  0.00    +0.000 C 
ATOM     10  C   UNL     1      21.603  12.190  38.566  0.00  0.00    +0.000 C 
ENDROOT
BRANCH   4  11
ATOM     11  C   UNL     1      21.609   9.108  39.516  0.00  0.00    +0.000 C 
ATOM     12  N   UNL     1      22.513   8.485  39.923  0.00  0.00    +0.000 NA
ENDBRANCH   4  11
BRANCH   1  13
ATOM     13  C   UNL     1      17.047  10.503  38.078  0.00  0.00    +0.000 C 
BRANCH  13  17
ATOM     14  C   UNL     1      16.667  10.555  33.822  0.00  0.00    +0.000 A 
ATOM     15  C   UNL     1      17.460   9.629  34.420  0.00  0.00    +0.000 A 
ATOM     16  C   UNL     1      17.571   9.626  35.793  0.00  0.00    +0.000 A 
ATOM     17  C   UNL     1      16.905  10.532  36.596  0.00  0.00    +0.000 A 
ATOM     18  C   UNL     1      16.107  11.463  35.987  0.00  0.00    +0.000 A 
ATOM     19  C   UNL     1      15.990  11.472  34.609  0.00  0.00    +0.000 A 
BRANCH  14  21
ATOM     20  C   UNL     1      16.019  11.821  31.805  0.00  0.00    +0.000 C 
ATOM     21  O   UNL     1      16.470  10.664  32.448  0.00  0.00    +0.000 OA
ENDBRANCH  14  21
ENDBRANCH  13  17
ENDBRANCH   1  13
TORSDOF 4
ENDMDL
MODEL 4
REMARK VINA RESULT:      -5.8      1.910      3.453
REMARK  Name = 
REMARK  4 active torsions:
REMARK  status: ('A' for Active; 'I' for Inactive)
REMARK    1  A    between atoms: O_2  and  C_3
REMARK    2  A    between atoms: C_6  and  C_7
REMARK    3  A    between atoms: C_7  and  N_8
REMARK    4  A    between atoms: C_11  and  C_12
REMARK                            x       y       z     vdW  Elec       q    Type
REMARK                         _______ _______ _______ _____ _____    ______ ____
ROOT
ATOM      1  N   UNL     1      27.795  22.662  25.741  0.00  0.00    +0.000 N 
ATOM      2  C   UNL     1      28.412  22.367  26.925  0.00  0.00    +0.000 A 
ATOM      3  N   UNL     1      27.746  22.037  28.118  0.00  0.00    +0.000 NA
ATOM      4  C   UNL     1      29.774  22.445  26.754  0.00  0.00    +0.000 A 
ATOM      5  C   UNL     1      29.962  22.795  25.436  0.00  0.00    +0.000 A 
ATOM      6  C   UNL     1      28.717  22.926  24.814  0.00  0.00    +0.000 A 
ATOM      7  C   UNL     1      28.699  23.298  23.399  0.00  0.00    +0.000 C 
ATOM      8  C   UNL     1      29.699  24.339  23.024  0.00  0.00    +0.000 C 
ATOM      9  C   UNL     1      30.947  24.317  23.849  0.00  0.00    +0.000 C 
ATOM     10  C   UNL     1      31.155  23.040  24.608  0.00  0.00    +0.000 C 
ENDROOT
BRANCH   4  11
ATOM     11  C   UNL     1      30.809  22.221  27.708  0.00  0.00    +0.000 C 
ATOM     12  N   UNL     1      31.652  22.020  28.495  0.00  0.00    +0.000 NA
ENDBRANCH   4  11
BRANCH   1  13
ATOM     13  C   UNL     1      26.367  22.690  25.499  0.00  0.00    +0.000 C 
BRANCH  13  17
ATOM     14  C   UNL     1      24.976  26.640  26.352  0.00  0.00    +0.000 A 
ATOM     15  C   UNL     1      25.437  26.338  25.111  0.00  0.00    +0.000 A 
ATOM     16  C   UNL     1      25.882  25.059  24.853  0.00  0.00    +0.000 A 
ATOM     17  C   UNL     1      25.879  24.062  25.810  0.00  0.00    +0.000 A 
ATOM     18  C   UNL     1      25.413  24.374  27.059  0.00  0.00    +0.000 A 
ATOM     19  C   UNL     1      24.965  25.655  27.325  0.00  0.00    +0.000 A 
BRANCH  14  21
ATOM     20  C   UNL     1      23.275  28.104  27.380  0.00  0.00    +0.000 C 
ATOM     21  O   UNL     1      24.500  27.889  26.740  0.00  0.00    +0.000 OA
ENDBRANCH  14  21
ENDBRANCH  13  17
ENDBRANCH   1  13
TORSDOF 4
ENDMDL
MODEL 5
REMARK VINA RESULT:      -5.8      3.182      5.545
REMARK  Name = 
REMARK  4 active torsions:
REMARK  status: ('A' for Active; 'I' for Inactive)
REMARK    1  A    between atoms: O_2  and  C_3
REMARK    2  A    between atoms: C_6  and  C_7
REMARK    3  A    between atoms: C_7  and  N_8
REMARK    4  A    between atoms: C_11  and  C_12
REMARK                            x       y       z     vdW  Elec       q    Type
REMARK                         _______ _______ _______ _____ _____    ______ ____
ROOT
ATOM      1  N   UNL     1      27.620  23.141  25.064  0.00  0.00    +0.000 N 
ATOM      2  C   UNL     1      26.994  23.414  26.249  0.00  0.00    +0.000 A 
ATOM      3  N   UNL     1      25.648  23.799  26.376  0.00  0.00    +0.000 NA
ATOM      4  C   UNL     1      27.889  23.250  27.279  0.00  0.00    +0.000 A 
ATOM      5  C   UNL     1      29.071  22.871  26.685  0.00  0.00    +0.000 A 
ATOM      6  C   UNL     1      28.890  22.806  25.301  0.00  0.00    +0.000 A 
ATOM      7  C   UNL     1      30.038  22.419  24.481  0.00  0.00    +0.000 C 
ATOM      8  C   UNL     1      31.333  23.020  24.914  0.00  0.00    +0.000 C 
ATOM      9  C   UNL     1      31.427  23.280  26.384  0.00  0.00    +0.000 C 
ATOM     10  C   UNL     1      30.410  22.540  27.202  0.00  0.00    +0.000 C 
ENDROOT
BRANCH   4  11
ATOM     11  C   UNL     1      27.683  23.424  28.679  0.00  0.00    +0.000 C 
ATOM     12  N   UNL     1      27.496  23.559  29.827  0.00  0.00    +0.000 NA
ENDBRANCH   4  11
BRANCH   1  13
ATOM     13  C   UNL     1      27.026  23.197  23.744  0.00  0.00    +0.000 C 
BRANCH  13  17
ATOM     14  C   UNL     1      28.996  26.281  21.537  0.00  0.00    +0.000 A 
ATOM     15  C   UNL     1      29.150  24.983  21.171  0.00  0.00    +0.000 A 
ATOM     16  C   UNL     1      28.508  24.001  21.893  0.00  0.00    +0.000 A 
ATOM     17  C   UNL     1      27.707  24.282  22.984  0.00  0.00    +0.000 A 
ATOM     18  C   UNL     1      27.556  25.593  23.348  0.00  0.00    +0.000 A 
ATOM     19  C   UNL     1      28.197  26.584  22.627  0.00  0.00    +0.000 A 
BRANCH  14  21
ATOM     20  C   UNL     1      29.955  27.375  19.543  0.00  0.00    +0.000 C 
ATOM     21  O   UNL     1      29.589  27.364  20.892  0.00  0.00    +0.000 OA
ENDBRANCH  14  21
ENDBRANCH  13  17
ENDBRANCH   1  13
TORSDOF 4
ENDMDL
MODEL 6
REMARK VINA RESULT:      -5.8     12.923     16.365
REMARK  Name = 
REMARK  4 active torsions:
REMARK  status: ('A' for Active; 'I' for Inactive)
REMARK    1  A    between atoms: O_2  and  C_3
REMARK    2  A    between atoms: C_6  and  C_7
REMARK    3  A    between atoms: C_7  and  N_8
REMARK    4  A    between atoms: C_11  and  C_12
REMARK                            x       y       z     vdW  Elec       q    Type
REMARK                         _______ _______ _______ _____ _____    ______ ____
ROOT
ATOM      1  N   UNL     1      32.292  21.357   9.322  0.00  0.00    +0.000 N 
ATOM      2  C   UNL     1      33.099  22.460   9.295  0.00  0.00    +0.000 A 
ATOM      3  N   UNL     1      33.688  23.054  10.425  0.00  0.00    +0.000 NA
ATOM      4  C   UNL     1      33.238  22.883   7.994  0.00  0.00    +0.000 A 
ATOM      5  C   UNL     1      32.493  22.008   7.239  0.00  0.00    +0.000 A 
ATOM      6  C   UNL     1      31.907  21.059   8.081  0.00  0.00    +0.000 A 
ATOM      7  C   UNL     1      31.067  20.030   7.467  0.00  0.00    +0.000 C 
ATOM      8  C   UNL     1      30.180  20.531   6.376  0.00  0.00    +0.000 C 
ATOM      9  C   UNL     1      30.738  21.693   5.618  0.00  0.00    +0.000 C 
ATOM     10  C   UNL     1      32.214  21.888   5.797  0.00  0.00    +0.000 C 
ENDROOT
BRANCH   4  11
ATOM     11  C   UNL     1      33.984  23.988   7.489  0.00  0.00    +0.000 C 
ATOM     12  N   UNL     1      34.610  24.892   7.085  0.00  0.00    +0.000 NA
ENDBRANCH   4  11
BRANCH   1  13
ATOM     13  C   UNL     1      31.898  20.609  10.499  0.00  0.00    +0.000 C 
BRANCH  13  17
ATOM     14  C   UNL     1      28.827  22.809  12.498  0.00  0.00    +0.000 A 
ATOM     15  C   UNL     1      30.052  22.682  13.071  0.00  0.00    +0.000 A 
ATOM     16  C   UNL     1      31.031  21.970  12.413  0.00  0.00    +0.000 A 
ATOM     17  C   UNL     1      30.819  21.373  11.184  0.00  0.00    +0.000 A 
ATOM     18  C   UNL     1      29.581  21.504  10.613  0.00  0.00    +0.000 A 
ATOM     19  C   UNL     1      28.595  22.218  11.267  0.00  0.00    +0.000 A 
BRANCH  14  21
ATOM     20  C   UNL     1      26.430  23.058  13.029  0.00  0.00    +0.000 C 
ATOM     21  O   UNL     1      27.756  23.500  13.058  0.00  0.00    +0.000 OA
ENDBRANCH  14  21
ENDBRANCH  13  17
ENDBRANCH   1  13
TORSDOF 4
ENDMDL
MODEL 7
REMARK VINA RESULT:      -5.8      2.574      4.174
REMARK  Name = 
REMARK  4 active torsions:
REMARK  status: ('A' for Active; 'I' for Inactive)
REMARK    1  A    between atoms: O_2  and  C_3
REMARK    2  A    between atoms: C_6  and  C_7
REMARK    3  A    between atoms: C_7  and  N_8
REMARK    4  A    between atoms: C_11  and  C_12
REMARK                            x       y       z     vdW  Elec       q    Type
REMARK                         _______ _______ _______ _____ _____    ______ ____
ROOT
ATOM      1  N   UNL     1      29.288  22.788  25.329  0.00  0.00    +0.000 N 
ATOM      2  C   UNL     1      29.981  23.242  24.241  0.00  0.00    +0.000 A 
ATOM      3  N   UNL     1      31.382  23.258  24.131  0.00  0.00    +0.000 NA
ATOM      4  C   UNL     1      29.089  23.670  23.287  0.00  0.00    +0.000 A 
ATOM      5  C   UNL     1      27.841  23.464  23.828  0.00  0.00    +0.000 A 
ATOM      6  C   UNL     1      27.979  22.912  25.104  0.00  0.00    +0.000 A 
ATOM      7  C   UNL     1      26.758  22.617  25.854  0.00  0.00    +0.000 C 
ATOM      8  C   UNL     1      25.696  23.658  25.735  0.00  0.00    +0.000 C 
ATOM      9  C   UNL     1      25.699  24.390  24.430  0.00  0.00    +0.000 C 
ATOM     10  C   UNL     1      26.470  23.700  23.344  0.00  0.00    +0.000 C 
ENDROOT
BRANCH   4  11
ATOM     11  C   UNL     1      29.354  24.218  21.998  0.00  0.00    +0.000 C 
ATOM     12  N   UNL     1      29.587  24.659  20.938  0.00  0.00    +0.000 NA
ENDBRANCH   4  11
BRANCH   1  13
ATOM     13  C   UNL     1      29.857  22.252  26.549  0.00  0.00    +0.000 C 
BRANCH  13  17
ATOM     14  C   UNL     1      28.892  24.916  29.749  0.00  0.00    +0.000 A 
ATOM     15  C   UNL     1      28.533  23.609  29.825  0.00  0.00    +0.000 A 
ATOM     16  C   UNL     1      28.852  22.764  28.784  0.00  0.00    +0.000 A 
ATOM     17  C   UNL     1      29.527  23.191  27.657  0.00  0.00    +0.000 A 
ATOM     18  C   UNL     1      29.886  24.511  27.587  0.00  0.00    +0.000 A 
ATOM     19  C   UNL     1      29.570  25.365  28.627  0.00  0.00    +0.000 A 
BRANCH  14  21
ATOM     20  C   UNL     1      27.979  25.602  31.937  0.00  0.00    +0.000 C 
ATOM     21  O   UNL     1      28.631  25.870  30.729  0.00  0.00    +0.000 OA
ENDBRANCH  14  21
ENDBRANCH  13  17
ENDBRANCH   1  13
TORSDOF 4
ENDMDL
MODEL 8
REMARK VINA RESULT:      -5.7      1.418      2.913
REMARK  Name = 
REMARK  4 active torsions:
REMARK  status: ('A' for Active; 'I' for Inactive)
REMARK    1  A    between atoms: O_2  and  C_3
REMARK    2  A    between atoms: C_6  and  C_7
REMARK    3  A    between atoms: C_7  and  N_8
REMARK    4  A    between atoms: C_11  and  C_12
REMARK                            x       y       z     vdW  Elec       q    Type
REMARK                         _______ _______ _______ _____ _____    ______ ____
ROOT
ATOM      1  N   UNL     1      27.574  23.100  24.428  0.00  0.00    +0.000 N 
ATOM      2  C   UNL     1      28.795  22.971  25.029  0.00  0.00    +0.000 A 
ATOM      3  N   UNL     1      29.006  22.433  26.311  0.00  0.00    +0.000 NA
ATOM      4  C   UNL     1      29.767  23.447  24.182  0.00  0.00    +0.000 A 
ATOM      5  C   UNL     1      29.100  23.867  23.054  0.00  0.00    +0.000 A 
ATOM      6  C   UNL     1      27.731  23.645  23.220  0.00  0.00    +0.000 A 
ATOM      7  C   UNL     1      26.841  24.028  22.124  0.00  0.00    +0.000 C 
ATOM      8  C   UNL     1      27.189  25.325  21.474  0.00  0.00    +0.000 C 
ATOM      9  C   UNL     1      28.650  25.648  21.494  0.00  0.00    +0.000 C 
ATOM     10  C   UNL     1      29.532  24.470  21.781  0.00  0.00    +0.000 C 
ENDROOT
BRANCH   4  11
ATOM     11  C   UNL     1      31.176  23.512  24.385  0.00  0.00    +0.000 C 
ATOM     12  N   UNL     1      32.331  23.561  24.570  0.00  0.00    +0.000 NA
ENDBRANCH   4  11
BRANCH   1  13
ATOM     13  C   UNL     1      26.294  22.716  24.988  0.00  0.00    +0.000 C 
BRANCH  13  17
ATOM     14  C   UNL     1      24.808  26.038  27.229  0.00  0.00    +0.000 A 
ATOM     15  C   UNL     1      24.739  26.051  25.873  0.00  0.00    +0.000 A 
ATOM     16  C   UNL     1      25.222  24.972  25.166  0.00  0.00    +0.000 A 
ATOM     17  C   UNL     1      25.780  23.867  25.781  0.00  0.00    +0.000 A 
ATOM     18  C   UNL     1      25.847  23.860  27.149  0.00  0.00    +0.000 A 
ATOM     19  C   UNL     1      25.363  24.940  27.865  0.00  0.00    +0.000 A 
BRANCH  14  21
ATOM     20  C   UNL     1      23.522  26.871  29.164  0.00  0.00    +0.000 C 
ATOM     21  O   UNL     1      24.356  27.061  28.057  0.00  0.00    +0.000 OA
ENDBRANCH  14  21
ENDBRANCH  13  17
ENDBRANCH   1  13
TORSDOF 4
ENDMDL
MODEL 9
REMARK VINA RESULT:      -5.6      3.118      5.766
REMARK  Name = 
REMARK  4 active torsions:
REMARK  status: ('A' for Active; 'I' for Inactive)
REMARK    1  A    between atoms: O_2  and  C_3
REMARK    2  A    between atoms: C_6  and  C_7
REMARK    3  A    between atoms: C_7  and  N_8
REMARK    4  A    between atoms: C_11  and  C_12
REMARK                            x       y       z     vdW  Elec       q    Type
REMARK                         _______ _______ _______ _____ _____    ______ ____
ROOT
ATOM      1  N   UNL     1      26.155  23.479  26.494  0.00  0.00    +0.000 N 
ATOM      2  C   UNL     1      25.467  24.230  27.405  0.00  0.00    +0.000 A 
ATOM      3  N   UNL     1      24.316  24.986  27.118  0.00  0.00    +0.000 NA
ATOM      4  C   UNL     1      26.079  24.124  28.631  0.00  0.00    +0.000 A 
ATOM      5  C   UNL     1      27.155  23.288  28.436  0.00  0.00    +0.000 A 
ATOM      6  C   UNL     1      27.191  22.892  27.097  0.00  0.00    +0.000 A 
ATOM      7  C   UNL     1      28.270  21.995  26.681  0.00  0.00    +0.000 C 
ATOM      8  C   UNL     1      29.600  22.318  27.274  0.00  0.00    +0.000 C 
ATOM      9  C   UNL     1      29.531  22.942  28.632  0.00  0.00    +0.000 C 
ATOM     10  C   UNL     1      28.210  22.764  29.319  0.00  0.00    +0.000 C 
ENDROOT
BRANCH   4  11
ATOM     11  C   UNL     1      25.713  24.730  29.868  0.00  0.00    +0.000 C 
ATOM     12  N   UNL     1      25.398  25.217  30.886  0.00  0.00    +0.000 NA
ENDBRANCH   4  11
BRANCH   1  13
ATOM     13  C   UNL     1      25.836  23.324  25.089  0.00  0.00    +0.000 C 
BRANCH  13  17
ATOM     14  C   UNL     1      28.676  25.611  22.861  0.00  0.00    +0.000 A 
ATOM     15  C   UNL     1      27.821  26.235  23.711  0.00  0.00    +0.000 A 
ATOM     16  C   UNL     1      26.912  25.483  24.422  0.00  0.00    +0.000 A 
ATOM     17  C   UNL     1      26.831  24.108  24.307  0.00  0.00    +0.000 A 
ATOM     18  C   UNL     1      27.695  23.485  23.448  0.00  0.00    +0.000 A 
ATOM     19  C   UNL     1      28.611  24.233  22.731  0.00  0.00    +0.000 A 
BRANCH  14  21
ATOM     20  C   UNL     1      29.429  26.703  20.779  0.00  0.00    +0.000 C 
ATOM     21  O   UNL     1      29.639  26.254  22.087  0.00  0.00    +0.000 OA
ENDBRANCH  14  21
ENDBRANCH  13  17
ENDBRANCH   1  13
TORSDOF 4
ENDMDL
MODEL 10
REMARK VINA RESULT:      -5.5     28.777     30.765
REMARK  Name = 
REMARK  4 active torsions:
REMARK  status: ('A' for Active; 'I' for Inactive)
REMARK    1  A    between atoms: O_2  and  C_3
REMARK    2  A    between atoms: C_6  and  C_7
REMARK    3  A    between atoms: C_7  and  N_8
REMARK    4  A    between atoms: C_11  and  C_12
REMARK                            x       y       z     vdW  Elec       q    Type
REMARK                         _______ _______ _______ _____ _____    ______ ____
ROOT
ATOM      1  N   UNL     1      32.590  -6.024  32.897  0.00  0.00    +0.000 N 
ATOM      2  C   UNL     1      31.292  -6.435  32.778  0.00  0.00    +0.000 A 
ATOM      3  N   UNL     1      30.367  -6.493  33.835  0.00  0.00    +0.000 NA
ATOM      4  C   UNL     1      31.047  -6.778  31.470  0.00  0.00    +0.000 A 
ATOM      5  C   UNL     1      32.232  -6.562  30.803  0.00  0.00    +0.000 A 
ATOM      6  C   UNL     1      33.187  -6.090  31.706  0.00  0.00    +0.000 A 
ATOM      7  C   UNL     1      34.526  -5.799  31.191  0.00  0.00    +0.000 C 
ATOM      8  C   UNL     1      35.036  -6.795  30.205  0.00  0.00    +0.000 C 
ATOM      9  C   UNL     1      33.968  -7.450  29.387  0.00  0.00    +0.000 C 
ATOM     10  C   UNL     1      32.655  -6.724  29.402  0.00  0.00    +0.000 C 
ENDROOT
BRANCH   4  11
ATOM     11  C   UNL     1      29.840  -7.259  30.883  0.00  0.00    +0.000 C 
ATOM     12  N   UNL     1      28.841  -7.653  30.416  0.00  0.00    +0.000 NA
ENDBRANCH   4  11
BRANCH   1  13
ATOM     13  C   UNL     1      33.244  -5.578  34.112  0.00  0.00    +0.000 C 
BRANCH  13  17
ATOM     14  C   UNL     1      32.705  -1.349  34.400  0.00  0.00    +0.000 A 
ATOM     15  C   UNL     1      33.626  -1.857  33.541  0.00  0.00    +0.000 A 
ATOM     16  C   UNL     1      33.787  -3.223  33.460  0.00  0.00    +0.000 A 
ATOM     17  C   UNL     1      33.045  -4.107  34.222  0.00  0.00    +0.000 A 
ATOM     18  C   UNL     1      32.119  -3.587  35.086  0.00  0.00    +0.000 A 
ATOM     19  C   UNL     1      31.951  -2.217  35.172  0.00  0.00    +0.000 A 
BRANCH  14  21
ATOM     20  C   UNL     1      33.131   1.034  33.916  0.00  0.00    +0.000 C 
ATOM     21  O   UNL     1      32.446   0.008  34.575  0.00  0.00    +0.000 OA
ENDBRANCH  14  21
ENDBRANCH  13  17
ENDBRANCH   1  13
TORSDOF 4
ENDMDL
