MODEL 1
REMARK VINA RESULT:      -8.4      0.000      0.000
REMARK  Name = 
REMARK  4 active torsions:
REMARK  status: ('A' for Active; 'I' for Inactive)
REMARK    1  A    between atoms: C_10  and  C_11
REMARK    2  A    between atoms: C_11  and  C_12
REMARK    3  A    between atoms: C_11  and  C_16
REMARK    4  A    between atoms: C_12  and  N_13
REMARK                            x       y       z     vdW  Elec       q    Type
REMARK                         _______ _______ _______ _____ _____    ______ ____
ROOT
ATOM      1  C   UNL     1      14.027  12.729  36.601  0.00  0.00    +0.000 C 
ENDROOT
BRANCH   1  11
ATOM      2  C   UNL     1      12.822  15.080  34.756  0.00  0.00    +0.000 C 
ATOM      3  C   UNL     1      13.689  13.931  34.315  0.00  0.00    +0.000 A 
ATOM      4  N   UNL     1      14.066  13.753  33.038  0.00  0.00    +0.000 NA
ATOM      5  C   UNL     1      14.836  12.644  32.934  0.00  0.00    +0.000 A 
ATOM      6  C   UNL     1      15.471  12.014  31.887  0.00  0.00    +0.000 A 
ATOM      7  C   UNL     1      16.217  10.863  32.033  0.00  0.00    +0.000 A 
ATOM      8  C   UNL     1      16.313  10.342  33.305  0.00  0.00    +0.000 A 
ATOM      9  C   UNL     1      15.692  10.944  34.375  0.00  0.00    +0.000 A 
ATOM     10  C   UNL     1      14.937  12.111  34.217  0.00  0.00    +0.000 A 
ATOM     11  C   UNL     1      14.226  12.919  35.044  0.00  0.00    +0.000 A 
ENDBRANCH   1  11
BRANCH   1  12
ATOM     12  C   UNL     1      15.549  12.348  36.936  0.00  0.00    +0.000 A 
ATOM     13  C   UNL     1      16.573  13.135  36.651  0.00  0.00    +0.000 A 
ATOM     14  C   UNL     1      17.851  12.731  36.971  0.00  0.00    +0.000 A 
ATOM     15  C   UNL     1      18.057  11.502  37.591  0.00  0.00    +0.000 A 
ATOM     16  C   UNL     1      17.008  10.673  37.894  0.00  0.00    +0.000 A 
ATOM     17  C   UNL     1      15.733  11.140  37.544  0.00  0.00    +0.000 A 
ATOM     18  O   UNL     1      17.482   9.538  38.495  0.00  0.00    +0.000 OA
ATOM     19  C   UNL     1      18.862   9.722  38.743  0.00  0.00    +0.000 C 
ATOM     20  O   UNL     1      19.222  10.870  38.013  0.00  0.00    +0.000 OA
ENDBRANCH   1  12
BRANCH   1  21
ATOM     21  C   UNL     1      13.451  11.201  36.565  0.00  0.00    +0.000 C 
BRANCH  21  22
ATOM     22  N   UNL     1      12.228  11.219  37.315  0.00  0.00    +0.000 N 
ATOM     23  O   UNL     1      11.380  12.087  37.025  0.00  0.00    +0.000 OA
ATOM     24  O   UNL     1      11.968  10.322  38.329  0.00  0.00    +0.000 OA
ENDBRANCH  21  22
ENDBRANCH   1  21
TORSDOF 4
ENDMDL
MODEL 2
REMARK VINA RESULT:      -6.9     18.825     20.444
REMARK  Name = 
REMARK  4 active torsions:
REMARK  status: ('A' for Active; 'I' for Inactive)
REMARK    1  A    between atoms: C_10  and  C_11
REMARK    2  A    between atoms: C_11  and  C_12
REMARK    3  A    between atoms: C_11  and  C_16
REMARK    4  A    between atoms: C_12  and  N_13
REMARK                            x       y       z     vdW  Elec       q    Type
REMARK                         _______ _______ _______ _____ _____    ______ ____
ROOT
ATOM      1  C   UNL     1      26.393  24.842  24.651  0.00  0.00    +0.000 C 
ENDROOT
BRANCH   1  11
ATOM      2  C   UNL     1      27.566  27.811  25.093  0.00  0.00    +0.000 C 
ATOM      3  C   UNL     1      28.350  26.534  24.953  0.00  0.00    +0.000 A 
ATOM      4  N   UNL     1      29.693  26.497  24.994  0.00  0.00    +0.000 NA
ATOM      5  C   UNL     1      30.125  25.224  24.841  0.00  0.00    +0.000 A 
ATOM      6  C   UNL     1      31.368  24.632  24.804  0.00  0.00    +0.000 A 
ATOM      7  C   UNL     1      31.560  23.277  24.630  0.00  0.00    +0.000 A 
ATOM      8  C   UNL     1      30.429  22.503  24.489  0.00  0.00    +0.000 A 
ATOM      9  C   UNL     1      29.171  23.059  24.520  0.00  0.00    +0.000 A 
ATOM     10  C   UNL     1      28.986  24.434  24.697  0.00  0.00    +0.000 A 
ATOM     11  C   UNL     1      27.912  25.261  24.770  0.00  0.00    +0.000 A 
ENDBRANCH   1  11
BRANCH   1  12
ATOM     12  C   UNL     1      26.136  24.632  26.221  0.00  0.00    +0.000 A 
ATOM     13  C   UNL     1      25.386  25.443  26.948  0.00  0.00    +0.000 A 
ATOM     14  C   UNL     1      25.217  25.192  28.292  0.00  0.00    +0.000 A 
ATOM     15  C   UNL     1      25.836  24.089  28.876  0.00  0.00    +0.000 A 
ATOM     16  C   UNL     1      26.617  23.238  28.139  0.00  0.00    +0.000 A 
ATOM     17  C   UNL     1      26.749  23.547  26.777  0.00  0.00    +0.000 A 
ATOM     18  O   UNL     1      27.101  22.246  28.948  0.00  0.00    +0.000 OA
ATOM     19  C   UNL     1      26.468  22.366  30.207  0.00  0.00    +0.000 C 
ATOM     20  O   UNL     1      25.828  23.619  30.185  0.00  0.00    +0.000 OA
ENDBRANCH   1  12
BRANCH   1  21
ATOM     21  C   UNL     1      26.626  23.267  24.284  0.00  0.00    +0.000 C 
BRANCH  21  22
ATOM     22  N   UNL     1      26.110  23.088  22.958  0.00  0.00    +0.000 N 
ATOM     23  O   UNL     1      26.849  23.391  21.999  0.00  0.00    +0.000 OA
ATOM     24  O   UNL     1      24.844  22.599  22.715  0.00  0.00    +0.000 OA
ENDBRANCH  21  22
ENDBRANCH   1  21
TORSDOF 4
ENDMDL
MODEL 3
REMARK VINA RESULT:      -6.9     18.741     20.507
REMARK  Name = 
REMARK  4 active torsions:
REMARK  status: ('A' for Active; 'I' for Inactive)
REMARK    1  A    between atoms: C_10  and  C_11
REMARK    2  A    between atoms: C_11  and  C_12
REMARK    3  A    between atoms: C_11  and  C_16
REMARK    4  A    between atoms: C_12  and  N_13
REMARK                            x       y       z     vdW  Elec       q    Type
REMARK                         _______ _______ _______ _____ _____    ______ ____
ROOT
ATOM      1  C   UNL     1      26.722  23.078  25.065  0.00  0.00    +0.000 C 
ENDROOT
BRANCH   1  11
ATOM      2  C   UNL     1      24.643  25.534  25.222  0.00  0.00    +0.000 C 
ATOM      3  C   UNL     1      25.290  24.816  26.375  0.00  0.00    +0.000 A 
ATOM      4  N   UNL     1      25.062  25.144  27.658  0.00  0.00    +0.000 NA
ATOM      5  C   UNL     1      25.775  24.336  28.475  0.00  0.00    +0.000 A 
ATOM      6  C   UNL     1      25.912  24.237  29.843  0.00  0.00    +0.000 A 
ATOM      7  C   UNL     1      26.722  23.306  30.459  0.00  0.00    +0.000 A 
ATOM      8  C   UNL     1      27.417  22.445  29.637  0.00  0.00    +0.000 A 
ATOM      9  C   UNL     1      27.305  22.515  28.268  0.00  0.00    +0.000 A 
ATOM     10  C   UNL     1      26.481  23.462  27.652  0.00  0.00    +0.000 A 
ATOM     11  C   UNL     1      26.166  23.777  26.369  0.00  0.00    +0.000 A 
ENDBRANCH   1  11
BRANCH   1  12
ATOM     12  C   UNL     1      28.146  23.817  25.053  0.00  0.00    +0.000 A 
ATOM     13  C   UNL     1      28.294  25.108  25.302  0.00  0.00    +0.000 A 
ATOM     14  C   UNL     1      29.554  25.666  25.271  0.00  0.00    +0.000 A 
ATOM     15  C   UNL     1      30.659  24.871  24.978  0.00  0.00    +0.000 A 
ATOM     16  C   UNL     1      30.524  23.532  24.718  0.00  0.00    +0.000 A 
ATOM     17  C   UNL     1      29.218  23.024  24.766  0.00  0.00    +0.000 A 
ATOM     18  O   UNL     1      31.756  22.991  24.463  0.00  0.00    +0.000 OA
ATOM     19  C   UNL     1      32.730  23.978  24.742  0.00  0.00    +0.000 C 
ATOM     20  O   UNL     1      32.012  25.180  24.885  0.00  0.00    +0.000 OA
ENDBRANCH   1  12
BRANCH   1  21
ATOM     21  C   UNL     1      25.995  24.047  23.968  0.00  0.00    +0.000 C 
BRANCH  21  22
ATOM     22  N   UNL     1      26.053  23.346  22.719  0.00  0.00    +0.000 N 
ATOM     23  O   UNL     1      25.095  22.603  22.422  0.00  0.00    +0.000 OA
ATOM     24  O   UNL     1      27.117  23.467  21.851  0.00  0.00    +0.000 OA
ENDBRANCH  21  22
ENDBRANCH   1  21
TORSDOF 4
ENDMDL
MODEL 4
REMARK VINA RESULT:      -6.8     19.035     20.826
REMARK  Name = 
REMARK  4 active torsions:
REMARK  status: ('A' for Active; 'I' for Inactive)
REMARK    1  A    between atoms: C_10  and  C_11
REMARK    2  A    between atoms: C_11  and  C_12
REMARK    3  A    between atoms: C_11  and  C_16
REMARK    4  A    between atoms: C_12  and  N_13
REMARK                            x       y       z     vdW  Elec       q    Type
REMARK                         _______ _______ _______ _____ _____    ______ ____
ROOT
ATOM      1  C   UNL     1      26.931  23.022  24.984  0.00  0.00    +0.000 C 
ENDROOT
BRANCH   1  11
ATOM      2  C   UNL     1      27.833  22.251  27.980  0.00  0.00    +0.000 C 
ATOM      3  C   UNL     1      26.820  23.287  27.573  0.00  0.00    +0.000 A 
ATOM      4  N   UNL     1      26.146  24.034  28.464  0.00  0.00    +0.000 NA
ATOM      5  C   UNL     1      25.306  24.876  27.818  0.00  0.00    +0.000 A 
ATOM      6  C   UNL     1      24.405  25.833  28.232  0.00  0.00    +0.000 A 
ATOM      7  C   UNL     1      23.641  26.582  27.361  0.00  0.00    +0.000 A 
ATOM      8  C   UNL     1      23.810  26.336  26.016  0.00  0.00    +0.000 A 
ATOM      9  C   UNL     1      24.700  25.388  25.567  0.00  0.00    +0.000 A 
ATOM     10  C   UNL     1      25.470  24.633  26.457  0.00  0.00    +0.000 A 
ATOM     11  C   UNL     1      26.404  23.656  26.334  0.00  0.00    +0.000 A 
ENDBRANCH   1  11
BRANCH   1  12
ATOM     12  C   UNL     1      28.327  23.811  24.943  0.00  0.00    +0.000 A 
ATOM     13  C   UNL     1      28.423  25.122  25.094  0.00  0.00    +0.000 A 
ATOM     14  C   UNL     1      29.662  25.723  25.044  0.00  0.00    +0.000 A 
ATOM     15  C   UNL     1      30.802  24.951  24.835  0.00  0.00    +0.000 A 
ATOM     16  C   UNL     1      30.721  23.592  24.676  0.00  0.00    +0.000 A 
ATOM     17  C   UNL     1      29.433  23.040  24.738  0.00  0.00    +0.000 A 
ATOM     18  O   UNL     1      31.976  23.079  24.489  0.00  0.00    +0.000 OA
ATOM     19  C   UNL     1      32.908  24.121  24.709  0.00  0.00    +0.000 C 
ATOM     20  O   UNL     1      32.144  25.302  24.745  0.00  0.00    +0.000 OA
ENDBRANCH   1  12
BRANCH   1  21
ATOM     21  C   UNL     1      26.127  24.002  23.953  0.00  0.00    +0.000 C 
BRANCH  21  22
ATOM     22  N   UNL     1      26.136  23.334  22.683  0.00  0.00    +0.000 N 
ATOM     23  O   UNL     1      25.135  22.655  22.376  0.00  0.00    +0.000 OA
ATOM     24  O   UNL     1      27.197  23.419  21.809  0.00  0.00    +0.000 OA
ENDBRANCH  21  22
ENDBRANCH   1  21
TORSDOF 4
ENDMDL
MODEL 5
REMARK VINA RESULT:      -6.8     18.937     20.586
REMARK  Name = 
REMARK  4 active torsions:
REMARK  status: ('A' for Active; 'I' for Inactive)
REMARK    1  A    between atoms: C_10  and  C_11
REMARK    2  A    between atoms: C_11  and  C_12
REMARK    3  A    between atoms: C_11  and  C_16
REMARK    4  A    between atoms: C_12  and  N_13
REMARK                            x       y       z     vdW  Elec       q    Type
REMARK                         _______ _______ _______ _____ _____    ______ ____
ROOT
ATOM      1  C   UNL     1      26.201  24.772  24.649  0.00  0.00    +0.000 C 
ENDROOT
BRANCH   1  11
ATOM      2  C   UNL     1      27.331  27.789  24.697  0.00  0.00    +0.000 C 
ATOM      3  C   UNL     1      28.134  26.517  24.658  0.00  0.00    +0.000 A 
ATOM      4  N   UNL     1      29.478  26.506  24.631  0.00  0.00    +0.000 NA
ATOM      5  C   UNL     1      29.928  25.231  24.597  0.00  0.00    +0.000 A 
ATOM      6  C   UNL     1      31.181  24.658  24.561  0.00  0.00    +0.000 A 
ATOM      7  C   UNL     1      31.393  23.295  24.528  0.00  0.00    +0.000 A 
ATOM      8  C   UNL     1      30.273  22.493  24.533  0.00  0.00    +0.000 A 
ATOM      9  C   UNL     1      29.006  23.029  24.570  0.00  0.00    +0.000 A 
ATOM     10  C   UNL     1      28.802  24.412  24.602  0.00  0.00    +0.000 A 
ATOM     11  C   UNL     1      27.715  25.225  24.641  0.00  0.00    +0.000 A 
ENDBRANCH   1  11
BRANCH   1  12
ATOM     12  C   UNL     1      26.094  24.520  26.231  0.00  0.00    +0.000 A 
ATOM     13  C   UNL     1      26.561  23.434  26.824  0.00  0.00    +0.000 A 
ATOM     14  C   UNL     1      26.427  23.295  28.189  0.00  0.00    +0.000 A 
ATOM     15  C   UNL     1      25.804  24.294  28.932  0.00  0.00    +0.000 A 
ATOM     16  C   UNL     1      25.314  25.425  28.334  0.00  0.00    +0.000 A 
ATOM     17  C   UNL     1      25.482  25.508  26.944  0.00  0.00    +0.000 A 
ATOM     18  O   UNL     1      24.756  26.238  29.283  0.00  0.00    +0.000 OA
ATOM     19  C   UNL     1      25.054  25.690  30.553  0.00  0.00    +0.000 C 
ATOM     20  O   UNL     1      25.547  24.398  30.295  0.00  0.00    +0.000 OA
ENDBRANCH   1  12
BRANCH   1  21
ATOM     21  C   UNL     1      26.435  23.212  24.224  0.00  0.00    +0.000 C 
BRANCH  21  22
ATOM     22  N   UNL     1      25.981  23.097  22.869  0.00  0.00    +0.000 N 
ATOM     23  O   UNL     1      24.851  22.604  22.672  0.00  0.00    +0.000 OA
ATOM     24  O   UNL     1      26.741  23.510  21.795  0.00  0.00    +0.000 OA
ENDBRANCH  21  22
ENDBRANCH   1  21
TORSDOF 4
ENDMDL
MODEL 6
REMARK VINA RESULT:      -6.8     18.719     20.366
REMARK  Name = 
REMARK  4 active torsions:
REMARK  status: ('A' for Active; 'I' for Inactive)
REMARK    1  A    between atoms: C_10  and  C_11
REMARK    2  A    between atoms: C_11  and  C_12
REMARK    3  A    between atoms: C_11  and  C_16
REMARK    4  A    between atoms: C_12  and  N_13
REMARK                            x       y       z     vdW  Elec       q    Type
REMARK                         _______ _______ _______ _____ _____    ______ ____
ROOT
ATOM      1  C   UNL     1      25.657  23.933  24.774  0.00  0.00    +0.000 C 
ENDROOT
BRANCH   1  11
ATOM      2  C   UNL     1      23.763  26.495  25.248  0.00  0.00    +0.000 C 
ATOM      3  C   UNL     1      25.253  26.492  25.041  0.00  0.00    +0.000 A 
ATOM      4  N   UNL     1      25.988  27.617  25.025  0.00  0.00    +0.000 NA
ATOM      5  C   UNL     1      27.291  27.315  24.819  0.00  0.00    +0.000 A 
ATOM      6  C   UNL     1      28.443  28.063  24.715  0.00  0.00    +0.000 A 
ATOM      7  C   UNL     1      29.689  27.513  24.497  0.00  0.00    +0.000 A 
ATOM      8  C   UNL     1      29.751  26.141  24.381  0.00  0.00    +0.000 A 
ATOM      9  C   UNL     1      28.621  25.362  24.479  0.00  0.00    +0.000 A 
ATOM     10  C   UNL     1      27.362  25.929  24.701  0.00  0.00    +0.000 A 
ATOM     11  C   UNL     1      26.100  25.449  24.841  0.00  0.00    +0.000 A 
ENDBRANCH   1  11
BRANCH   1  12
ATOM     12  C   UNL     1      26.321  23.485  26.164  0.00  0.00    +0.000 A 
ATOM     13  C   UNL     1      27.408  22.735  26.240  0.00  0.00    +0.000 A 
ATOM     14  C   UNL     1      27.915  22.394  27.475  0.00  0.00    +0.000 A 
ATOM     15  C   UNL     1      27.282  22.840  28.633  0.00  0.00    +0.000 A 
ATOM     16  C   UNL     1      26.155  23.618  28.574  0.00  0.00    +0.000 A 
ATOM     17  C   UNL     1      25.690  23.931  27.288  0.00  0.00    +0.000 A 
ATOM     18  O   UNL     1      25.739  23.915  29.843  0.00  0.00    +0.000 OA
ATOM     19  C   UNL     1      26.730  23.459  30.743  0.00  0.00    +0.000 C 
ATOM     20  O   UNL     1      27.582  22.643  29.977  0.00  0.00    +0.000 OA
ENDBRANCH   1  12
BRANCH   1  21
ATOM     21  C   UNL     1      26.860  23.395  23.807  0.00  0.00    +0.000 C 
BRANCH  21  22
ATOM     22  N   UNL     1      26.350  23.457  22.468  0.00  0.00    +0.000 N 
ATOM     23  O   UNL     1      25.345  22.770  22.194  0.00  0.00    +0.000 OA
ATOM     24  O   UNL     1      26.928  24.240  21.492  0.00  0.00    +0.000 OA
ENDBRANCH  21  22
ENDBRANCH   1  21
TORSDOF 4
ENDMDL
MODEL 7
REMARK VINA RESULT:      -6.7     20.367     22.175
REMARK  Name = 
REMARK  4 active torsions:
REMARK  status: ('A' for Active; 'I' for Inactive)
REMARK    1  A    between atoms: C_10  and  C_11
REMARK    2  A    between atoms: C_11  and  C_12
REMARK    3  A    between atoms: C_11  and  C_16
REMARK    4  A    between atoms: C_12  and  N_13
REMARK                            x       y       z     vdW  Elec       q    Type
REMARK                         _______ _______ _______ _____ _____    ______ ____
ROOT
ATOM      1  C   UNL     1      29.362  23.083  24.246  0.00  0.00    +0.000 C 
ENDROOT
BRANCH   1  11
ATOM      2  C   UNL     1      30.473  21.773  26.973  0.00  0.00    +0.000 C 
ATOM      3  C   UNL     1      29.184  22.526  26.784  0.00  0.00    +0.000 A 
ATOM      4  N   UNL     1      28.312  22.738  27.785  0.00  0.00    +0.000 NA
ATOM      5  C   UNL     1      27.247  23.437  27.330  0.00  0.00    +0.000 A 
ATOM      6  C   UNL     1      26.093  23.911  27.913  0.00  0.00    +0.000 A 
ATOM      7  C   UNL     1      25.128  24.616  27.224  0.00  0.00    +0.000 A 
ATOM      8  C   UNL     1      25.361  24.841  25.884  0.00  0.00    +0.000 A 
ATOM      9  C   UNL     1      26.502  24.383  25.268  0.00  0.00    +0.000 A 
ATOM     10  C   UNL     1      27.475  23.669  25.975  0.00  0.00    +0.000 A 
ATOM     11  C   UNL     1      28.669  23.101  25.667  0.00  0.00    +0.000 A 
ENDBRANCH   1  11
BRANCH   1  12
ATOM     12  C   UNL     1      30.552  24.097  24.610  0.00  0.00    +0.000 A 
ATOM     13  C   UNL     1      30.346  25.325  25.055  0.00  0.00    +0.000 A 
ATOM     14  C   UNL     1      31.423  26.134  25.343  0.00  0.00    +0.000 A 
ATOM     15  C   UNL     1      32.719  25.655  25.165  0.00  0.00    +0.000 A 
ATOM     16  C   UNL     1      32.951  24.385  24.705  0.00  0.00    +0.000 A 
ATOM     17  C   UNL     1      31.814  23.612  24.430  0.00  0.00    +0.000 A 
ATOM     18  O   UNL     1      34.301  24.170  24.622  0.00  0.00    +0.000 OA
ATOM     19  C   UNL     1      34.954  25.276  25.215  0.00  0.00    +0.000 C 
ATOM     20  O   UNL     1      33.956  26.255  25.378  0.00  0.00    +0.000 OA
ENDBRANCH   1  12
BRANCH   1  21
ATOM     21  C   UNL     1      28.396  24.178  23.515  0.00  0.00    +0.000 C 
BRANCH  21  22
ATOM     22  N   UNL     1      28.371  23.821  22.126  0.00  0.00    +0.000 N 
ATOM     23  O   UNL     1      27.339  23.277  21.682  0.00  0.00    +0.000 OA
ATOM     24  O   UNL     1      29.434  24.058  21.281  0.00  0.00    +0.000 OA
ENDBRANCH  21  22
ENDBRANCH   1  21
TORSDOF 4
ENDMDL
MODEL 8
REMARK VINA RESULT:      -6.7     20.918     23.219
REMARK  Name = 
REMARK  4 active torsions:
REMARK  status: ('A' for Active; 'I' for Inactive)
REMARK    1  A    between atoms: C_10  and  C_11
REMARK    2  A    between atoms: C_11  and  C_12
REMARK    3  A    between atoms: C_11  and  C_16
REMARK    4  A    between atoms: C_12  and  N_13
REMARK                            x       y       z     vdW  Elec       q    Type
REMARK                         _______ _______ _______ _____ _____    ______ ____
ROOT
ATOM      1  C   UNL     1      17.809  -9.981  26.721  0.00  0.00    +0.000 C 
ENDROOT
BRANCH   1  11
ATOM      2  C   UNL     1      20.491 -10.621  25.053  0.00  0.00    +0.000 C 
ATOM      3  C   UNL     1      19.987  -9.269  25.484  0.00  0.00    +0.000 A 
ATOM      4  N   UNL     1      20.641  -8.128  25.209  0.00  0.00    +0.000 NA
ATOM      5  C   UNL     1      19.962  -7.073  25.716  0.00  0.00    +0.000 A 
ATOM      6  C   UNL     1      20.176  -5.712  25.725  0.00  0.00    +0.000 A 
ATOM      7  C   UNL     1      19.318  -4.813  26.325  0.00  0.00    +0.000 A 
ATOM      8  C   UNL     1      18.200  -5.335  26.938  0.00  0.00    +0.000 A 
ATOM      9  C   UNL     1      17.954  -6.689  26.949  0.00  0.00    +0.000 A 
ATOM     10  C   UNL     1      18.830  -7.592  26.338  0.00  0.00    +0.000 A 
ATOM     11  C   UNL     1      18.869  -8.940  26.181  0.00  0.00    +0.000 A 
ENDBRANCH   1  11
BRANCH   1  12
ATOM     12  C   UNL     1      16.615  -9.556  25.736  0.00  0.00    +0.000 A 
ATOM     13  C   UNL     1      16.689  -9.663  24.420  0.00  0.00    +0.000 A 
ATOM     14  C   UNL     1      15.619  -9.275  23.645  0.00  0.00    +0.000 A 
ATOM     15  C   UNL     1      14.469  -8.772  24.248  0.00  0.00    +0.000 A 
ATOM     16  C   UNL     1      14.375  -8.654  25.611  0.00  0.00    +0.000 A 
ATOM     17  C   UNL     1      15.496  -9.067  26.344  0.00  0.00    +0.000 A 
ATOM     18  O   UNL     1      13.150  -8.138  25.940  0.00  0.00    +0.000 OA
ATOM     19  C   UNL     1      12.369  -8.088  24.762  0.00  0.00    +0.000 C 
ATOM     20  O   UNL     1      13.271  -8.318  23.706  0.00  0.00    +0.000 OA
ENDBRANCH   1  12
BRANCH   1  21
ATOM     21  C   UNL     1      17.300  -9.125  28.017  0.00  0.00    +0.000 C 
BRANCH  21  22
ATOM     22  N   UNL     1      17.826  -9.798  29.168  0.00  0.00    +0.000 N 
ATOM     23  O   UNL     1      17.039 -10.479  29.856  0.00  0.00    +0.000 OA
ATOM     24  O   UNL     1      19.154  -9.715  29.531  0.00  0.00    +0.000 OA
ENDBRANCH  21  22
ENDBRANCH   1  21
TORSDOF 4
ENDMDL
MODEL 9
REMARK VINA RESULT:      -6.6      5.108      6.958
REMARK  Name = 
REMARK  4 active torsions:
REMARK  status: ('A' for Active; 'I' for Inactive)
REMARK    1  A    between atoms: C_10  and  C_11
REMARK    2  A    between atoms: C_11  and  C_12
REMARK    3  A    between atoms: C_11  and  C_16
REMARK    4  A    between atoms: C_12  and  N_13
REMARK                            x       y       z     vdW  Elec       q    Type
REMARK                         _______ _______ _______ _____ _____    ______ ____
ROOT
ATOM      1  C   UNL     1      19.209  11.040  37.952  0.00  0.00    +0.000 C 
ENDROOT
BRANCH   1  11
ATOM      2  C   UNL     1      20.417  13.788  39.125  0.00  0.00    +0.000 C 
ATOM      3  C   UNL     1      21.177  12.667  38.468  0.00  0.00    +0.000 A 
ATOM      4  N   UNL     1      22.508  12.700  38.286  0.00  0.00    +0.000 NA
ATOM      5  C   UNL     1      22.918  11.566  37.672  0.00  0.00    +0.000 A 
ATOM      6  C   UNL     1      24.143  11.090  37.257  0.00  0.00    +0.000 A 
ATOM      7  C   UNL     1      24.313   9.871  36.635  0.00  0.00    +0.000 A 
ATOM      8  C   UNL     1      23.180   9.113  36.433  0.00  0.00    +0.000 A 
ATOM      9  C   UNL     1      21.940   9.555  36.834  0.00  0.00    +0.000 A 
ATOM     10  C   UNL     1      21.778  10.793  37.463  0.00  0.00    +0.000 A 
ATOM     11  C   UNL     1      20.725  11.491  37.961  0.00  0.00    +0.000 A 
ENDBRANCH   1  11
BRANCH   1  12
ATOM     12  C   UNL     1      19.319  10.006  39.174  0.00  0.00    +0.000 A 
ATOM     13  C   UNL     1      19.771  10.343  40.371  0.00  0.00    +0.000 A 
ATOM     14  C   UNL     1      19.834   9.392  41.366  0.00  0.00    +0.000 A 
ATOM     15  C   UNL     1      19.423   8.087  41.109  0.00  0.00    +0.000 A 
ATOM     16  C   UNL     1      18.951   7.720  39.875  0.00  0.00    +0.000 A 
ATOM     17  C   UNL     1      18.911   8.732  38.905  0.00  0.00    +0.000 A 
ATOM     18  O   UNL     1      18.617   6.393  39.891  0.00  0.00    +0.000 OA
ATOM     19  C   UNL     1      18.713   5.937  41.227  0.00  0.00    +0.000 C 
ATOM     20  O   UNL     1      19.384   6.960  41.922  0.00  0.00    +0.000 OA
ENDBRANCH   1  12
BRANCH   1  21
ATOM     21  C   UNL     1      19.315   9.933  36.756  0.00  0.00    +0.000 C 
BRANCH  21  22
ATOM     22  N   UNL     1      18.163  10.133  35.926  0.00  0.00    +0.000 N 
ATOM     23  O   UNL     1      18.024   9.391  34.933  0.00  0.00    +0.000 OA
ATOM     24  O   UNL     1      17.220  11.103  36.191  0.00  0.00    +0.000 OA
ENDBRANCH  21  22
ENDBRANCH   1  21
TORSDOF 4
ENDMDL
MODEL 10
REMARK VINA RESULT:      -6.5     20.162     21.844
REMARK  Name = 
REMARK  4 active torsions:
REMARK  status: ('A' for Active; 'I' for Inactive)
REMARK    1  A    between atoms: C_10  and  C_11
REMARK    2  A    between atoms: C_11  and  C_12
REMARK    3  A    between atoms: C_11  and  C_16
REMARK    4  A    between atoms: C_12  and  N_13
REMARK                            x       y       z     vdW  Elec       q    Type
REMARK                         _______ _______ _______ _____ _____    ______ ____
ROOT
ATOM      1  C   UNL     1      28.230  24.734  24.280  0.00  0.00    +0.000 C 
ENDROOT
BRANCH   1  11
ATOM      2  C   UNL     1      28.150  27.768  25.363  0.00  0.00    +0.000 C 
ATOM      3  C   UNL     1      29.363  26.891  25.201  0.00  0.00    +0.000 A 
ATOM      4  N   UNL     1      30.605  27.306  25.501  0.00  0.00    +0.000 NA
ATOM      5  C   UNL     1      31.494  26.315  25.257  0.00  0.00    +0.000 A 
ATOM      6  C   UNL     1      32.862  26.203  25.384  0.00  0.00    +0.000 A 
ATOM      7  C   UNL     1      33.563  25.059  25.061  0.00  0.00    +0.000 A 
ATOM      8  C   UNL     1      32.829  23.993  24.590  0.00  0.00    +0.000 A 
ATOM      9  C   UNL     1      31.462  24.068  24.450  0.00  0.00    +0.000 A 
ATOM     10  C   UNL     1      30.760  25.232  24.780  0.00  0.00    +0.000 A 
ATOM     11  C   UNL     1      29.456  25.611  24.756  0.00  0.00    +0.000 A 
ENDBRANCH   1  11
BRANCH   1  12
ATOM     12  C   UNL     1      28.063  23.899  25.640  0.00  0.00    +0.000 A 
ATOM     13  C   UNL     1      28.771  22.817  25.918  0.00  0.00    +0.000 A 
ATOM     14  C   UNL     1      28.564  22.157  27.110  0.00  0.00    +0.000 A 
ATOM     15  C   UNL     1      27.616  22.631  28.013  0.00  0.00    +0.000 A 
ATOM     16  C   UNL     1      26.873  23.751  27.741  0.00  0.00    +0.000 A 
ATOM     17  C   UNL     1      27.130  24.378  26.513  0.00  0.00    +0.000 A 
ATOM     18  O   UNL     1      26.022  23.997  28.784  0.00  0.00    +0.000 OA
ATOM     19  C   UNL     1      26.353  23.109  29.834  0.00  0.00    +0.000 C 
ATOM     20  O   UNL     1      27.220  22.161  29.260  0.00  0.00    +0.000 OA
ENDBRANCH   1  12
BRANCH   1  21
ATOM     21  C   UNL     1      29.075  23.598  23.464  0.00  0.00    +0.000 C 
BRANCH  21  22
ATOM     22  N   UNL     1      28.661  23.703  22.095  0.00  0.00    +0.000 N 
ATOM     23  O   UNL     1      29.494  24.114  21.263  0.00  0.00    +0.000 OA
ATOM     24  O   UNL     1      27.390  23.367  21.678  0.00  0.00    +0.000 OA
ENDBRANCH  21  22
ENDBRANCH   1  21
TORSDOF 4
ENDMDL
