MODEL 1
REMARK VINA RESULT:      -8.4      0.000      0.000
REMARK  Name = 
REMARK  7 active torsions:
REMARK  status: ('A' for Active; 'I' for Inactive)
REMARK    1  A    between atoms: O_2  and  C_3
REMARK    2  A    between atoms: C_6  and  C_7
REMARK    3  A    between atoms: C_10  and  C_11
REMARK    4  A    between atoms: C_17  and  C_18
REMARK    5  A    between atoms: N_20  and  C_21
REMARK    6  A    between atoms: C_21  and  C_22
REMARK    7  A    between atoms: C_25  and  C_26
REMARK                            x       y       z     vdW  Elec       q    Type
REMARK                         _______ _______ _______ _____ _____    ______ ____
ROOT
ATOM      1  C   UNL     1      39.429   4.196  14.990  0.00  0.00    +0.000 A 
ATOM      2  N   UNL     1      40.388   5.137  14.845  0.00  0.00    +0.000 NA
ATOM      3  O   UNL     1      40.326   5.975  15.806  0.00  0.00    +0.000 OA
ATOM      4  C   UNL     1      39.357   5.693  16.662  0.00  0.00    +0.000 A 
ATOM      5  C   UNL     1      38.768   4.557  16.166  0.00  0.00    +0.000 A 
ENDROOT
BRANCH   1   9
ATOM      6  C   UNL     1      38.825   0.848  12.445  0.00  0.00    +0.000 A 
ATOM      7  C   UNL     1      38.248   2.064  12.157  0.00  0.00    +0.000 A 
ATOM      8  C   UNL     1      38.415   3.172  12.946  0.00  0.00    +0.000 A 
ATOM      9  C   UNL     1      39.190   3.075  14.074  0.00  0.00    +0.000 A 
ATOM     10  C   UNL     1      39.773   1.862  14.369  0.00  0.00    +0.000 A 
ATOM     11  C   UNL     1      39.598   0.774  13.578  0.00  0.00    +0.000 A 
BRANCH   6  13
ATOM     12  C   UNL     1      39.394  -1.429  11.728  0.00  0.00    +0.000 C 
ATOM     13  O   UNL     1      38.625  -0.263  11.600  0.00  0.00    +0.000 OA
ENDBRANCH   6  13
ENDBRANCH   1   9
BRANCH   4  14
ATOM     14  C   UNL     1      39.069   6.489  17.842  0.00  0.00    +0.000 A 
ATOM     15  C   UNL     1      38.086   7.409  17.960  0.00  0.00    +0.000 A 
ATOM     16  C   UNL     1      37.922   8.114  19.140  0.00  0.00    +0.000 A 
ATOM     17  C   UNL     1      38.753   7.897  20.219  0.00  0.00    +0.000 A 
ATOM     18  C   UNL     1      39.774   6.955  20.125  0.00  0.00    +0.000 A 
ATOM     19  C   UNL     1      39.896   6.286  18.944  0.00  0.00    +0.000 A 
ENDBRANCH   4  14
BRANCH   5  20
ATOM     20  C   UNL     1      37.682   3.781  16.730  0.00  0.00    +0.000 C 
ATOM     21  O   UNL     1      37.712   3.401  17.913  0.00  0.00    +0.000 OA
ATOM     22  N   UNL     1      36.542   3.411  15.965  0.00  0.00    +0.000 NA
BRANCH  22  23
ATOM     23  C   UNL     1      35.512   2.631  16.513  0.00  0.00    +0.000 C 
BRANCH  23  24
ATOM     24  C   UNL     1      35.502   1.198  16.343  0.00  0.00    +0.000 A 
ATOM     25  C   UNL     1      34.818   0.253  17.065  0.00  0.00    +0.000 A 
ATOM     26  C   UNL     1      34.926  -1.116  16.790  0.00  0.00    +0.000 A 
ATOM     27  C   UNL     1      35.729  -1.565  15.778  0.00  0.00    +0.000 A 
ATOM     28  C   UNL     1      36.427  -0.633  15.035  0.00  0.00    +0.000 A 
ATOM     29  C   UNL     1      36.315   0.697  15.309  0.00  0.00    +0.000 A 
BRANCH  27  30
ATOM     30  C   UNL     1      35.897  -3.012  15.444  0.00  0.00    +0.000 C 
ATOM     31  C   UNL     1      36.827  -3.095  14.237  0.00  0.00    +0.000 C 
ATOM     32  C   UNL     1      36.577  -3.768  16.560  0.00  0.00    +0.000 C 
ATOM     33  C   UNL     1      34.605  -3.695  15.099  0.00  0.00    +0.000 C 
ENDBRANCH  27  30
ENDBRANCH  23  24
ENDBRANCH  22  23
ENDBRANCH   5  20
TORSDOF 7
ENDMDL
MODEL 2
REMARK VINA RESULT:      -7.8      2.491      7.371
REMARK  Name = 
REMARK  7 active torsions:
REMARK  status: ('A' for Active; 'I' for Inactive)
REMARK    1  A    between atoms: O_2  and  C_3
REMARK    2  A    between atoms: C_6  and  C_7
REMARK    3  A    between atoms: C_10  and  C_11
REMARK    4  A    between atoms: C_17  and  C_18
REMARK    5  A    between atoms: N_20  and  C_21
REMARK    6  A    between atoms: C_21  and  C_22
REMARK    7  A    between atoms: C_25  and  C_26
REMARK                            x       y       z     vdW  Elec       q    Type
REMARK                         _______ _______ _______ _____ _____    ______ ____
ROOT
ATOM      1  C   UNL     1      37.608  -0.413  13.290  0.00  0.00    +0.000 A 
ATOM      2  N   UNL     1      37.746  -1.747  13.461  0.00  0.00    +0.000 NA
ATOM      3  O   UNL     1      37.545  -2.054  14.683  0.00  0.00    +0.000 OA
ATOM      4  C   UNL     1      37.262  -0.999  15.431  0.00  0.00    +0.000 A 
ATOM      5  C   UNL     1      37.293   0.065  14.565  0.00  0.00    +0.000 A 
ENDROOT
BRANCH   1   9
ATOM      6  C   UNL     1      38.256   1.646   9.631  0.00  0.00    +0.000 A 
ATOM      7  C   UNL     1      36.979   1.395  10.081  0.00  0.00    +0.000 A 
ATOM      8  C   UNL     1      36.720   0.736  11.255  0.00  0.00    +0.000 A 
ATOM      9  C   UNL     1      37.773   0.306  12.022  0.00  0.00    +0.000 A 
ATOM     10  C   UNL     1      39.054   0.554  11.580  0.00  0.00    +0.000 A 
ATOM     11  C   UNL     1      39.294   1.207  10.416  0.00  0.00    +0.000 A 
BRANCH   6  13
ATOM     12  C   UNL     1      37.463   3.103   7.822  0.00  0.00    +0.000 C 
ATOM     13  O   UNL     1      38.470   2.329   8.417  0.00  0.00    +0.000 OA
ENDBRANCH   6  13
ENDBRANCH   1   9
BRANCH   4  14
ATOM     14  C   UNL     1      36.995  -1.071  16.856  0.00  0.00    +0.000 A 
ATOM     15  C   UNL     1      35.940  -0.518  17.496  0.00  0.00    +0.000 A 
ATOM     16  C   UNL     1      35.805  -0.648  18.867  0.00  0.00    +0.000 A 
ATOM     17  C   UNL     1      36.737  -1.342  19.611  0.00  0.00    +0.000 A 
ATOM     18  C   UNL     1      37.832  -1.922  18.978  0.00  0.00    +0.000 A 
ATOM     19  C   UNL     1      37.922  -1.767  17.626  0.00  0.00    +0.000 A 
ENDBRANCH   4  14
BRANCH   5  20
ATOM     20  C   UNL     1      37.011   1.460  14.835  0.00  0.00    +0.000 C 
ATOM     21  O   UNL     1      35.918   1.965  14.527  0.00  0.00    +0.000 OA
ATOM     22  N   UNL     1      37.963   2.317  15.454  0.00  0.00    +0.000 NA
BRANCH  22  23
ATOM     23  C   UNL     1      37.691   3.674  15.680  0.00  0.00    +0.000 C 
BRANCH  23  24
ATOM     24  C   UNL     1      38.653   4.520  16.344  0.00  0.00    +0.000 A 
ATOM     25  C   UNL     1      39.705   5.213  15.802  0.00  0.00    +0.000 A 
ATOM     26  C   UNL     1      40.573   5.984  16.586  0.00  0.00    +0.000 A 
ATOM     27  C   UNL     1      40.399   6.072  17.940  0.00  0.00    +0.000 A 
ATOM     28  C   UNL     1      39.345   5.385  18.511  0.00  0.00    +0.000 A 
ATOM     29  C   UNL     1      38.506   4.638  17.739  0.00  0.00    +0.000 A 
BRANCH  27  30
ATOM     30  C   UNL     1      41.298   6.866  18.832  0.00  0.00    +0.000 C 
ATOM     31  C   UNL     1      42.713   6.748  18.273  0.00  0.00    +0.000 C 
ATOM     32  C   UNL     1      40.951   8.335  18.810  0.00  0.00    +0.000 C 
ATOM     33  C   UNL     1      41.304   6.381  20.252  0.00  0.00    +0.000 C 
ENDBRANCH  27  30
ENDBRANCH  23  24
ENDBRANCH  22  23
ENDBRANCH   5  20
TORSDOF 7
ENDMDL
MODEL 3
REMARK VINA RESULT:      -7.5      2.889      8.725
REMARK  Name = 
REMARK  7 active torsions:
REMARK  status: ('A' for Active; 'I' for Inactive)
REMARK    1  A    between atoms: O_2  and  C_3
REMARK    2  A    between atoms: C_6  and  C_7
REMARK    3  A    between atoms: C_10  and  C_11
REMARK    4  A    between atoms: C_17  and  C_18
REMARK    5  A    between atoms: N_20  and  C_21
REMARK    6  A    between atoms: C_21  and  C_22
REMARK    7  A    between atoms: C_25  and  C_26
REMARK                            x       y       z     vdW  Elec       q    Type
REMARK                         _______ _______ _______ _____ _____    ______ ____
ROOT
ATOM      1  C   UNL     1      36.820   4.393  13.863  0.00  0.00    +0.000 A 
ATOM      2  N   UNL     1      36.946   3.826  12.643  0.00  0.00    +0.000 NA
ATOM      3  O   UNL     1      37.582   2.725  12.736  0.00  0.00    +0.000 OA
ATOM      4  C   UNL     1      37.935   2.447  13.981  0.00  0.00    +0.000 A 
ATOM      5  C   UNL     1      37.458   3.498  14.725  0.00  0.00    +0.000 A 
ENDROOT
BRANCH   1   9
ATOM      6  C   UNL     1      34.740   8.013  14.650  0.00  0.00    +0.000 A 
ATOM      7  C   UNL     1      36.104   7.934  14.820  0.00  0.00    +0.000 A 
ATOM      8  C   UNL     1      36.818   6.789  14.578  0.00  0.00    +0.000 A 
ATOM      9  C   UNL     1      36.154   5.670  14.146  0.00  0.00    +0.000 A 
ATOM     10  C   UNL     1      34.790   5.740  13.971  0.00  0.00    +0.000 A 
ATOM     11  C   UNL     1      34.096   6.880  14.215  0.00  0.00    +0.000 A 
BRANCH   6  13
ATOM     12  C   UNL     1      34.403  10.045  15.984  0.00  0.00    +0.000 C 
ATOM     13  O   UNL     1      34.049   9.214  14.911  0.00  0.00    +0.000 OA
ENDBRANCH   6  13
ENDBRANCH   1   9
BRANCH   4  14
ATOM     14  C   UNL     1      38.672   1.255  14.363  0.00  0.00    +0.000 A 
ATOM     15  C   UNL     1      39.999   1.053  14.197  0.00  0.00    +0.000 A 
ATOM     16  C   UNL     1      40.582  -0.137  14.593  0.00  0.00    +0.000 A 
ATOM     17  C   UNL     1      39.828  -1.143  15.163  0.00  0.00    +0.000 A 
ATOM     18  C   UNL     1      38.460  -0.962  15.346  0.00  0.00    +0.000 A 
ATOM     19  C   UNL     1      37.931   0.228  14.940  0.00  0.00    +0.000 A 
ENDBRANCH   4  14
BRANCH   5  20
ATOM     20  C   UNL     1      37.519   3.692  16.159  0.00  0.00    +0.000 C 
ATOM     21  O   UNL     1      36.597   3.308  16.899  0.00  0.00    +0.000 OA
ATOM     22  N   UNL     1      38.623   4.333  16.787  0.00  0.00    +0.000 NA
BRANCH  22  23
ATOM     23  C   UNL     1      38.655   4.546  18.174  0.00  0.00    +0.000 C 
BRANCH  23  24
ATOM     24  C   UNL     1      39.015   5.834  18.715  0.00  0.00    +0.000 A 
ATOM     25  C   UNL     1      40.022   6.145  19.594  0.00  0.00    +0.000 A 
ATOM     26  C   UNL     1      40.236   7.453  20.047  0.00  0.00    +0.000 A 
ATOM     27  C   UNL     1      39.436   8.479  19.625  0.00  0.00    +0.000 A 
ATOM     28  C   UNL     1      38.416   8.192  18.740  0.00  0.00    +0.000 A 
ATOM     29  C   UNL     1      38.216   6.917  18.303  0.00  0.00    +0.000 A 
BRANCH  27  30
ATOM     30  C   UNL     1      39.606   9.892  20.083  0.00  0.00    +0.000 C 
ATOM     31  C   UNL     1      38.578  10.139  21.184  0.00  0.00    +0.000 C 
ATOM     32  C   UNL     1      40.962  10.119  20.707  0.00  0.00    +0.000 C 
ATOM     33  C   UNL     1      39.388  10.900  18.992  0.00  0.00    +0.000 C 
ENDBRANCH  27  30
ENDBRANCH  23  24
ENDBRANCH  22  23
ENDBRANCH   5  20
TORSDOF 7
ENDMDL
MODEL 4
REMARK VINA RESULT:      -7.5      2.489      7.326
REMARK  Name = 
REMARK  7 active torsions:
REMARK  status: ('A' for Active; 'I' for Inactive)
REMARK    1  A    between atoms: O_2  and  C_3
REMARK    2  A    between atoms: C_6  and  C_7
REMARK    3  A    between atoms: C_10  and  C_11
REMARK    4  A    between atoms: C_17  and  C_18
REMARK    5  A    between atoms: N_20  and  C_21
REMARK    6  A    between atoms: C_21  and  C_22
REMARK    7  A    between atoms: C_25  and  C_26
REMARK                            x       y       z     vdW  Elec       q    Type
REMARK                         _______ _______ _______ _____ _____    ______ ____
ROOT
ATOM      1  C   UNL     1      39.047  -0.735  13.735  0.00  0.00    +0.000 A 
ATOM      2  N   UNL     1      39.013  -2.026  14.136  0.00  0.00    +0.000 NA
ATOM      3  O   UNL     1      38.325  -2.133  15.204  0.00  0.00    +0.000 OA
ATOM      4  C   UNL     1      37.844  -0.971  15.616  0.00  0.00    +0.000 A 
ATOM      5  C   UNL     1      38.288  -0.058  14.693  0.00  0.00    +0.000 A 
ENDROOT
BRANCH   1   9
ATOM      6  C   UNL     1      41.205   0.787  10.407  0.00  0.00    +0.000 A 
ATOM      7  C   UNL     1      40.033   0.087  10.226  0.00  0.00    +0.000 A 
ATOM      8  C   UNL     1      39.302  -0.422  11.267  0.00  0.00    +0.000 A 
ATOM      9  C   UNL     1      39.749  -0.229  12.550  0.00  0.00    +0.000 A 
ATOM     10  C   UNL     1      40.919   0.471  12.741  0.00  0.00    +0.000 A 
ATOM     11  C   UNL     1      41.632   0.969  11.700  0.00  0.00    +0.000 A 
BRANCH   6  13
ATOM     12  C   UNL     1      41.719   0.794   8.007  0.00  0.00    +0.000 C 
ATOM     13  O   UNL     1      41.921   1.292   9.303  0.00  0.00    +0.000 OA
ENDBRANCH   6  13
ENDBRANCH   1   9
BRANCH   4  14
ATOM     14  C   UNL     1      37.031  -0.814  16.809  0.00  0.00    +0.000 A 
ATOM     15  C   UNL     1      35.864  -0.135  16.893  0.00  0.00    +0.000 A 
ATOM     16  C   UNL     1      35.188  -0.048  18.097  0.00  0.00    +0.000 A 
ATOM     17  C   UNL     1      35.684  -0.647  19.236  0.00  0.00    +0.000 A 
ATOM     18  C   UNL     1      36.883  -1.353  19.179  0.00  0.00    +0.000 A 
ATOM     19  C   UNL     1      37.512  -1.412  17.971  0.00  0.00    +0.000 A 
ENDBRANCH   4  14
BRANCH   5  20
ATOM     20  C   UNL     1      38.019   1.364  14.624  0.00  0.00    +0.000 C 
ATOM     21  O   UNL     1      37.154   1.817  13.856  0.00  0.00    +0.000 OA
ATOM     22  N   UNL     1      38.730   2.305  15.419  0.00  0.00    +0.000 NA
BRANCH  22  23
ATOM     23  C   UNL     1      38.484   3.683  15.319  0.00  0.00    +0.000 C 
BRANCH  23  24
ATOM     24  C   UNL     1      39.056   4.606  16.270  0.00  0.00    +0.000 A 
ATOM     25  C   UNL     1      40.050   5.531  16.076  0.00  0.00    +0.000 A 
ATOM     26  C   UNL     1      40.516   6.350  17.112  0.00  0.00    +0.000 A 
ATOM     27  C   UNL     1      39.990   6.253  18.371  0.00  0.00    +0.000 A 
ATOM     28  C   UNL     1      38.987   5.330  18.592  0.00  0.00    +0.000 A 
ATOM     29  C   UNL     1      38.539   4.538  17.577  0.00  0.00    +0.000 A 
BRANCH  27  30
ATOM     30  C   UNL     1      40.455   7.089  19.520  0.00  0.00    +0.000 C 
ATOM     31  C   UNL     1      41.040   8.374  18.941  0.00  0.00    +0.000 C 
ATOM     32  C   UNL     1      39.306   7.505  20.408  0.00  0.00    +0.000 C 
ATOM     33  C   UNL     1      41.507   6.419  20.354  0.00  0.00    +0.000 C 
ENDBRANCH  27  30
ENDBRANCH  23  24
ENDBRANCH  22  23
ENDBRANCH   5  20
TORSDOF 7
ENDMDL
MODEL 5
REMARK VINA RESULT:      -7.4      3.094      3.619
REMARK  Name = 
REMARK  7 active torsions:
REMARK  status: ('A' for Active; 'I' for Inactive)
REMARK    1  A    between atoms: O_2  and  C_3
REMARK    2  A    between atoms: C_6  and  C_7
REMARK    3  A    between atoms: C_10  and  C_11
REMARK    4  A    between atoms: C_17  and  C_18
REMARK    5  A    between atoms: N_20  and  C_21
REMARK    6  A    between atoms: C_21  and  C_22
REMARK    7  A    between atoms: C_25  and  C_26
REMARK                            x       y       z     vdW  Elec       q    Type
REMARK                         _______ _______ _______ _____ _____    ______ ____
ROOT
ATOM      1  C   UNL     1      37.140   3.428  12.647  0.00  0.00    +0.000 A 
ATOM      2  N   UNL     1      37.123   4.287  11.604  0.00  0.00    +0.000 NA
ATOM      3  O   UNL     1      36.525   5.365  11.935  0.00  0.00    +0.000 OA
ATOM      4  C   UNL     1      36.096   5.342  13.187  0.00  0.00    +0.000 A 
ATOM      5  C   UNL     1      36.478   4.115  13.668  0.00  0.00    +0.000 A 
ENDROOT
BRANCH   1   9
ATOM      6  C   UNL     1      39.006  -0.388  12.687  0.00  0.00    +0.000 A 
ATOM      7  C   UNL     1      37.696  -0.249  12.286  0.00  0.00    +0.000 A 
ATOM      8  C   UNL     1      37.052   0.961  12.255  0.00  0.00    +0.000 A 
ATOM      9  C   UNL     1      37.735   2.087  12.637  0.00  0.00    +0.000 A 
ATOM     10  C   UNL     1      39.046   1.957  13.039  0.00  0.00    +0.000 A 
ATOM     11  C   UNL     1      39.670   0.754  13.064  0.00  0.00    +0.000 A 
BRANCH   6  13
ATOM     12  C   UNL     1      38.874  -2.838  12.772  0.00  0.00    +0.000 C 
ATOM     13  O   UNL     1      39.625  -1.654  12.700  0.00  0.00    +0.000 OA
ENDBRANCH   6  13
ENDBRANCH   1   9
BRANCH   4  14
ATOM     14  C   UNL     1      35.381   6.440  13.813  0.00  0.00    +0.000 A 
ATOM     15  C   UNL     1      34.039   6.540  13.951  0.00  0.00    +0.000 A 
ATOM     16  C   UNL     1      33.477   7.649  14.559  0.00  0.00    +0.000 A 
ATOM     17  C   UNL     1      34.266   8.675  15.036  0.00  0.00    +0.000 A 
ATOM     18  C   UNL     1      35.650   8.598  14.907  0.00  0.00    +0.000 A 
ATOM     19  C   UNL     1      36.158   7.486  14.302  0.00  0.00    +0.000 A 
ENDBRANCH   4  14
BRANCH   5  20
ATOM     20  C   UNL     1      36.309   3.573  15.001  0.00  0.00    +0.000 C 
ATOM     21  O   UNL     1      37.019   3.957  15.946  0.00  0.00    +0.000 OA
ATOM     22  N   UNL     1      35.336   2.577  15.292  0.00  0.00    +0.000 NA
BRANCH  22  23
ATOM     23  C   UNL     1      35.204   2.035  16.580  0.00  0.00    +0.000 C 
BRANCH  23  24
ATOM     24  C   UNL     1      35.867   0.804  16.935  0.00  0.00    +0.000 A 
ATOM     25  C   UNL     1      35.984   0.217  18.170  0.00  0.00    +0.000 A 
ATOM     26  C   UNL     1      36.683  -0.983  18.360  0.00  0.00    +0.000 A 
ATOM     27  C   UNL     1      37.282  -1.618  17.307  0.00  0.00    +0.000 A 
ATOM     28  C   UNL     1      37.177  -1.048  16.054  0.00  0.00    +0.000 A 
ATOM     29  C   UNL     1      36.494   0.119  15.877  0.00  0.00    +0.000 A 
BRANCH  27  30
ATOM     30  C   UNL     1      38.051  -2.891  17.448  0.00  0.00    +0.000 C 
ATOM     31  C   UNL     1      39.280  -2.781  16.549  0.00  0.00    +0.000 C 
ATOM     32  C   UNL     1      38.567  -3.080  18.855  0.00  0.00    +0.000 C 
ATOM     33  C   UNL     1      37.269  -4.106  17.041  0.00  0.00    +0.000 C 
ENDBRANCH  27  30
ENDBRANCH  23  24
ENDBRANCH  22  23
ENDBRANCH   5  20
TORSDOF 7
ENDMDL
MODEL 6
REMARK VINA RESULT:      -7.3      2.736      7.525
REMARK  Name = 
REMARK  7 active torsions:
REMARK  status: ('A' for Active; 'I' for Inactive)
REMARK    1  A    between atoms: O_2  and  C_3
REMARK    2  A    between atoms: C_6  and  C_7
REMARK    3  A    between atoms: C_10  and  C_11
REMARK    4  A    between atoms: C_17  and  C_18
REMARK    5  A    between atoms: N_20  and  C_21
REMARK    6  A    between atoms: C_21  and  C_22
REMARK    7  A    between atoms: C_25  and  C_26
REMARK                            x       y       z     vdW  Elec       q    Type
REMARK                         _______ _______ _______ _____ _____    ______ ____
ROOT
ATOM      1  C   UNL     1      37.485   1.960  14.172  0.00  0.00    +0.000 A 
ATOM      2  N   UNL     1      37.079   2.134  12.895  0.00  0.00    +0.000 NA
ATOM      3  O   UNL     1      36.575   3.297  12.751  0.00  0.00    +0.000 OA
ATOM      4  C   UNL     1      36.589   3.998  13.874  0.00  0.00    +0.000 A 
ATOM      5  C   UNL     1      37.169   3.167  14.800  0.00  0.00    +0.000 A 
ENDROOT
BRANCH   1   9
ATOM      6  C   UNL     1      39.130  -1.606  15.793  0.00  0.00    +0.000 A 
ATOM      7  C   UNL     1      39.907  -0.747  15.049  0.00  0.00    +0.000 A 
ATOM      8  C   UNL     1      39.422   0.415  14.507  0.00  0.00    +0.000 A 
ATOM      9  C   UNL     1      38.106   0.745  14.711  0.00  0.00    +0.000 A 
ATOM     10  C   UNL     1      37.322  -0.108  15.455  0.00  0.00    +0.000 A 
ATOM     11  C   UNL     1      37.816  -1.255  15.985  0.00  0.00    +0.000 A 
BRANCH   6  13
ATOM     12  C   UNL     1      38.889  -3.695  17.058  0.00  0.00    +0.000 C 
ATOM     13  O   UNL     1      39.676  -2.789  16.331  0.00  0.00    +0.000 OA
ENDBRANCH   6  13
ENDBRANCH   1   9
BRANCH   4  14
ATOM     14  C   UNL     1      36.072   5.350  13.986  0.00  0.00    +0.000 A 
ATOM     15  C   UNL     1      34.767   5.704  13.996  0.00  0.00    +0.000 A 
ATOM     16  C   UNL     1      34.402   7.035  14.095  0.00  0.00    +0.000 A 
ATOM     17  C   UNL     1      35.354   8.029  14.186  0.00  0.00    +0.000 A 
ATOM     18  C   UNL     1      36.705   7.693  14.178  0.00  0.00    +0.000 A 
ATOM     19  C   UNL     1      37.016   6.369  14.078  0.00  0.00    +0.000 A 
ENDBRANCH   4  14
BRANCH   5  20
ATOM     20  C   UNL     1      37.480   3.438  16.189  0.00  0.00    +0.000 C 
ATOM     21  O   UNL     1      36.819   2.923  17.107  0.00  0.00    +0.000 OA
ATOM     22  N   UNL     1      38.541   4.306  16.570  0.00  0.00    +0.000 NA
BRANCH  22  23
ATOM     23  C   UNL     1      38.811   4.586  17.918  0.00  0.00    +0.000 C 
BRANCH  23  24
ATOM     24  C   UNL     1      38.891   5.949  18.386  0.00  0.00    +0.000 A 
ATOM     25  C   UNL     1      38.295   7.071  17.870  0.00  0.00    +0.000 A 
ATOM     26  C   UNL     1      38.486   8.340  18.430  0.00  0.00    +0.000 A 
ATOM     27  C   UNL     1      39.286   8.508  19.526  0.00  0.00    +0.000 A 
ATOM     28  C   UNL     1      39.897   7.393  20.066  0.00  0.00    +0.000 A 
ATOM     29  C   UNL     1      39.705   6.161  19.515  0.00  0.00    +0.000 A 
BRANCH  27  30
ATOM     30  C   UNL     1      39.540   9.837  20.161  0.00  0.00    +0.000 C 
ATOM     31  C   UNL     1      39.351  10.899  19.081  0.00  0.00    +0.000 C 
ATOM     32  C   UNL     1      38.531  10.142  21.241  0.00  0.00    +0.000 C 
ATOM     33  C   UNL     1      40.925   9.970  20.725  0.00  0.00    +0.000 C 
ENDBRANCH  27  30
ENDBRANCH  23  24
ENDBRANCH  22  23
ENDBRANCH   5  20
TORSDOF 7
ENDMDL
MODEL 7
REMARK VINA RESULT:      -7.2      4.855      7.426
REMARK  Name = 
REMARK  7 active torsions:
REMARK  status: ('A' for Active; 'I' for Inactive)
REMARK    1  A    between atoms: O_2  and  C_3
REMARK    2  A    between atoms: C_6  and  C_7
REMARK    3  A    between atoms: C_10  and  C_11
REMARK    4  A    between atoms: C_17  and  C_18
REMARK    5  A    between atoms: N_20  and  C_21
REMARK    6  A    between atoms: C_21  and  C_22
REMARK    7  A    between atoms: C_25  and  C_26
REMARK                            x       y       z     vdW  Elec       q    Type
REMARK                         _______ _______ _______ _____ _____    ______ ____
ROOT
ATOM      1  C   UNL     1      40.253  -2.616  15.217  0.00  0.00    +0.000 A 
ATOM      2  N   UNL     1      40.222  -3.581  16.163  0.00  0.00    +0.000 NA
ATOM      3  O   UNL     1      39.305  -3.330  17.014  0.00  0.00    +0.000 OA
ATOM      4  C   UNL     1      38.650  -2.213  16.738  0.00  0.00    +0.000 A 
ATOM      5  C   UNL     1      39.235  -1.736  15.591  0.00  0.00    +0.000 A 
ENDROOT
BRANCH   1   9
ATOM      6  C   UNL     1      43.059  -2.404  12.035  0.00  0.00    +0.000 A 
ATOM      7  C   UNL     1      41.815  -2.960  11.840  0.00  0.00    +0.000 A 
ATOM      8  C   UNL     1      40.877  -3.050  12.835  0.00  0.00    +0.000 A 
ATOM      9  C   UNL     1      41.181  -2.565  14.082  0.00  0.00    +0.000 A 
ATOM     10  C   UNL     1      42.423  -2.006  14.285  0.00  0.00    +0.000 A 
ATOM     11  C   UNL     1      43.342  -1.924  13.291  0.00  0.00    +0.000 A 
BRANCH   6  13
ATOM     12  C   UNL     1      43.643  -2.695   9.669  0.00  0.00    +0.000 C 
ATOM     13  O   UNL     1      43.991  -2.333  10.979  0.00  0.00    +0.000 OA
ENDBRANCH   6  13
ENDBRANCH   1   9
BRANCH   4  14
ATOM     14  C   UNL     1      37.562  -1.696  17.549  0.00  0.00    +0.000 A 
ATOM     15  C   UNL     1      37.627  -1.388  18.864  0.00  0.00    +0.000 A 
ATOM     16  C   UNL     1      36.511  -0.913  19.529  0.00  0.00    +0.000 A 
ATOM     17  C   UNL     1      35.310  -0.744  18.872  0.00  0.00    +0.000 A 
ATOM     18  C   UNL     1      35.214  -1.053  17.518  0.00  0.00    +0.000 A 
ATOM     19  C   UNL     1      36.341  -1.517  16.905  0.00  0.00    +0.000 A 
ENDBRANCH   4  14
BRANCH   5  20
ATOM     20  C   UNL     1      38.882  -0.564  14.816  0.00  0.00    +0.000 C 
ATOM     21  O   UNL     1      39.369   0.549  15.079  0.00  0.00    +0.000 OA
ATOM     22  N   UNL     1      37.964  -0.624  13.732  0.00  0.00    +0.000 NA
BRANCH  22  23
ATOM     23  C   UNL     1      37.605   0.525  13.010  0.00  0.00    +0.000 C 
BRANCH  23  24
ATOM     24  C   UNL     1      37.999   0.683  11.631  0.00  0.00    +0.000 A 
ATOM     25  C   UNL     1      37.344   1.343  10.622  0.00  0.00    +0.000 A 
ATOM     26  C   UNL     1      37.848   1.393   9.316  0.00  0.00    +0.000 A 
ATOM     27  C   UNL     1      39.026   0.776   8.996  0.00  0.00    +0.000 A 
ATOM     28  C   UNL     1      39.705   0.106   9.995  0.00  0.00    +0.000 A 
ATOM     29  C   UNL     1      39.208   0.063  11.263  0.00  0.00    +0.000 A 
BRANCH  27  30
ATOM     30  C   UNL     1      39.608   0.782   7.620  0.00  0.00    +0.000 C 
ATOM     31  C   UNL     1      40.475  -0.467   7.488  0.00  0.00    +0.000 C 
ATOM     32  C   UNL     1      38.538   0.673   6.560  0.00  0.00    +0.000 C 
ATOM     33  C   UNL     1      40.460   1.986   7.341  0.00  0.00    +0.000 C 
ENDBRANCH  27  30
ENDBRANCH  23  24
ENDBRANCH  22  23
ENDBRANCH   5  20
TORSDOF 7
ENDMDL
MODEL 8
REMARK VINA RESULT:      -7.1      3.271      7.592
REMARK  Name = 
REMARK  7 active torsions:
REMARK  status: ('A' for Active; 'I' for Inactive)
REMARK    1  A    between atoms: O_2  and  C_3
REMARK    2  A    between atoms: C_6  and  C_7
REMARK    3  A    between atoms: C_10  and  C_11
REMARK    4  A    between atoms: C_17  and  C_18
REMARK    5  A    between atoms: N_20  and  C_21
REMARK    6  A    between atoms: C_21  and  C_22
REMARK    7  A    between atoms: C_25  and  C_26
REMARK                            x       y       z     vdW  Elec       q    Type
REMARK                         _______ _______ _______ _____ _____    ______ ____
ROOT
ATOM      1  C   UNL     1      40.185  -2.557  15.236  0.00  0.00    +0.000 A 
ATOM      2  N   UNL     1      40.051  -3.522  16.173  0.00  0.00    +0.000 NA
ATOM      3  O   UNL     1      39.059  -3.261  16.931  0.00  0.00    +0.000 OA
ATOM      4  C   UNL     1      38.446  -2.137  16.595  0.00  0.00    +0.000 A 
ATOM      5  C   UNL     1      39.145  -1.666  15.511  0.00  0.00    +0.000 A 
ENDROOT
BRANCH   1   9
ATOM      6  C   UNL     1      43.280  -2.350  12.334  0.00  0.00    +0.000 A 
ATOM      7  C   UNL     1      42.120  -3.045  12.077  0.00  0.00    +0.000 A 
ATOM      8  C   UNL     1      41.094  -3.139  12.981  0.00  0.00    +0.000 A 
ATOM      9  C   UNL     1      41.219  -2.515  14.196  0.00  0.00    +0.000 A 
ATOM     10  C   UNL     1      42.376  -1.817  14.461  0.00  0.00    +0.000 A 
ATOM     11  C   UNL     1      43.383  -1.733  13.557  0.00  0.00    +0.000 A 
BRANCH   6  13
ATOM     12  C   UNL     1      45.654  -2.153  11.743  0.00  0.00    +0.000 C 
ATOM     13  O   UNL     1      44.308  -2.282  11.371  0.00  0.00    +0.000 OA
ENDBRANCH   6  13
ENDBRANCH   1   9
BRANCH   4  14
ATOM     14  C   UNL     1      37.290  -1.609  17.298  0.00  0.00    +0.000 A 
ATOM     15  C   UNL     1      36.082  -1.344  16.753  0.00  0.00    +0.000 A 
ATOM     16  C   UNL     1      35.060  -0.828  17.531  0.00  0.00    +0.000 A 
ATOM     17  C   UNL     1      35.247  -0.573  18.873  0.00  0.00    +0.000 A 
ATOM     18  C   UNL     1      36.482  -0.836  19.460  0.00  0.00    +0.000 A 
ATOM     19  C   UNL     1      37.458  -1.344  18.654  0.00  0.00    +0.000 A 
ENDBRANCH   4  14
BRANCH   5  20
ATOM     20  C   UNL     1      38.882  -0.489  14.708  0.00  0.00    +0.000 C 
ATOM     21  O   UNL     1      38.007  -0.496  13.826  0.00  0.00    +0.000 OA
ATOM     22  N   UNL     1      39.611   0.720  14.881  0.00  0.00    +0.000 NA
BRANCH  22  23
ATOM     23  C   UNL     1      39.371   1.843  14.074  0.00  0.00    +0.000 C 
BRANCH  23  24
ATOM     24  C   UNL     1      39.334   3.168  14.645  0.00  0.00    +0.000 A 
ATOM     25  C   UNL     1      40.098   4.261  14.327  0.00  0.00    +0.000 A 
ATOM     26  C   UNL     1      39.957   5.487  14.990  0.00  0.00    +0.000 A 
ATOM     27  C   UNL     1      39.040   5.637  15.994  0.00  0.00    +0.000 A 
ATOM     28  C   UNL     1      38.257   4.551  16.332  0.00  0.00    +0.000 A 
ATOM     29  C   UNL     1      38.400   3.363  15.681  0.00  0.00    +0.000 A 
BRANCH  27  30
ATOM     30  C   UNL     1      38.852   6.914  16.748  0.00  0.00    +0.000 C 
ATOM     31  C   UNL     1      37.695   7.663  16.091  0.00  0.00    +0.000 C 
ATOM     32  C   UNL     1      38.440   6.662  18.178  0.00  0.00    +0.000 C 
ATOM     33  C   UNL     1      40.064   7.799  16.730  0.00  0.00    +0.000 C 
ENDBRANCH  27  30
ENDBRANCH  23  24
ENDBRANCH  22  23
ENDBRANCH   5  20
TORSDOF 7
ENDMDL
MODEL 9
REMARK VINA RESULT:      -7.1      3.660      8.262
REMARK  Name = 
REMARK  7 active torsions:
REMARK  status: ('A' for Active; 'I' for Inactive)
REMARK    1  A    between atoms: O_2  and  C_3
REMARK    2  A    between atoms: C_6  and  C_7
REMARK    3  A    between atoms: C_10  and  C_11
REMARK    4  A    between atoms: C_17  and  C_18
REMARK    5  A    between atoms: N_20  and  C_21
REMARK    6  A    between atoms: C_21  and  C_22
REMARK    7  A    between atoms: C_25  and  C_26
REMARK                            x       y       z     vdW  Elec       q    Type
REMARK                         _______ _______ _______ _____ _____    ______ ____
ROOT
ATOM      1  C   UNL     1      39.493  -0.251  10.898  0.00  0.00    +0.000 A 
ATOM      2  N   UNL     1      39.833  -0.079   9.601  0.00  0.00    +0.000 NA
ATOM      3  O   UNL     1      40.553  -1.054   9.205  0.00  0.00    +0.000 OA
ATOM      4  C   UNL     1      40.764  -1.948  10.158  0.00  0.00    +0.000 A 
ATOM      5  C   UNL     1      40.095  -1.461  11.253  0.00  0.00    +0.000 A 
ENDROOT
BRANCH   1   9
ATOM      6  C   UNL     1      36.998   2.309  13.195  0.00  0.00    +0.000 A 
ATOM      7  C   UNL     1      38.320   2.624  12.977  0.00  0.00    +0.000 A 
ATOM      8  C   UNL     1      39.164   1.832  12.243  0.00  0.00    +0.000 A 
ATOM      9  C   UNL     1      38.677   0.672  11.696  0.00  0.00    +0.000 A 
ATOM     10  C   UNL     1      37.355   0.349  11.907  0.00  0.00    +0.000 A 
ATOM     11  C   UNL     1      36.532   1.143  12.636  0.00  0.00    +0.000 A 
BRANCH   6  13
ATOM     12  C   UNL     1      36.589   3.676  15.191  0.00  0.00    +0.000 C 
ATOM     13  O   UNL     1      36.170   3.157  13.957  0.00  0.00    +0.000 OA
ENDBRANCH   6  13
ENDBRANCH   1   9
BRANCH   4  14
ATOM     14  C   UNL     1      41.554  -3.152   9.971  0.00  0.00    +0.000 A 
ATOM     15  C   UNL     1      42.769  -3.398  10.512  0.00  0.00    +0.000 A 
ATOM     16  C   UNL     1      43.428  -4.585  10.246  0.00  0.00    +0.000 A 
ATOM     17  C   UNL     1      42.866  -5.543   9.427  0.00  0.00    +0.000 A 
ATOM     18  C   UNL     1      41.616  -5.316   8.857  0.00  0.00    +0.000 A 
ATOM     19  C   UNL     1      41.005  -4.132   9.149  0.00  0.00    +0.000 A 
ENDBRANCH   4  14
BRANCH   5  20
ATOM     20  C   UNL     1      39.947  -2.060  12.563  0.00  0.00    +0.000 C 
ATOM     21  O   UNL     1      39.296  -3.107  12.721  0.00  0.00    +0.000 OA
ATOM     22  N   UNL     1      40.528  -1.482  13.727  0.00  0.00    +0.000 NA
BRANCH  22  23
ATOM     23  C   UNL     1      40.350  -2.054  14.996  0.00  0.00    +0.000 C 
BRANCH  23  24
ATOM     24  C   UNL     1      39.167  -1.773  15.773  0.00  0.00    +0.000 A 
ATOM     25  C   UNL     1      38.684  -2.437  16.872  0.00  0.00    +0.000 A 
ATOM     26  C   UNL     1      37.499  -2.053  17.513  0.00  0.00    +0.000 A 
ATOM     27  C   UNL     1      36.772  -0.988  17.058  0.00  0.00    +0.000 A 
ATOM     28  C   UNL     1      37.237  -0.301  15.953  0.00  0.00    +0.000 A 
ATOM     29  C   UNL     1      38.392  -0.682  15.337  0.00  0.00    +0.000 A 
BRANCH  27  30
ATOM     30  C   UNL     1      35.494  -0.537  17.689  0.00  0.00    +0.000 C 
ATOM     31  C   UNL     1      35.102   0.782  17.030  0.00  0.00    +0.000 C 
ATOM     32  C   UNL     1      34.365  -1.502  17.417  0.00  0.00    +0.000 C 
ATOM     33  C   UNL     1      35.609  -0.316  19.169  0.00  0.00    +0.000 C 
ENDBRANCH  27  30
ENDBRANCH  23  24
ENDBRANCH  22  23
ENDBRANCH   5  20
TORSDOF 7
ENDMDL
MODEL 10
REMARK VINA RESULT:      -7.1      3.258      8.075
REMARK  Name = 
REMARK  7 active torsions:
REMARK  status: ('A' for Active; 'I' for Inactive)
REMARK    1  A    between atoms: O_2  and  C_3
REMARK    2  A    between atoms: C_6  and  C_7
REMARK    3  A    between atoms: C_10  and  C_11
REMARK    4  A    between atoms: C_17  and  C_18
REMARK    5  A    between atoms: N_20  and  C_21
REMARK    6  A    between atoms: C_21  and  C_22
REMARK    7  A    between atoms: C_25  and  C_26
REMARK                            x       y       z     vdW  Elec       q    Type
REMARK                         _______ _______ _______ _____ _____    ______ ____
ROOT
ATOM      1  C   UNL     1      35.587   1.260  15.915  0.00  0.00    +0.000 A 
ATOM      2  N   UNL     1      34.739   0.914  16.909  0.00  0.00    +0.000 NA
ATOM      3  O   UNL     1      34.700  -0.356  17.028  0.00  0.00    +0.000 OA
ATOM      4  C   UNL     1      35.488  -0.970  16.160  0.00  0.00    +0.000 A 
ATOM      5  C   UNL     1      36.071   0.040  15.436  0.00  0.00    +0.000 A 
ENDROOT
BRANCH   1   9
ATOM      6  C   UNL     1      36.587   5.225  14.761  0.00  0.00    +0.000 A 
ATOM      7  C   UNL     1      35.464   4.607  14.258  0.00  0.00    +0.000 A 
ATOM      8  C   UNL     1      35.099   3.331  14.602  0.00  0.00    +0.000 A 
ATOM      9  C   UNL     1      35.882   2.632  15.485  0.00  0.00    +0.000 A 
ATOM     10  C   UNL     1      37.007   3.242  15.994  0.00  0.00    +0.000 A 
ATOM     11  C   UNL     1      37.354   4.506  15.645  0.00  0.00    +0.000 A 
BRANCH   6  13
ATOM     12  C   UNL     1      35.950   7.553  14.318  0.00  0.00    +0.000 C 
ATOM     13  O   UNL     1      36.919   6.540  14.378  0.00  0.00    +0.000 OA
ENDBRANCH   6  13
ENDBRANCH   1   9
BRANCH   4  14
ATOM     14  C   UNL     1      35.627  -2.414  16.080  0.00  0.00    +0.000 A 
ATOM     15  C   UNL     1      34.766  -3.263  15.476  0.00  0.00    +0.000 A 
ATOM     16  C   UNL     1      35.006  -4.626  15.480  0.00  0.00    +0.000 A 
ATOM     17  C   UNL     1      36.123  -5.149  16.097  0.00  0.00    +0.000 A 
ATOM     18  C   UNL     1      37.027  -4.298  16.726  0.00  0.00    +0.000 A 
ATOM     19  C   UNL     1      36.749  -2.963  16.695  0.00  0.00    +0.000 A 
ENDBRANCH   4  14
BRANCH   5  20
ATOM     20  C   UNL     1      37.060  -0.056  14.381  0.00  0.00    +0.000 C 
ATOM     21  O   UNL     1      36.731   0.016  13.185  0.00  0.00    +0.000 OA
ATOM     22  N   UNL     1      38.442  -0.245  14.658  0.00  0.00    +0.000 NA
BRANCH  22  23
ATOM     23  C   UNL     1      39.386  -0.370  13.628  0.00  0.00    +0.000 C 
BRANCH  23  24
ATOM     24  C   UNL     1      40.768  -0.661  13.923  0.00  0.00    +0.000 A 
ATOM     25  C   UNL     1      41.326  -1.843  14.341  0.00  0.00    +0.000 A 
ATOM     26  C   UNL     1      42.696  -1.965  14.609  0.00  0.00    +0.000 A 
ATOM     27  C   UNL     1      43.535  -0.895  14.463  0.00  0.00    +0.000 A 
ATOM     28  C   UNL     1      42.998   0.305  14.042  0.00  0.00    +0.000 A 
ATOM     29  C   UNL     1      41.664   0.415  13.783  0.00  0.00    +0.000 A 
BRANCH  27  30
ATOM     30  C   UNL     1      45.002  -0.959  14.746  0.00  0.00    +0.000 C 
ATOM     31  C   UNL     1      45.239  -0.245  16.073  0.00  0.00    +0.000 C 
ATOM     32  C   UNL     1      45.473  -2.381  14.936  0.00  0.00    +0.000 C 
ATOM     33  C   UNL     1      45.839  -0.297  13.691  0.00  0.00    +0.000 C 
ENDBRANCH  27  30
ENDBRANCH  23  24
ENDBRANCH  22  23
ENDBRANCH   5  20
TORSDOF 7
ENDMDL
