MODEL 1
REMARK VINA RESULT:      -8.3      0.000      0.000
REMARK  Name = 
REMARK  8 active torsions:
REMARK  status: ('A' for Active; 'I' for Inactive)
REMARK    1  A    between atoms: C_2  and  C_3
REMARK    2  A    between atoms: C_6  and  C_7
REMARK    3  A    between atoms: C_7  and  C_8
REMARK    4  A    between atoms: C_7  and  N_11
REMARK    5  A    between atoms: C_8  and  C_9
REMARK    6  A    between atoms: C_12  and  O_14
REMARK    7  A    between atoms: O_14  and  C_15
REMARK    8  A    between atoms: C_15  and  C_16
REMARK                            x       y       z     vdW  Elec       q    Type
REMARK                         _______ _______ _______ _____ _____    ______ ____
ROOT
ATOM      1  N   UNL     1      38.317   3.939  17.133  0.00  0.00    +0.000 NA
ATOM      2  C   UNL     1      37.131   3.321  16.691  0.00  0.00    +0.000 C 
ATOM      3  O   UNL     1      36.410   3.935  15.860  0.00  0.00    +0.000 OA
ENDROOT
BRANCH   1   4
ATOM      4  C   UNL     1      38.591   5.375  16.501  0.00  0.00    +0.000 C 
BRANCH   4   8
ATOM      5  C   UNL     1      41.414   6.691  19.518  0.00  0.00    +0.000 A 
ATOM      6  C   UNL     1      41.823   6.544  18.209  0.00  0.00    +0.000 A 
ATOM      7  C   UNL     1      40.922   6.127  17.262  0.00  0.00    +0.000 A 
ATOM      8  C   UNL     1      39.685   5.868  17.585  0.00  0.00    +0.000 A 
ATOM      9  C   UNL     1      39.205   5.991  18.865  0.00  0.00    +0.000 A 
ATOM     10  C   UNL     1      40.092   6.409  19.833  0.00  0.00    +0.000 A 
BRANCH   5  12
ATOM     11  C   UNL     1      43.019   5.898  21.130  0.00  0.00    +0.000 C 
ATOM     12  C   UNL     1      42.360   7.142  20.577  0.00  0.00    +0.000 C 
ENDBRANCH   5  12
ENDBRANCH   4   8
BRANCH   4  13
ATOM     13  C   UNL     1      39.718   4.852  15.411  0.00  0.00    +0.000 C 
BRANCH  13  14
ATOM     14  C   UNL     1      39.182   5.061  14.055  0.00  0.00    +0.000 C 
ATOM     15  O   UNL     1      38.831   3.845  13.539  0.00  0.00    +0.000 OA
ENDBRANCH  13  14
ENDBRANCH   4  13
ENDBRANCH   1   4
BRANCH   2  16
ATOM     16  O   UNL     1      36.678   2.082  17.092  0.00  0.00    +0.000 OA
BRANCH  16  17
ATOM     17  C   UNL     1      35.343   1.631  16.939  0.00  0.00    +0.000 C 
BRANCH  17  18
ATOM     18  C   UNL     1      35.453   0.200  16.399  0.00  0.00    +0.000 C 
ATOM     19  C   UNL     1      36.225   0.216  15.127  0.00  0.00    +0.000 A 
ATOM     20  C   UNL     1      35.959   0.817  13.917  0.00  0.00    +0.000 A 
ATOM     21  C   UNL     1      36.808   0.718  12.833  0.00  0.00    +0.000 A 
ATOM     22  C   UNL     1      37.953  -0.011  12.989  0.00  0.00    +0.000 A 
ATOM     23  C   UNL     1      38.225  -0.618  14.205  0.00  0.00    +0.000 A 
ATOM     24  C   UNL     1      37.380  -0.523  15.293  0.00  0.00    +0.000 A 
ATOM     25  C   UNL     1      37.424  -1.049  16.652  0.00  0.00    +0.000 A 
ATOM     26  C   UNL     1      38.343  -1.835  17.323  0.00  0.00    +0.000 A 
ATOM     27  C   UNL     1      38.151  -2.207  18.640  0.00  0.00    +0.000 A 
ATOM     28  C   UNL     1      37.030  -1.790  19.292  0.00  0.00    +0.000 A 
ATOM     29  C   UNL     1      36.103  -1.002  18.630  0.00  0.00    +0.000 A 
ATOM     30  C   UNL     1      36.293  -0.632  17.322  0.00  0.00    +0.000 A 
ENDBRANCH  17  18
ENDBRANCH  16  17
ENDBRANCH   2  16
TORSDOF 8
ENDMDL
MODEL 2
REMARK VINA RESULT:      -8.3      1.437      3.652
REMARK  Name = 
REMARK  8 active torsions:
REMARK  status: ('A' for Active; 'I' for Inactive)
REMARK    1  A    between atoms: C_2  and  C_3
REMARK    2  A    between atoms: C_6  and  C_7
REMARK    3  A    between atoms: C_7  and  C_8
REMARK    4  A    between atoms: C_7  and  N_11
REMARK    5  A    between atoms: C_8  and  C_9
REMARK    6  A    between atoms: C_12  and  O_14
REMARK    7  A    between atoms: O_14  and  C_15
REMARK    8  A    between atoms: C_15  and  C_16
REMARK                            x       y       z     vdW  Elec       q    Type
REMARK                         _______ _______ _______ _____ _____    ______ ____
ROOT
ATOM      1  N   UNL     1      36.876   2.649  16.680  0.00  0.00    +0.000 NA
ATOM      2  C   UNL     1      35.579   2.101  16.697  0.00  0.00    +0.000 C 
ATOM      3  O   UNL     1      34.682   2.665  16.017  0.00  0.00    +0.000 OA
ENDROOT
BRANCH   1   4
ATOM      4  C   UNL     1      37.034   3.948  15.772  0.00  0.00    +0.000 C 
BRANCH   4   8
ATOM      5  C   UNL     1      40.258   5.881  17.934  0.00  0.00    +0.000 A 
ATOM      6  C   UNL     1      39.250   5.242  18.625  0.00  0.00    +0.000 A 
ATOM      7  C   UNL     1      38.235   4.633  17.932  0.00  0.00    +0.000 A 
ATOM      8  C   UNL     1      38.212   4.653  16.628  0.00  0.00    +0.000 A 
ATOM      9  C   UNL     1      39.178   5.268  15.871  0.00  0.00    +0.000 A 
ATOM     10  C   UNL     1      40.208   5.886  16.547  0.00  0.00    +0.000 A 
BRANCH   5  12
ATOM     11  C   UNL     1      41.066   6.469  20.126  0.00  0.00    +0.000 C 
ATOM     12  C   UNL     1      41.379   6.554  18.648  0.00  0.00    +0.000 C 
ENDBRANCH   5  12
ENDBRANCH   4   8
BRANCH   4  13
ATOM     13  C   UNL     1      38.065   3.253  14.684  0.00  0.00    +0.000 C 
BRANCH  13  14
ATOM     14  C   UNL     1      37.381   3.178  13.381  0.00  0.00    +0.000 C 
ATOM     15  O   UNL     1      36.316   4.035  13.404  0.00  0.00    +0.000 OA
ENDBRANCH  13  14
ENDBRANCH   4  13
ENDBRANCH   1   4
BRANCH   2  16
ATOM     16  O   UNL     1      35.194   0.982  17.406  0.00  0.00    +0.000 OA
BRANCH  16  17
ATOM     17  C   UNL     1      35.482  -0.350  17.014  0.00  0.00    +0.000 C 
BRANCH  17  18
ATOM     18  C   UNL     1      37.010  -0.424  16.902  0.00  0.00    +0.000 C 
ATOM     19  C   UNL     1      37.517  -1.467  17.834  0.00  0.00    +0.000 A 
ATOM     20  C   UNL     1      37.458  -1.557  19.207  0.00  0.00    +0.000 A 
ATOM     21  C   UNL     1      37.994  -2.620  19.907  0.00  0.00    +0.000 A 
ATOM     22  C   UNL     1      38.604  -3.609  19.190  0.00  0.00    +0.000 A 
ATOM     23  C   UNL     1      38.666  -3.523  17.809  0.00  0.00    +0.000 A 
ATOM     24  C   UNL     1      38.132  -2.464  17.102  0.00  0.00    +0.000 A 
ATOM     25  C   UNL     1      38.060  -2.133  15.683  0.00  0.00    +0.000 A 
ATOM     26  C   UNL     1      38.511  -2.778  14.547  0.00  0.00    +0.000 A 
ATOM     27  C   UNL     1      38.314  -2.246  13.287  0.00  0.00    +0.000 A 
ATOM     28  C   UNL     1      37.661  -1.057  13.162  0.00  0.00    +0.000 A 
ATOM     29  C   UNL     1      37.205  -0.402  14.293  0.00  0.00    +0.000 A 
ATOM     30  C   UNL     1      37.399  -0.930  15.545  0.00  0.00    +0.000 A 
ENDBRANCH  17  18
ENDBRANCH  16  17
ENDBRANCH   2  16
TORSDOF 8
ENDMDL
MODEL 3
REMARK VINA RESULT:      -8.1      1.318      2.069
REMARK  Name = 
REMARK  8 active torsions:
REMARK  status: ('A' for Active; 'I' for Inactive)
REMARK    1  A    between atoms: C_2  and  C_3
REMARK    2  A    between atoms: C_6  and  C_7
REMARK    3  A    between atoms: C_7  and  C_8
REMARK    4  A    between atoms: C_7  and  N_11
REMARK    5  A    between atoms: C_8  and  C_9
REMARK    6  A    between atoms: C_12  and  O_14
REMARK    7  A    between atoms: O_14  and  C_15
REMARK    8  A    between atoms: C_15  and  C_16
REMARK                            x       y       z     vdW  Elec       q    Type
REMARK                         _______ _______ _______ _____ _____    ______ ____
ROOT
ATOM      1  N   UNL     1      38.552   3.869  16.225  0.00  0.00    +0.000 NA
ATOM      2  C   UNL     1      37.521   2.923  16.069  0.00  0.00    +0.000 C 
ATOM      3  O   UNL     1      36.340   3.276  16.330  0.00  0.00    +0.000 OA
ENDROOT
BRANCH   1   4
ATOM      4  C   UNL     1      38.067   5.301  16.727  0.00  0.00    +0.000 C 
BRANCH   4   8
ATOM      5  C   UNL     1      41.649   6.418  18.900  0.00  0.00    +0.000 A 
ATOM      6  C   UNL     1      41.669   6.358  17.522  0.00  0.00    +0.000 A 
ATOM      7  C   UNL     1      40.530   6.005  16.845  0.00  0.00    +0.000 A 
ATOM      8  C   UNL     1      39.431   5.723  17.487  0.00  0.00    +0.000 A 
ATOM      9  C   UNL     1      39.334   5.760  18.856  0.00  0.00    +0.000 A 
ATOM     10  C   UNL     1      40.465   6.113  19.558  0.00  0.00    +0.000 A 
BRANCH   5  12
ATOM     11  C   UNL     1      42.760   6.103  21.015  0.00  0.00    +0.000 C 
ATOM     12  C   UNL     1      42.864   6.798  19.675  0.00  0.00    +0.000 C 
ENDBRANCH   5  12
ENDBRANCH   4   8
BRANCH   4  13
ATOM     13  C   UNL     1      38.449   6.094  15.329  0.00  0.00    +0.000 C 
BRANCH  13  14
ATOM     14  C   UNL     1      37.271   6.867  14.899  0.00  0.00    +0.000 C 
ATOM     15  O   UNL     1      36.299   5.988  14.509  0.00  0.00    +0.000 OA
ENDBRANCH  13  14
ENDBRANCH   4  13
ENDBRANCH   1   4
BRANCH   2  16
ATOM     16  O   UNL     1      37.689   1.621  15.647  0.00  0.00    +0.000 OA
BRANCH  16  17
ATOM     17  C   UNL     1      37.013   1.045  14.543  0.00  0.00    +0.000 C 
BRANCH  17  18
ATOM     18  C   UNL     1      36.774  -0.421  14.926  0.00  0.00    +0.000 C 
ATOM     19  C   UNL     1      38.043  -1.180  14.768  0.00  0.00    +0.000 A 
ATOM     20  C   UNL     1      38.809  -1.436  13.652  0.00  0.00    +0.000 A 
ATOM     21  C   UNL     1      39.976  -2.173  13.702  0.00  0.00    +0.000 A 
ATOM     22  C   UNL     1      40.368  -2.658  14.917  0.00  0.00    +0.000 A 
ATOM     23  C   UNL     1      39.600  -2.404  16.042  0.00  0.00    +0.000 A 
ATOM     24  C   UNL     1      38.433  -1.668  16.000  0.00  0.00    +0.000 A 
ATOM     25  C   UNL     1      37.460  -1.262  17.007  0.00  0.00    +0.000 A 
ATOM     26  C   UNL     1      37.377  -1.480  18.370  0.00  0.00    +0.000 A 
ATOM     27  C   UNL     1      36.330  -0.977  19.120  0.00  0.00    +0.000 A 
ATOM     28  C   UNL     1      35.359  -0.249  18.502  0.00  0.00    +0.000 A 
ATOM     29  C   UNL     1      35.434  -0.023  17.138  0.00  0.00    +0.000 A 
ATOM     30  C   UNL     1      36.472  -0.522  16.392  0.00  0.00    +0.000 A 
ENDBRANCH  17  18
ENDBRANCH  16  17
ENDBRANCH   2  16
TORSDOF 8
ENDMDL
MODEL 4
REMARK VINA RESULT:      -8.1      2.082      2.840
REMARK  Name = 
REMARK  8 active torsions:
REMARK  status: ('A' for Active; 'I' for Inactive)
REMARK    1  A    between atoms: C_2  and  C_3
REMARK    2  A    between atoms: C_6  and  C_7
REMARK    3  A    between atoms: C_7  and  C_8
REMARK    4  A    between atoms: C_7  and  N_11
REMARK    5  A    between atoms: C_8  and  C_9
REMARK    6  A    between atoms: C_12  and  O_14
REMARK    7  A    between atoms: O_14  and  C_15
REMARK    8  A    between atoms: C_15  and  C_16
REMARK                            x       y       z     vdW  Elec       q    Type
REMARK                         _______ _______ _______ _____ _____    ______ ____
ROOT
ATOM      1  N   UNL     1      37.300   2.546  16.625  0.00  0.00    +0.000 NA
ATOM      2  C   UNL     1      36.064   1.876  16.697  0.00  0.00    +0.000 C 
ATOM      3  O   UNL     1      35.060   2.412  16.157  0.00  0.00    +0.000 OA
ENDROOT
BRANCH   1   4
ATOM      4  C   UNL     1      37.257   3.933  15.844  0.00  0.00    +0.000 C 
BRANCH   4   8
ATOM      5  C   UNL     1      40.381   5.993  18.036  0.00  0.00    +0.000 A 
ATOM      6  C   UNL     1      39.329   5.414  18.715  0.00  0.00    +0.000 A 
ATOM      7  C   UNL     1      38.347   4.765  18.012  0.00  0.00    +0.000 A 
ATOM      8  C   UNL     1      38.395   4.689  16.711  0.00  0.00    +0.000 A 
ATOM      9  C   UNL     1      39.408   5.240  15.966  0.00  0.00    +0.000 A 
ATOM     10  C   UNL     1      40.407   5.897  16.651  0.00  0.00    +0.000 A 
BRANCH   5  12
ATOM     11  C   UNL     1      41.273   6.421  20.232  0.00  0.00    +0.000 C 
ATOM     12  C   UNL     1      41.470   6.707  18.760  0.00  0.00    +0.000 C 
ENDBRANCH   5  12
ENDBRANCH   4   8
BRANCH   4  13
ATOM     13  C   UNL     1      38.296   3.471  14.646  0.00  0.00    +0.000 C 
BRANCH  13  14
ATOM     14  C   UNL     1      37.577   3.533  13.362  0.00  0.00    +0.000 C 
ATOM     15  O   UNL     1      36.742   2.453  13.284  0.00  0.00    +0.000 OA
ENDBRANCH  13  14
ENDBRANCH   4  13
ENDBRANCH   1   4
BRANCH   2  16
ATOM     16  O   UNL     1      35.847   0.663  17.317  0.00  0.00    +0.000 OA
BRANCH  16  17
ATOM     17  C   UNL     1      36.679  -0.475  17.160  0.00  0.00    +0.000 C 
BRANCH  17  18
ATOM     18  C   UNL     1      36.606  -0.833  15.671  0.00  0.00    +0.000 C 
ATOM     19  C   UNL     1      37.987  -0.976  15.136  0.00  0.00    +0.000 A 
ATOM     20  C   UNL     1      39.012  -0.063  15.025  0.00  0.00    +0.000 A 
ATOM     21  C   UNL     1      40.244  -0.386  14.493  0.00  0.00    +0.000 A 
ATOM     22  C   UNL     1      40.433  -1.669  14.065  0.00  0.00    +0.000 A 
ATOM     23  C   UNL     1      39.405  -2.592  14.174  0.00  0.00    +0.000 A 
ATOM     24  C   UNL     1      38.171  -2.276  14.705  0.00  0.00    +0.000 A 
ATOM     25  C   UNL     1      36.946  -3.035  14.931  0.00  0.00    +0.000 A 
ATOM     26  C   UNL     1      36.601  -4.351  14.686  0.00  0.00    +0.000 A 
ATOM     27  C   UNL     1      35.347  -4.840  14.998  0.00  0.00    +0.000 A 
ATOM     28  C   UNL     1      34.430  -4.006  15.561  0.00  0.00    +0.000 A 
ATOM     29  C   UNL     1      34.765  -2.686  15.812  0.00  0.00    +0.000 A 
ATOM     30  C   UNL     1      36.009  -2.199  15.502  0.00  0.00    +0.000 A 
ENDBRANCH  17  18
ENDBRANCH  16  17
ENDBRANCH   2  16
TORSDOF 8
ENDMDL
MODEL 5
REMARK VINA RESULT:      -8.0      2.218      8.973
REMARK  Name = 
REMARK  8 active torsions:
REMARK  status: ('A' for Active; 'I' for Inactive)
REMARK    1  A    between atoms: C_2  and  C_3
REMARK    2  A    between atoms: C_6  and  C_7
REMARK    3  A    between atoms: C_7  and  C_8
REMARK    4  A    between atoms: C_7  and  N_11
REMARK    5  A    between atoms: C_8  and  C_9
REMARK    6  A    between atoms: C_12  and  O_14
REMARK    7  A    between atoms: O_14  and  C_15
REMARK    8  A    between atoms: C_15  and  C_16
REMARK                            x       y       z     vdW  Elec       q    Type
REMARK                         _______ _______ _______ _____ _____    ______ ____
ROOT
ATOM      1  N   UNL     1      37.098   3.304  16.880  0.00  0.00    +0.000 NA
ATOM      2  C   UNL     1      38.192   4.183  16.987  0.00  0.00    +0.000 C 
ATOM      3  O   UNL     1      38.843   4.460  15.945  0.00  0.00    +0.000 OA
ENDROOT
BRANCH   1   4
ATOM      4  C   UNL     1      36.824   2.765  15.406  0.00  0.00    +0.000 C 
BRANCH   4   8
ATOM      5  C   UNL     1      35.214  -1.131  16.423  0.00  0.00    +0.000 A 
ATOM      6  C   UNL     1      34.815  -0.015  17.128  0.00  0.00    +0.000 A 
ATOM      7  C   UNL     1      35.330   1.213  16.798  0.00  0.00    +0.000 A 
ATOM      8  C   UNL     1      36.192   1.336  15.827  0.00  0.00    +0.000 A 
ATOM      9  C   UNL     1      36.637   0.273  15.081  0.00  0.00    +0.000 A 
ATOM     10  C   UNL     1      36.133  -0.970  15.395  0.00  0.00    +0.000 A 
BRANCH   5  12
ATOM     11  C   UNL     1      34.876  -3.337  15.515  0.00  0.00    +0.000 C 
ATOM     12  C   UNL     1      34.679  -2.484  16.748  0.00  0.00    +0.000 C 
ENDBRANCH   5  12
ENDBRANCH   4   8
BRANCH   4  13
ATOM     13  C   UNL     1      35.359   3.508  15.237  0.00  0.00    +0.000 C 
BRANCH  13  14
ATOM     14  C   UNL     1      35.481   4.541  14.194  0.00  0.00    +0.000 C 
ATOM     15  O   UNL     1      36.522   4.203  13.374  0.00  0.00    +0.000 OA
ENDBRANCH  13  14
ENDBRANCH   4  13
ENDBRANCH   1   4
BRANCH   2  16
ATOM     16  O   UNL     1      38.626   4.781  18.153  0.00  0.00    +0.000 OA
BRANCH  16  17
ATOM     17  C   UNL     1      39.686   5.719  18.224  0.00  0.00    +0.000 C 
BRANCH  17  18
ATOM     18  C   UNL     1      39.505   6.442  19.564  0.00  0.00    +0.000 C 
ATOM     19  C   UNL     1      40.838   6.863  20.075  0.00  0.00    +0.000 A 
ATOM     20  C   UNL     1      41.938   6.122  20.446  0.00  0.00    +0.000 A 
ATOM     21  C   UNL     1      43.106   6.700  20.903  0.00  0.00    +0.000 A 
ATOM     22  C   UNL     1      43.150   8.062  20.983  0.00  0.00    +0.000 A 
ATOM     23  C   UNL     1      42.046   8.812  20.611  0.00  0.00    +0.000 A 
ATOM     24  C   UNL     1      40.875   8.241  20.152  0.00  0.00    +0.000 A 
ATOM     25  C   UNL     1      39.597   8.783  19.706  0.00  0.00    +0.000 A 
ATOM     26  C   UNL     1      39.117  10.074  19.588  0.00  0.00    +0.000 A 
ATOM     27  C   UNL     1      37.839  10.331  19.129  0.00  0.00    +0.000 A 
ATOM     28  C   UNL     1      37.034   9.288  18.784  0.00  0.00    +0.000 A 
ATOM     29  C   UNL     1      37.505   7.991  18.897  0.00  0.00    +0.000 A 
ATOM     30  C   UNL     1      38.774   7.734  19.353  0.00  0.00    +0.000 A 
ENDBRANCH  17  18
ENDBRANCH  16  17
ENDBRANCH   2  16
TORSDOF 8
ENDMDL
MODEL 6
REMARK VINA RESULT:      -7.8      1.731      3.217
REMARK  Name = 
REMARK  8 active torsions:
REMARK  status: ('A' for Active; 'I' for Inactive)
REMARK    1  A    between atoms: C_2  and  C_3
REMARK    2  A    between atoms: C_6  and  C_7
REMARK    3  A    between atoms: C_7  and  C_8
REMARK    4  A    between atoms: C_7  and  N_11
REMARK    5  A    between atoms: C_8  and  C_9
REMARK    6  A    between atoms: C_12  and  O_14
REMARK    7  A    between atoms: O_14  and  C_15
REMARK    8  A    between atoms: C_15  and  C_16
REMARK                            x       y       z     vdW  Elec       q    Type
REMARK                         _______ _______ _______ _____ _____    ______ ____
ROOT
ATOM      1  N   UNL     1      38.766   4.688  16.121  0.00  0.00    +0.000 NA
ATOM      2  C   UNL     1      38.085   3.456  16.154  0.00  0.00    +0.000 C 
ATOM      3  O   UNL     1      37.148   3.311  16.983  0.00  0.00    +0.000 OA
ENDROOT
BRANCH   1   4
ATOM      4  C   UNL     1      38.238   5.764  17.171  0.00  0.00    +0.000 C 
BRANCH   4   8
ATOM      5  C   UNL     1      41.962   6.522  19.260  0.00  0.00    +0.000 A 
ATOM      6  C   UNL     1      41.947   6.442  17.883  0.00  0.00    +0.000 A 
ATOM      7  C   UNL     1      40.764   6.203  17.232  0.00  0.00    +0.000 A 
ATOM      8  C   UNL     1      39.654   6.048  17.899  0.00  0.00    +0.000 A 
ATOM      9  C   UNL     1      39.589   6.114  19.269  0.00  0.00    +0.000 A 
ATOM     10  C   UNL     1      40.765   6.354  19.944  0.00  0.00    +0.000 A 
BRANCH   5  12
ATOM     11  C   UNL     1      43.153   5.965  21.278  0.00  0.00    +0.000 C 
ATOM     12  C   UNL     1      43.225   6.781  20.007  0.00  0.00    +0.000 C 
ENDBRANCH   5  12
ENDBRANCH   4   8
BRANCH   4  13
ATOM     13  C   UNL     1      38.360   7.054  16.146  0.00  0.00    +0.000 C 
BRANCH  13  14
ATOM     14  C   UNL     1      37.262   6.973  15.168  0.00  0.00    +0.000 C 
ATOM     15  O   UNL     1      36.760   8.231  14.979  0.00  0.00    +0.000 OA
ENDBRANCH  13  14
ENDBRANCH   4  13
ENDBRANCH   1   4
BRANCH   2  16
ATOM     16  O   UNL     1      38.356   2.371  15.346  0.00  0.00    +0.000 OA
BRANCH  16  17
ATOM     17  C   UNL     1      37.387   1.428  14.922  0.00  0.00    +0.000 C 
BRANCH  17  18
ATOM     18  C   UNL     1      37.775   0.109  15.600  0.00  0.00    +0.000 C 
ATOM     19  C   UNL     1      36.545  -0.561  16.103  0.00  0.00    +0.000 A 
ATOM     20  C   UNL     1      35.624  -0.166  17.048  0.00  0.00    +0.000 A 
ATOM     21  C   UNL     1      34.528  -0.935  17.388  0.00  0.00    +0.000 A 
ATOM     22  C   UNL     1      34.370  -2.132  16.748  0.00  0.00    +0.000 A 
ATOM     23  C   UNL     1      35.294  -2.533  15.797  0.00  0.00    +0.000 A 
ATOM     24  C   UNL     1      36.392  -1.770  15.453  0.00  0.00    +0.000 A 
ATOM     25  C   UNL     1      37.490  -1.950  14.510  0.00  0.00    +0.000 A 
ATOM     26  C   UNL     1      37.808  -2.965  13.626  0.00  0.00    +0.000 A 
ATOM     27  C   UNL     1      38.930  -2.898  12.822  0.00  0.00    +0.000 A 
ATOM     28  C   UNL     1      39.741  -1.806  12.902  0.00  0.00    +0.000 A 
ATOM     29  C   UNL     1      39.431  -0.784  13.783  0.00  0.00    +0.000 A 
ATOM     30  C   UNL     1      38.318  -0.850  14.582  0.00  0.00    +0.000 A 
ENDBRANCH  17  18
ENDBRANCH  16  17
ENDBRANCH   2  16
TORSDOF 8
ENDMDL
MODEL 7
REMARK VINA RESULT:      -7.8      4.086      5.887
REMARK  Name = 
REMARK  8 active torsions:
REMARK  status: ('A' for Active; 'I' for Inactive)
REMARK    1  A    between atoms: C_2  and  C_3
REMARK    2  A    between atoms: C_6  and  C_7
REMARK    3  A    between atoms: C_7  and  C_8
REMARK    4  A    between atoms: C_7  and  N_11
REMARK    5  A    between atoms: C_8  and  C_9
REMARK    6  A    between atoms: C_12  and  O_14
REMARK    7  A    between atoms: O_14  and  C_15
REMARK    8  A    between atoms: C_15  and  C_16
REMARK                            x       y       z     vdW  Elec       q    Type
REMARK                         _______ _______ _______ _____ _____    ______ ____
ROOT
ATOM      1  N   UNL     1      35.527   1.229  15.502  0.00  0.00    +0.000 NA
ATOM      2  C   UNL     1      35.450   0.676  16.795  0.00  0.00    +0.000 C 
ATOM      3  O   UNL     1      36.312   1.021  17.645  0.00  0.00    +0.000 OA
ENDROOT
BRANCH   1   4
ATOM      4  C   UNL     1      36.732   2.247  15.287  0.00  0.00    +0.000 C 
BRANCH   4   8
ATOM      5  C   UNL     1      39.468  -0.681  13.629  0.00  0.00    +0.000 A 
ATOM      6  C   UNL     1      39.939   0.305  14.470  0.00  0.00    +0.000 A 
ATOM      7  C   UNL     1      39.066   1.226  14.989  0.00  0.00    +0.000 A 
ATOM      8  C   UNL     1      37.796   1.181  14.697  0.00  0.00    +0.000 A 
ATOM      9  C   UNL     1      37.252   0.231  13.868  0.00  0.00    +0.000 A 
ATOM     10  C   UNL     1      38.111  -0.705  13.335  0.00  0.00    +0.000 A 
BRANCH   5  12
ATOM     11  C   UNL     1      41.326  -2.123  14.147  0.00  0.00    +0.000 C 
ATOM     12  C   UNL     1      40.382  -1.701  13.043  0.00  0.00    +0.000 C 
ENDBRANCH   5  12
ENDBRANCH   4   8
BRANCH   4  13
ATOM     13  C   UNL     1      36.234   2.767  13.800  0.00  0.00    +0.000 C 
BRANCH  13  14
ATOM     14  C   UNL     1      36.698   4.153  13.616  0.00  0.00    +0.000 C 
ATOM     15  O   UNL     1      35.601   4.962  13.499  0.00  0.00    +0.000 OA
ENDBRANCH  13  14
ENDBRANCH   4  13
ENDBRANCH   1   4
BRANCH   2  16
ATOM     16  O   UNL     1      34.498  -0.226  17.223  0.00  0.00    +0.000 OA
BRANCH  16  17
ATOM     17  C   UNL     1      34.753  -1.598  17.473  0.00  0.00    +0.000 C 
BRANCH  17  18
ATOM     18  C   UNL     1      35.358  -2.146  16.175  0.00  0.00    +0.000 C 
ATOM     19  C   UNL     1      36.771  -2.540  16.423  0.00  0.00    +0.000 A 
ATOM     20  C   UNL     1      37.864  -1.792  16.799  0.00  0.00    +0.000 A 
ATOM     21  C   UNL     1      39.116  -2.343  16.984  0.00  0.00    +0.000 A 
ATOM     22  C   UNL     1      39.254  -3.687  16.781  0.00  0.00    +0.000 A 
ATOM     23  C   UNL     1      38.157  -4.444  16.402  0.00  0.00    +0.000 A 
ATOM     24  C   UNL     1      36.902  -3.899  16.216  0.00  0.00    +0.000 A 
ATOM     25  C   UNL     1      35.610  -4.454  15.829  0.00  0.00    +0.000 A 
ATOM     26  C   UNL     1      35.197  -5.735  15.513  0.00  0.00    +0.000 A 
ATOM     27  C   UNL     1      33.886  -6.009  15.172  0.00  0.00    +0.000 A 
ATOM     28  C   UNL     1      32.980  -4.993  15.146  0.00  0.00    +0.000 A 
ATOM     29  C   UNL     1      33.382  -3.705  15.461  0.00  0.00    +0.000 A 
ATOM     30  C   UNL     1      34.683  -3.433  15.800  0.00  0.00    +0.000 A 
ENDBRANCH  17  18
ENDBRANCH  16  17
ENDBRANCH   2  16
TORSDOF 8
ENDMDL
MODEL 8
REMARK VINA RESULT:      -7.7      2.666      7.085
REMARK  Name = 
REMARK  8 active torsions:
REMARK  status: ('A' for Active; 'I' for Inactive)
REMARK    1  A    between atoms: C_2  and  C_3
REMARK    2  A    between atoms: C_6  and  C_7
REMARK    3  A    between atoms: C_7  and  C_8
REMARK    4  A    between atoms: C_7  and  N_11
REMARK    5  A    between atoms: C_8  and  C_9
REMARK    6  A    between atoms: C_12  and  O_14
REMARK    7  A    between atoms: O_14  and  C_15
REMARK    8  A    between atoms: C_15  and  C_16
REMARK                            x       y       z     vdW  Elec       q    Type
REMARK                         _______ _______ _______ _____ _____    ______ ____
ROOT
ATOM      1  N   UNL     1      36.835  -0.597  17.401  0.00  0.00    +0.000 NA
ATOM      2  C   UNL     1      35.538  -0.201  17.021  0.00  0.00    +0.000 C 
ATOM      3  O   UNL     1      34.761  -1.073  16.549  0.00  0.00    +0.000 OA
ENDROOT
BRANCH   1   4
ATOM      4  C   UNL     1      37.150  -2.141  17.174  0.00  0.00    +0.000 C 
BRANCH   4   8
ATOM      5  C   UNL     1      39.395  -1.607  13.503  0.00  0.00    +0.000 A 
ATOM      6  C   UNL     1      38.357  -2.514  13.551  0.00  0.00    +0.000 A 
ATOM      7  C   UNL     1      37.653  -2.675  14.717  0.00  0.00    +0.000 A 
ATOM      8  C   UNL     1      37.954  -1.982  15.780  0.00  0.00    +0.000 A 
ATOM      9  C   UNL     1      38.972  -1.062  15.810  0.00  0.00    +0.000 A 
ATOM     10  C   UNL     1      39.693  -0.884  14.650  0.00  0.00    +0.000 A 
BRANCH   5  12
ATOM     11  C   UNL     1      39.793  -2.509  11.305  0.00  0.00    +0.000 C 
ATOM     12  C   UNL     1      40.185  -1.401  12.257  0.00  0.00    +0.000 C 
ENDBRANCH   5  12
ENDBRANCH   4   8
BRANCH   4  13
ATOM     13  C   UNL     1      38.513  -2.161  18.107  0.00  0.00    +0.000 C 
BRANCH  13  14
ATOM     14  C   UNL     1      38.584  -3.462  18.795  0.00  0.00    +0.000 C 
ATOM     15  O   UNL     1      38.964  -4.410  17.886  0.00  0.00    +0.000 OA
ENDBRANCH  13  14
ENDBRANCH   4  13
ENDBRANCH   1   4
BRANCH   2  16
ATOM     16  O   UNL     1      35.032   1.078  17.121  0.00  0.00    +0.000 OA
BRANCH  16  17
ATOM     17  C   UNL     1      35.363   2.139  16.242  0.00  0.00    +0.000 C 
BRANCH  17  18
ATOM     18  C   UNL     1      36.843   1.938  15.895  0.00  0.00    +0.000 C 
ATOM     19  C   UNL     1      36.975   1.721  14.429  0.00  0.00    +0.000 A 
ATOM     20  C   UNL     1      36.489   0.720  13.617  0.00  0.00    +0.000 A 
ATOM     21  C   UNL     1      36.720   0.687  12.256  0.00  0.00    +0.000 A 
ATOM     22  C   UNL     1      37.462   1.697  11.714  0.00  0.00    +0.000 A 
ATOM     23  C   UNL     1      37.954   2.706  12.527  0.00  0.00    +0.000 A 
ATOM     24  C   UNL     1      37.727   2.745  13.888  0.00  0.00    +0.000 A 
ATOM     25  C   UNL     1      38.118   3.667  14.949  0.00  0.00    +0.000 A 
ATOM     26  C   UNL     1      38.860   4.834  14.950  0.00  0.00    +0.000 A 
ATOM     27  C   UNL     1      39.094   5.540  16.114  0.00  0.00    +0.000 A 
ATOM     28  C   UNL     1      38.582   5.077  17.288  0.00  0.00    +0.000 A 
ATOM     29  C   UNL     1      37.837   3.909  17.298  0.00  0.00    +0.000 A 
ATOM     30  C   UNL     1      37.604   3.207  16.143  0.00  0.00    +0.000 A 
ENDBRANCH  17  18
ENDBRANCH  16  17
ENDBRANCH   2  16
TORSDOF 8
ENDMDL
MODEL 9
REMARK VINA RESULT:      -7.6      1.740      3.120
REMARK  Name = 
REMARK  8 active torsions:
REMARK  status: ('A' for Active; 'I' for Inactive)
REMARK    1  A    between atoms: C_2  and  C_3
REMARK    2  A    between atoms: C_6  and  C_7
REMARK    3  A    between atoms: C_7  and  C_8
REMARK    4  A    between atoms: C_7  and  N_11
REMARK    5  A    between atoms: C_8  and  C_9
REMARK    6  A    between atoms: C_12  and  O_14
REMARK    7  A    between atoms: O_14  and  C_15
REMARK    8  A    between atoms: C_15  and  C_16
REMARK                            x       y       z     vdW  Elec       q    Type
REMARK                         _______ _______ _______ _____ _____    ______ ____
ROOT
ATOM      1  N   UNL     1      37.083   4.344  15.412  0.00  0.00    +0.000 NA
ATOM      2  C   UNL     1      35.876   3.952  14.802  0.00  0.00    +0.000 C 
ATOM      3  O   UNL     1      35.306   4.764  14.026  0.00  0.00    +0.000 OA
ENDROOT
BRANCH   1   4
ATOM      4  C   UNL     1      37.578   5.807  15.022  0.00  0.00    +0.000 C 
BRANCH   4   8
ATOM      5  C   UNL     1      39.242   6.734  18.918  0.00  0.00    +0.000 A 
ATOM      6  C   UNL     1      38.665   7.731  18.159  0.00  0.00    +0.000 A 
ATOM      7  C   UNL     1      38.141   7.427  16.928  0.00  0.00    +0.000 A 
ATOM      8  C   UNL     1      38.183   6.208  16.467  0.00  0.00    +0.000 A 
ATOM      9  C   UNL     1      38.740   5.163  17.163  0.00  0.00    +0.000 A 
ATOM     10  C   UNL     1      39.272   5.445  18.402  0.00  0.00    +0.000 A 
BRANCH   5  12
ATOM     11  C   UNL     1      41.205   6.408  20.276  0.00  0.00    +0.000 C 
ATOM     12  C   UNL     1      39.822   7.021  20.260  0.00  0.00    +0.000 C 
ENDBRANCH   5  12
ENDBRANCH   4   8
BRANCH   4  13
ATOM     13  C   UNL     1      39.031   5.320  14.405  0.00  0.00    +0.000 C 
BRANCH  13  14
ATOM     14  C   UNL     1      38.808   4.818  13.038  0.00  0.00    +0.000 C 
ATOM     15  O   UNL     1      40.025   4.656  12.436  0.00  0.00    +0.000 OA
ENDBRANCH  13  14
ENDBRANCH   4  13
ENDBRANCH   1   4
BRANCH   2  16
ATOM     16  O   UNL     1      35.248   2.737  14.981  0.00  0.00    +0.000 OA
BRANCH  16  17
ATOM     17  C   UNL     1      35.767   1.496  14.535  0.00  0.00    +0.000 C 
BRANCH  17  18
ATOM     18  C   UNL     1      36.644   0.982  15.684  0.00  0.00    +0.000 C 
ATOM     19  C   UNL     1      36.110  -0.323  16.159  0.00  0.00    +0.000 A 
ATOM     20  C   UNL     1      34.901  -0.650  16.730  0.00  0.00    +0.000 A 
ATOM     21  C   UNL     1      34.580  -1.938  17.112  0.00  0.00    +0.000 A 
ATOM     22  C   UNL     1      35.516  -2.912  16.906  0.00  0.00    +0.000 A 
ATOM     23  C   UNL     1      36.735  -2.588  16.332  0.00  0.00    +0.000 A 
ATOM     24  C   UNL     1      37.062  -1.302  15.947  0.00  0.00    +0.000 A 
ATOM     25  C   UNL     1      38.242  -0.702  15.336  0.00  0.00    +0.000 A 
ATOM     26  C   UNL     1      39.454  -1.226  14.927  0.00  0.00    +0.000 A 
ATOM     27  C   UNL     1      40.433  -0.430  14.363  0.00  0.00    +0.000 A 
ATOM     28  C   UNL     1      40.197   0.902  14.206  0.00  0.00    +0.000 A 
ATOM     29  C   UNL     1      38.986   1.438  14.611  0.00  0.00    +0.000 A 
ATOM     30  C   UNL     1      38.014   0.648  15.171  0.00  0.00    +0.000 A 
ENDBRANCH  17  18
ENDBRANCH  16  17
ENDBRANCH   2  16
TORSDOF 8
ENDMDL
MODEL 10
REMARK VINA RESULT:      -7.5      1.681      7.871
REMARK  Name = 
REMARK  8 active torsions:
REMARK  status: ('A' for Active; 'I' for Inactive)
REMARK    1  A    between atoms: C_2  and  C_3
REMARK    2  A    between atoms: C_6  and  C_7
REMARK    3  A    between atoms: C_7  and  C_8
REMARK    4  A    between atoms: C_7  and  N_11
REMARK    5  A    between atoms: C_8  and  C_9
REMARK    6  A    between atoms: C_12  and  O_14
REMARK    7  A    between atoms: O_14  and  C_15
REMARK    8  A    between atoms: C_15  and  C_16
REMARK                            x       y       z     vdW  Elec       q    Type
REMARK                         _______ _______ _______ _____ _____    ______ ____
ROOT
ATOM      1  N   UNL     1      36.607   1.290  16.903  0.00  0.00    +0.000 NA
ATOM      2  C   UNL     1      36.279   2.530  16.320  0.00  0.00    +0.000 C 
ATOM      3  O   UNL     1      35.444   2.545  15.377  0.00  0.00    +0.000 OA
ENDROOT
BRANCH   1   4
ATOM      4  C   UNL     1      35.853   0.039  16.268  0.00  0.00    +0.000 C 
BRANCH   4   8
ATOM      5  C   UNL     1      39.454  -2.150  15.247  0.00  0.00    +0.000 A 
ATOM      6  C   UNL     1      38.337  -2.827  15.688  0.00  0.00    +0.000 A 
ATOM      7  C   UNL     1      37.203  -2.126  16.008  0.00  0.00    +0.000 A 
ATOM      8  C   UNL     1      37.169  -0.826  15.901  0.00  0.00    +0.000 A 
ATOM      9  C   UNL     1      38.240  -0.083  15.469  0.00  0.00    +0.000 A 
ATOM     10  C   UNL     1      39.390  -0.767  15.142  0.00  0.00    +0.000 A 
BRANCH   5  12
ATOM     11  C   UNL     1      41.678  -1.834  14.376  0.00  0.00    +0.000 C 
ATOM     12  C   UNL     1      40.706  -2.874  14.888  0.00  0.00    +0.000 C 
ENDBRANCH   5  12
ENDBRANCH   4   8
BRANCH   4  13
ATOM     13  C   UNL     1      35.590  -0.730  17.706  0.00  0.00    +0.000 C 
BRANCH  13  14
ATOM     14  C   UNL     1      36.267   0.032  18.769  0.00  0.00    +0.000 C 
ATOM     15  O   UNL     1      37.290  -0.731  19.260  0.00  0.00    +0.000 OA
ENDBRANCH  13  14
ENDBRANCH   4  13
ENDBRANCH   1   4
BRANCH   2  16
ATOM     16  O   UNL     1      36.798   3.752  16.696  0.00  0.00    +0.000 OA
BRANCH  16  17
ATOM     17  C   UNL     1      38.078   3.931  17.277  0.00  0.00    +0.000 C 
BRANCH  17  18
ATOM     18  C   UNL     1      38.493   5.364  16.921  0.00  0.00    +0.000 C 
ATOM     19  C   UNL     1      39.521   5.829  17.891  0.00  0.00    +0.000 A 
ATOM     20  C   UNL     1      39.455   6.022  19.252  0.00  0.00    +0.000 A 
ATOM     21  C   UNL     1      40.531   6.467  19.995  0.00  0.00    +0.000 A 
ATOM     22  C   UNL     1      41.698   6.721  19.331  0.00  0.00    +0.000 A 
ATOM     23  C   UNL     1      41.769   6.529  17.961  0.00  0.00    +0.000 A 
ATOM     24  C   UNL     1      40.697   6.084  17.213  0.00  0.00    +0.000 A 
ATOM     25  C   UNL     1      40.505   5.803  15.794  0.00  0.00    +0.000 A 
ATOM     26  C   UNL     1      41.346   5.889  14.700  0.00  0.00    +0.000 A 
ATOM     27  C   UNL     1      40.915   5.559  13.429  0.00  0.00    +0.000 A 
ATOM     28  C   UNL     1      39.632   5.138  13.251  0.00  0.00    +0.000 A 
ATOM     29  C   UNL     1      38.781   5.047  14.340  0.00  0.00    +0.000 A 
ATOM     30  C   UNL     1      39.208   5.376  15.602  0.00  0.00    +0.000 A 
ENDBRANCH  17  18
ENDBRANCH  16  17
ENDBRANCH   2  16
TORSDOF 8
ENDMDL
