MODEL 1
REMARK VINA RESULT:      -7.1      0.000      0.000
REMARK  Name = 
REMARK  1 active torsions:
REMARK  status: ('A' for Active; 'I' for Inactive)
REMARK    1  A    between atoms: C_19  and  C_21
REMARK                            x       y       z     vdW  Elec       q    Type
REMARK                         _______ _______ _______ _____ _____    ______ ____
ROOT
ATOM      1  C   UNL     1      27.817  26.278  27.026  0.00  0.00    +0.000 C 
ATOM      2  C   UNL     1      28.416  24.853  26.553  0.00  0.00    +0.000 C 
ATOM      3  C   UNL     1      29.660  24.786  27.183  0.00  0.00    +0.000 C 
ATOM      4  C   UNL     1      29.923  24.145  28.253  0.00  0.00    +0.000 C 
ATOM      5  C   UNL     1      28.825  23.402  28.849  0.00  0.00    +0.000 A 
ATOM      6  O   UNL     1      28.788  22.698  29.978  0.00  0.00    +0.000 OA
ATOM      7  C   UNL     1      27.594  22.213  30.163  0.00  0.00    +0.000 A 
ATOM      8  C   UNL     1      26.803  22.616  29.102  0.00  0.00    +0.000 A 
ATOM      9  C   UNL     1      27.646  23.376  28.281  0.00  0.00    +0.000 A 
ATOM     10  C   UNL     1      27.256  23.894  26.843  0.00  0.00    +0.000 C 
ATOM     11  C   UNL     1      27.711  22.550  26.080  0.00  0.00    +0.000 C 
ATOM     12  C   UNL     1      28.991  22.729  25.357  0.00  0.00    +0.000 C 
ATOM     13  C   UNL     1      28.765  23.756  24.345  0.00  0.00    +0.000 C 
ATOM     14  C   UNL     1      27.675  23.334  23.484  0.00  0.00    +0.000 C 
ATOM     15  C   UNL     1      27.625  24.431  22.297  0.00  0.00    +0.000 C 
ATOM     16  C   UNL     1      27.178  25.692  23.188  0.00  0.00    +0.000 C 
ATOM     17  C   UNL     1      27.001  25.346  24.629  0.00  0.00    +0.000 C 
ATOM     18  C   UNL     1      28.567  25.193  24.996  0.00  0.00    +0.000 C 
ATOM     19  C   UNL     1      29.201  24.771  22.246  0.00  0.00    +0.000 C 
ATOM     20  O   UNL     1      29.656  24.232  21.020  0.00  0.00    +0.000 OA
ATOM     21  C   UNL     1      29.823  24.015  23.336  0.00  0.00    +0.000 C 
ENDROOT
BRANCH  19  22
ATOM     22  C   UNL     1      29.404  26.231  22.194  0.00  0.00    +0.000 C 
ATOM     23  O   UNL     1      29.622  26.601  20.892  0.00  0.00    +0.000 OA
ENDBRANCH  19  22
TORSDOF 1
ENDMDL
MODEL 2
REMARK VINA RESULT:      -7.1      1.413      1.872
REMARK  Name = 
REMARK  1 active torsions:
REMARK  status: ('A' for Active; 'I' for Inactive)
REMARK    1  A    between atoms: C_19  and  C_21
REMARK                            x       y       z     vdW  Elec       q    Type
REMARK                         _______ _______ _______ _____ _____    ______ ____
ROOT
ATOM      1  C   UNL     1      30.654  25.699  27.198  0.00  0.00    +0.000 C 
ATOM      2  C   UNL     1      30.036  24.227  26.944  0.00  0.00    +0.000 C 
ATOM      3  C   UNL     1      31.144  23.380  27.023  0.00  0.00    +0.000 C 
ATOM      4  C   UNL     1      31.481  22.681  28.035  0.00  0.00    +0.000 C 
ATOM      5  C   UNL     1      30.611  22.764  29.197  0.00  0.00    +0.000 A 
ATOM      6  O   UNL     1      30.739  22.201  30.396  0.00  0.00    +0.000 OA
ATOM      7  C   UNL     1      29.751  22.559  31.164  0.00  0.00    +0.000 A 
ATOM      8  C   UNL     1      28.929  23.400  30.436  0.00  0.00    +0.000 A 
ATOM      9  C   UNL     1      29.527  23.496  29.172  0.00  0.00    +0.000 A 
ATOM     10  C   UNL     1      28.858  24.189  27.923  0.00  0.00    +0.000 C 
ATOM     11  C   UNL     1      28.049  22.880  27.450  0.00  0.00    +0.000 C 
ATOM     12  C   UNL     1      28.664  22.246  26.262  0.00  0.00    +0.000 C 
ATOM     13  C   UNL     1      28.596  23.222  25.179  0.00  0.00    +0.000 C 
ATOM     14  C   UNL     1      27.209  23.598  24.974  0.00  0.00    +0.000 C 
ATOM     15  C   UNL     1      27.214  24.524  23.649  0.00  0.00    +0.000 C 
ATOM     16  C   UNL     1      28.045  25.760  24.253  0.00  0.00    +0.000 C 
ATOM     17  C   UNL     1      28.427  25.554  25.682  0.00  0.00    +0.000 C 
ATOM     18  C   UNL     1      29.578  24.448  25.427  0.00  0.00    +0.000 C 
ATOM     19  C   UNL     1      28.444  23.811  22.887  0.00  0.00    +0.000 C 
ATOM     20  O   UNL     1      27.859  23.145  21.784  0.00  0.00    +0.000 OA
ATOM     21  C   UNL     1      28.968  22.798  23.806  0.00  0.00    +0.000 C 
ENDROOT
BRANCH  19  22
ATOM     22  C   UNL     1      29.370  24.827  22.354  0.00  0.00    +0.000 C 
ATOM     23  O   UNL     1      29.683  24.505  21.058  0.00  0.00    +0.000 OA
ENDBRANCH  19  22
TORSDOF 1
ENDMDL
MODEL 3
REMARK VINA RESULT:      -6.9      2.192      5.647
REMARK  Name = 
REMARK  1 active torsions:
REMARK  status: ('A' for Active; 'I' for Inactive)
REMARK    1  A    between atoms: C_19  and  C_21
REMARK                            x       y       z     vdW  Elec       q    Type
REMARK                         _______ _______ _______ _____ _____    ______ ____
ROOT
ATOM      1  C   UNL     1      27.372  25.495  26.306  0.00  0.00    +0.000 C 
ATOM      2  C   UNL     1      28.078  24.149  25.754  0.00  0.00    +0.000 C 
ATOM      3  C   UNL     1      27.096  23.168  25.911  0.00  0.00    +0.000 C 
ATOM      4  C   UNL     1      26.330  22.722  24.994  0.00  0.00    +0.000 C 
ATOM      5  C   UNL     1      26.521  23.279  23.665  0.00  0.00    +0.000 A 
ATOM      6  O   UNL     1      25.842  23.051  22.543  0.00  0.00    +0.000 OA
ATOM      7  C   UNL     1      26.320  23.781  21.577  0.00  0.00    +0.000 A 
ATOM      8  C   UNL     1      27.368  24.526  22.086  0.00  0.00    +0.000 A 
ATOM      9  C   UNL     1      27.459  24.162  23.436  0.00  0.00    +0.000 A 
ATOM     10  C   UNL     1      28.630  24.597  24.397  0.00  0.00    +0.000 C 
ATOM     11  C   UNL     1      29.606  23.381  23.995  0.00  0.00    +0.000 C 
ATOM     12  C   UNL     1      29.665  22.344  25.051  0.00  0.00    +0.000 C 
ATOM     13  C   UNL     1      30.223  22.982  26.238  0.00  0.00    +0.000 C 
ATOM     14  C   UNL     1      31.523  23.536  25.905  0.00  0.00    +0.000 C 
ATOM     15  C   UNL     1      32.136  24.047  27.311  0.00  0.00    +0.000 C 
ATOM     16  C   UNL     1      31.081  25.227  27.591  0.00  0.00    +0.000 C 
ATOM     17  C   UNL     1      30.058  25.352  26.510  0.00  0.00    +0.000 C 
ATOM     18  C   UNL     1      29.210  24.027  26.878  0.00  0.00    +0.000 C 
ATOM     19  C   UNL     1      31.454  22.940  28.264  0.00  0.00    +0.000 C 
ATOM     20  O   UNL     1      32.521  22.117  28.697  0.00  0.00    +0.000 OA
ATOM     21  C   UNL     1      30.578  22.139  27.407  0.00  0.00    +0.000 C 
ENDROOT
BRANCH  19  22
ATOM     22  C   UNL     1      30.876  23.584  29.459  0.00  0.00    +0.000 C 
ATOM     23  O   UNL     1      30.099  22.669  30.123  0.00  0.00    +0.000 OA
ENDBRANCH  19  22
TORSDOF 1
ENDMDL
MODEL 4
REMARK VINA RESULT:      -6.9      1.539      6.228
REMARK  Name = 
REMARK  1 active torsions:
REMARK  status: ('A' for Active; 'I' for Inactive)
REMARK    1  A    between atoms: C_19  and  C_21
REMARK                            x       y       z     vdW  Elec       q    Type
REMARK                         _______ _______ _______ _____ _____    ______ ____
ROOT
ATOM      1  C   UNL     1      28.905  26.520  26.439  0.00  0.00    +0.000 C 
ATOM      2  C   UNL     1      28.016  25.198  26.162  0.00  0.00    +0.000 C 
ATOM      3  C   UNL     1      26.874  25.690  25.525  0.00  0.00    +0.000 C 
ATOM      4  C   UNL     1      26.653  25.676  24.269  0.00  0.00    +0.000 C 
ATOM      5  C   UNL     1      27.680  25.069  23.438  0.00  0.00    +0.000 A 
ATOM      6  O   UNL     1      27.748  24.963  22.114  0.00  0.00    +0.000 OA
ATOM      7  C   UNL     1      28.857  24.374  21.770  0.00  0.00    +0.000 A 
ATOM      8  C   UNL     1      29.555  24.074  22.926  0.00  0.00    +0.000 A 
ATOM      9  C   UNL     1      28.750  24.539  23.974  0.00  0.00    +0.000 A 
ATOM     10  C   UNL     1      29.025  24.253  25.500  0.00  0.00    +0.000 C 
ATOM     11  C   UNL     1      28.251  22.841  25.522  0.00  0.00    +0.000 C 
ATOM     12  C   UNL     1      26.935  22.940  26.193  0.00  0.00    +0.000 C 
ATOM     13  C   UNL     1      27.193  23.323  27.577  0.00  0.00    +0.000 C 
ATOM     14  C   UNL     1      28.071  22.336  28.180  0.00  0.00    +0.000 C 
ATOM     15  C   UNL     1      28.145  22.737  29.744  0.00  0.00    +0.000 C 
ATOM     16  C   UNL     1      28.914  24.138  29.572  0.00  0.00    +0.000 C 
ATOM     17  C   UNL     1      29.222  24.454  28.145  0.00  0.00    +0.000 C 
ATOM     18  C   UNL     1      27.716  24.820  27.687  0.00  0.00    +0.000 C 
ATOM     19  C   UNL     1      26.657  23.343  29.887  0.00  0.00    +0.000 C 
ATOM     20  O   UNL     1      25.957  22.417  30.696  0.00  0.00    +0.000 OA
ATOM     21  C   UNL     1      26.069  23.315  28.546  0.00  0.00    +0.000 C 
ENDROOT
BRANCH  19  22
ATOM     22  C   UNL     1      26.698  24.627  30.612  0.00  0.00    +0.000 C 
ATOM     23  O   UNL     1      25.451  24.889  31.118  0.00  0.00    +0.000 OA
ENDBRANCH  19  22
TORSDOF 1
ENDMDL
MODEL 5
REMARK VINA RESULT:      -6.5     19.879     21.616
REMARK  Name = 
REMARK  1 active torsions:
REMARK  status: ('A' for Active; 'I' for Inactive)
REMARK    1  A    between atoms: C_19  and  C_21
REMARK                            x       y       z     vdW  Elec       q    Type
REMARK                         _______ _______ _______ _____ _____    ______ ____
ROOT
ATOM      1  C   UNL     1      27.247   2.731  15.389  0.00  0.00    +0.000 C 
ATOM      2  C   UNL     1      26.459   4.090  15.770  0.00  0.00    +0.000 C 
ATOM      3  C   UNL     1      25.346   4.080  14.927  0.00  0.00    +0.000 C 
ATOM      4  C   UNL     1      24.166   3.720  15.250  0.00  0.00    +0.000 C 
ATOM      5  C   UNL     1      23.971   3.307  16.631  0.00  0.00    +0.000 A 
ATOM      6  O   UNL     1      22.880   2.835  17.230  0.00  0.00    +0.000 OA
ATOM      7  C   UNL     1      23.141   2.555  18.474  0.00  0.00    +0.000 A 
ATOM      8  C   UNL     1      24.471   2.859  18.708  0.00  0.00    +0.000 A 
ATOM      9  C   UNL     1      24.958   3.345  17.488  0.00  0.00    +0.000 A 
ATOM     10  C   UNL     1      26.377   4.007  17.298  0.00  0.00    +0.000 C 
ATOM     11  C   UNL     1      25.898   5.489  17.706  0.00  0.00    +0.000 C 
ATOM     12  C   UNL     1      25.773   6.376  16.527  0.00  0.00    +0.000 C 
ATOM     13  C   UNL     1      27.103   6.488  15.939  0.00  0.00    +0.000 C 
ATOM     14  C   UNL     1      28.018   6.998  16.945  0.00  0.00    +0.000 C 
ATOM     15  C   UNL     1      29.405   7.265  16.158  0.00  0.00    +0.000 C 
ATOM     16  C   UNL     1      29.753   5.735  15.809  0.00  0.00    +0.000 C 
ATOM     17  C   UNL     1      28.730   4.779  16.328  0.00  0.00    +0.000 C 
ATOM     18  C   UNL     1      27.567   5.127  15.262  0.00  0.00    +0.000 C 
ATOM     19  C   UNL     1      28.773   7.656  14.726  0.00  0.00    +0.000 C 
ATOM     20  O   UNL     1      29.029   9.040  14.575  0.00  0.00    +0.000 OA
ATOM     21  C   UNL     1      27.326   7.469  14.848  0.00  0.00    +0.000 C 
ENDROOT
BRANCH  19  22
ATOM     22  C   UNL     1      29.488   6.951  13.645  0.00  0.00    +0.000 C 
ATOM     23  O   UNL     1      28.785   7.103  12.478  0.00  0.00    +0.000 OA
ENDBRANCH  19  22
TORSDOF 1
ENDMDL
MODEL 6
REMARK VINA RESULT:      -6.5      2.051      3.167
REMARK  Name = 
REMARK  1 active torsions:
REMARK  status: ('A' for Active; 'I' for Inactive)
REMARK    1  A    between atoms: C_19  and  C_21
REMARK                            x       y       z     vdW  Elec       q    Type
REMARK                         _______ _______ _______ _____ _____    ______ ____
ROOT
ATOM      1  C   UNL     1      28.268  22.018  27.073  0.00  0.00    +0.000 C 
ATOM      2  C   UNL     1      29.365  23.205  27.031  0.00  0.00    +0.000 C 
ATOM      3  C   UNL     1      29.038  24.003  28.130  0.00  0.00    +0.000 C 
ATOM      4  C   UNL     1      29.615  23.984  29.267  0.00  0.00    +0.000 C 
ATOM      5  C   UNL     1      30.729  23.060  29.412  0.00  0.00    +0.000 A 
ATOM      6  O   UNL     1      31.472  22.787  30.481  0.00  0.00    +0.000 OA
ATOM      7  C   UNL     1      32.350  21.871  30.192  0.00  0.00    +0.000 A 
ATOM      8  C   UNL     1      32.179  21.523  28.864  0.00  0.00    +0.000 A 
ATOM      9  C   UNL     1      31.123  22.323  28.406  0.00  0.00    +0.000 A 
ATOM     10  C   UNL     1      30.682  22.433  26.896  0.00  0.00    +0.000 C 
ATOM     11  C   UNL     1      31.734  23.594  26.524  0.00  0.00    +0.000 C 
ATOM     12  C   UNL     1      31.079  24.916  26.393  0.00  0.00    +0.000 C 
ATOM     13  C   UNL     1      30.131  24.810  25.289  0.00  0.00    +0.000 C 
ATOM     14  C   UNL     1      30.848  24.404  24.093  0.00  0.00    +0.000 C 
ATOM     15  C   UNL     1      29.763  24.497  22.899  0.00  0.00    +0.000 C 
ATOM     16  C   UNL     1      28.792  23.316  23.396  0.00  0.00    +0.000 C 
ATOM     17  C   UNL     1      29.270  22.670  24.655  0.00  0.00    +0.000 C 
ATOM     18  C   UNL     1      28.895  23.880  25.659  0.00  0.00    +0.000 C 
ATOM     19  C   UNL     1      28.897  25.726  23.483  0.00  0.00    +0.000 C 
ATOM     20  O   UNL     1      29.166  26.812  22.618  0.00  0.00    +0.000 OA
ATOM     21  C   UNL     1      29.459  26.039  24.799  0.00  0.00    +0.000 C 
ENDROOT
BRANCH  19  22
ATOM     22  C   UNL     1      27.456  25.425  23.384  0.00  0.00    +0.000 C 
ATOM     23  O   UNL     1      26.761  26.338  24.135  0.00  0.00    +0.000 OA
ENDBRANCH  19  22
TORSDOF 1
ENDMDL
MODEL 7
REMARK VINA RESULT:      -6.4      2.711      3.738
REMARK  Name = 
REMARK  1 active torsions:
REMARK  status: ('A' for Active; 'I' for Inactive)
REMARK    1  A    between atoms: C_19  and  C_21
REMARK                            x       y       z     vdW  Elec       q    Type
REMARK                         _______ _______ _______ _____ _____    ______ ____
ROOT
ATOM      1  C   UNL     1      30.642  26.751  26.366  0.00  0.00    +0.000 C 
ATOM      2  C   UNL     1      31.009  25.350  25.649  0.00  0.00    +0.000 C 
ATOM      3  C   UNL     1      32.119  25.659  24.859  0.00  0.00    +0.000 C 
ATOM      4  C   UNL     1      33.337  25.424  25.155  0.00  0.00    +0.000 C 
ATOM      5  C   UNL     1      33.577  24.754  26.423  0.00  0.00    +0.000 A 
ATOM      6  O   UNL     1      34.727  24.437  27.012  0.00  0.00    +0.000 OA
ATOM      7  C   UNL     1      34.499  23.869  28.160  0.00  0.00    +0.000 A 
ATOM      8  C   UNL     1      33.129  23.807  28.339  0.00  0.00    +0.000 A 
ATOM      9  C   UNL     1      32.580  24.387  27.187  0.00  0.00    +0.000 A 
ATOM     10  C   UNL     1      31.044  24.373  26.830  0.00  0.00    +0.000 C 
ATOM     11  C   UNL     1      31.080  22.939  26.099  0.00  0.00    +0.000 C 
ATOM     12  C   UNL     1      31.010  23.064  24.626  0.00  0.00    +0.000 C 
ATOM     13  C   UNL     1      29.726  23.685  24.315  0.00  0.00    +0.000 C 
ATOM     14  C   UNL     1      28.663  22.867  24.873  0.00  0.00    +0.000 C 
ATOM     15  C   UNL     1      27.293  23.524  24.322  0.00  0.00    +0.000 C 
ATOM     16  C   UNL     1      27.392  24.923  25.108  0.00  0.00    +0.000 C 
ATOM     17  C   UNL     1      28.615  25.017  25.961  0.00  0.00    +0.000 C 
ATOM     18  C   UNL     1      29.684  25.210  24.764  0.00  0.00    +0.000 C 
ATOM     19  C   UNL     1      27.855  24.051  22.905  0.00  0.00    +0.000 C 
ATOM     20  O   UNL     1      27.237  23.229  21.934  0.00  0.00    +0.000 OA
ATOM     21  C   UNL     1      29.292  23.766  22.899  0.00  0.00    +0.000 C 
ENDROOT
BRANCH  19  22
ATOM     22  C   UNL     1      27.409  25.437  22.665  0.00  0.00    +0.000 C 
ATOM     23  O   UNL     1      27.954  25.879  21.487  0.00  0.00    +0.000 OA
ENDBRANCH  19  22
TORSDOF 1
ENDMDL
MODEL 8
REMARK VINA RESULT:      -6.4     20.865     22.542
REMARK  Name = 
REMARK  1 active torsions:
REMARK  status: ('A' for Active; 'I' for Inactive)
REMARK    1  A    between atoms: C_19  and  C_21
REMARK                            x       y       z     vdW  Elec       q    Type
REMARK                         _______ _______ _______ _____ _____    ______ ____
ROOT
ATOM      1  C   UNL     1      25.086   3.749  18.834  0.00  0.00    +0.000 C 
ATOM      2  C   UNL     1      25.371   3.452  17.271  0.00  0.00    +0.000 C 
ATOM      3  C   UNL     1      25.965   2.188  17.273  0.00  0.00    +0.000 C 
ATOM      4  C   UNL     1      25.379   1.085  17.015  0.00  0.00    +0.000 C 
ATOM      5  C   UNL     1      23.970   1.168  16.666  0.00  0.00    +0.000 A 
ATOM      6  O   UNL     1      23.100   0.195  16.407  0.00  0.00    +0.000 OA
ATOM      7  C   UNL     1      21.925   0.699  16.169  0.00  0.00    +0.000 A 
ATOM      8  C   UNL     1      22.023   2.075  16.273  0.00  0.00    +0.000 A 
ATOM      9  C   UNL     1      23.364   2.325  16.592  0.00  0.00    +0.000 A 
ATOM     10  C   UNL     1      24.017   3.761  16.623  0.00  0.00    +0.000 C 
ATOM     11  C   UNL     1      24.376   3.789  15.053  0.00  0.00    +0.000 C 
ATOM     12  C   UNL     1      25.821   3.578  14.811  0.00  0.00    +0.000 C 
ATOM     13  C   UNL     1      26.523   4.689  15.443  0.00  0.00    +0.000 C 
ATOM     14  C   UNL     1      26.024   5.935  14.888  0.00  0.00    +0.000 C 
ATOM     15  C   UNL     1      26.981   7.084  15.503  0.00  0.00    +0.000 C 
ATOM     16  C   UNL     1      26.533   6.939  17.040  0.00  0.00    +0.000 C 
ATOM     17  C   UNL     1      25.492   5.887  17.238  0.00  0.00    +0.000 C 
ATOM     18  C   UNL     1      26.454   4.605  17.030  0.00  0.00    +0.000 C 
ATOM     19  C   UNL     1      28.334   6.212  15.606  0.00  0.00    +0.000 C 
ATOM     20  O   UNL     1      29.197   6.752  14.624  0.00  0.00    +0.000 OA
ATOM     21  C   UNL     1      27.979   4.849  15.204  0.00  0.00    +0.000 C 
ENDROOT
BRANCH  19  22
ATOM     22  C   UNL     1      28.971   6.417  16.920  0.00  0.00    +0.000 C 
ATOM     23  O   UNL     1      29.902   7.418  16.809  0.00  0.00    +0.000 OA
ENDBRANCH  19  22
TORSDOF 1
ENDMDL
MODEL 9
REMARK VINA RESULT:      -6.1     18.881     22.175
REMARK  Name = 
REMARK  1 active torsions:
REMARK  status: ('A' for Active; 'I' for Inactive)
REMARK    1  A    between atoms: C_19  and  C_21
REMARK                            x       y       z     vdW  Elec       q    Type
REMARK                         _______ _______ _______ _____ _____    ______ ____
ROOT
ATOM      1  C   UNL     1      20.596   8.961  41.926  0.00  0.00    +0.000 C 
ATOM      2  C   UNL     1      19.925   8.928  40.455  0.00  0.00    +0.000 C 
ATOM      3  C   UNL     1      19.750   7.567  40.197  0.00  0.00    +0.000 C 
ATOM      4  C   UNL     1      18.662   6.915  40.325  0.00  0.00    +0.000 C 
ATOM      5  C   UNL     1      17.500   7.675  40.757  0.00  0.00    +0.000 A 
ATOM      6  O   UNL     1      16.265   7.259  41.026  0.00  0.00    +0.000 OA
ATOM      7  C   UNL     1      15.531   8.262  41.415  0.00  0.00    +0.000 A 
ATOM      8  C   UNL     1      16.321   9.397  41.400  0.00  0.00    +0.000 A 
ATOM      9  C   UNL     1      17.580   8.965  40.963  0.00  0.00    +0.000 A 
ATOM     10  C   UNL     1      18.773   9.929  40.595  0.00  0.00    +0.000 C 
ATOM     11  C   UNL     1      18.311  10.149  39.068  0.00  0.00    +0.000 C 
ATOM     12  C   UNL     1      19.159   9.394  38.117  0.00  0.00    +0.000 C 
ATOM     13  C   UNL     1      20.513   9.920  38.249  0.00  0.00    +0.000 C 
ATOM     14  C   UNL     1      20.489  11.348  37.986  0.00  0.00    +0.000 C 
ATOM     15  C   UNL     1      22.041  11.800  37.968  0.00  0.00    +0.000 C 
ATOM     16  C   UNL     1      22.365  11.523  39.518  0.00  0.00    +0.000 C 
ATOM     17  C   UNL     1      21.181  11.010  40.270  0.00  0.00    +0.000 C 
ATOM     18  C   UNL     1      21.169   9.521  39.641  0.00  0.00    +0.000 C 
ATOM     19  C   UNL     1      22.663  10.430  37.386  0.00  0.00    +0.000 C 
ATOM     20  O   UNL     1      23.098  10.748  36.078  0.00  0.00    +0.000 OA
ATOM     21  C   UNL     1      21.550   9.483  37.281  0.00  0.00    +0.000 C 
ENDROOT
BRANCH  19  22
ATOM     22  C   UNL     1      23.851  10.039  38.168  0.00  0.00    +0.000 C 
ATOM     23  O   UNL     1      24.177   8.743  37.859  0.00  0.00    +0.000 OA
ENDBRANCH  19  22
TORSDOF 1
ENDMDL
MODEL 10
REMARK VINA RESULT:      -6.1      2.398      3.249
REMARK  Name = 
REMARK  1 active torsions:
REMARK  status: ('A' for Active; 'I' for Inactive)
REMARK    1  A    between atoms: C_19  and  C_21
REMARK                            x       y       z     vdW  Elec       q    Type
REMARK                         _______ _______ _______ _____ _____    ______ ____
ROOT
ATOM      1  C   UNL     1      28.654  26.156  28.162  0.00  0.00    +0.000 C 
ATOM      2  C   UNL     1      27.376  25.220  27.837  0.00  0.00    +0.000 C 
ATOM      3  C   UNL     1      27.565  24.101  28.650  0.00  0.00    +0.000 C 
ATOM      4  C   UNL     1      26.996  23.886  29.771  0.00  0.00    +0.000 C 
ATOM      5  C   UNL     1      26.051  24.894  30.221  0.00  0.00    +0.000 A 
ATOM      6  O   UNL     1      25.360  24.965  31.357  0.00  0.00    +0.000 OA
ATOM      7  C   UNL     1      24.646  26.053  31.377  0.00  0.00    +0.000 A 
ATOM      8  C   UNL     1      24.875  26.734  30.195  0.00  0.00    +0.000 A 
ATOM      9  C   UNL     1      25.785  25.941  29.483  0.00  0.00    +0.000 A 
ATOM     10  C   UNL     1      26.204  26.197  27.984  0.00  0.00    +0.000 C 
ATOM     11  C   UNL     1      24.976  25.373  27.349  0.00  0.00    +0.000 C 
ATOM     12  C   UNL     1      25.405  24.057  26.821  0.00  0.00    +0.000 C 
ATOM     13  C   UNL     1      26.359  24.322  25.750  0.00  0.00    +0.000 C 
ATOM     14  C   UNL     1      25.721  25.160  24.750  0.00  0.00    +0.000 C 
ATOM     15  C   UNL     1      26.778  25.241  23.530  0.00  0.00    +0.000 C 
ATOM     16  C   UNL     1      27.929  26.061  24.295  0.00  0.00    +0.000 C 
ATOM     17  C   UNL     1      27.562  26.388  25.705  0.00  0.00    +0.000 C 
ATOM     18  C   UNL     1      27.730  24.899  26.310  0.00  0.00    +0.000 C 
ATOM     19  C   UNL     1      27.428  23.775  23.705  0.00  0.00    +0.000 C 
ATOM     20  O   UNL     1      26.985  23.038  22.582  0.00  0.00    +0.000 OA
ATOM     21  C   UNL     1      26.820  23.193  24.904  0.00  0.00    +0.000 C 
ENDROOT
BRANCH  19  22
ATOM     22  C   UNL     1      28.899  23.859  23.630  0.00  0.00    +0.000 C 
ATOM     23  O   UNL     1      29.432  22.666  24.046  0.00  0.00    +0.000 OA
ENDBRANCH  19  22
TORSDOF 1
ENDMDL
