MODEL 1
REMARK VINA RESULT:      -7.9      0.000      0.000
REMARK  Name = 
REMARK  3 active torsions:
REMARK  status: ('A' for Active; 'I' for Inactive)
REMARK    1  A    between atoms: C_2  and  C_11
REMARK    2  A    between atoms: N_3  and  N_4
REMARK    3  A    between atoms: N_4  and  C_5
REMARK                            x       y       z     vdW  Elec       q    Type
REMARK                         _______ _______ _______ _____ _____    ______ ____
ROOT
ATOM      1  O   UNL     1      16.087  10.490  34.709  0.00  0.00    +0.000 OA
ATOM      2  C   UNL     1      15.964  11.708  35.021  0.00  0.00    +0.000 C 
ATOM      3  N   UNL     1      16.819  12.227  36.034  0.00  0.00    +0.000 NA
ENDROOT
BRANCH   2   4
ATOM      4  C   UNL     1      15.000  12.593  34.403  0.00  0.00    +0.000 A 
ATOM      5  C   UNL     1      14.240  13.401  35.203  0.00  0.00    +0.000 A 
ATOM      6  C   UNL     1      13.361  14.340  34.670  0.00  0.00    +0.000 A 
ATOM      7  C   UNL     1      13.246  14.466  33.303  0.00  0.00    +0.000 A 
ATOM      8  C   UNL     1      14.022  13.641  32.512  0.00  0.00    +0.000 A 
ATOM      9  C   UNL     1      13.880  13.752  31.156  0.00  0.00    +0.000 A 
ATOM     10  C   UNL     1      14.594  12.942  30.330  0.00  0.00    +0.000 A 
ATOM     11  C   UNL     1      15.474  11.998  30.820  0.00  0.00    +0.000 A 
ATOM     12  C   UNL     1      15.591  11.919  32.176  0.00  0.00    +0.000 A 
ATOM     13  C   UNL     1      14.899  12.702  33.051  0.00  0.00    +0.000 A 
ENDBRANCH   2   4
BRANCH   3  14
ATOM     14  N   UNL     1      17.739  11.605  36.704  0.00  0.00    +0.000 NA
BRANCH  14  15
ATOM     15  C   UNL     1      18.041  10.869  37.816  0.00  0.00    +0.000 C 
ATOM     16  C   UNL     1      17.085  10.211  38.507  0.00  0.00    +0.000 C 
ATOM     17  C   UNL     1      17.416   9.419  39.704  0.00  0.00    +0.000 C 
ATOM     18  C   UNL     1      18.633   8.598  39.344  0.00  0.00    +0.000 C 
ATOM     19  C   UNL     1      19.800   9.419  38.864  0.00  0.00    +0.000 C 
ATOM     20  C   UNL     1      19.425  10.757  38.330  0.00  0.00    +0.000 C 
ENDBRANCH  14  15
ENDBRANCH   3  14
TORSDOF 3
ENDMDL
MODEL 2
REMARK VINA RESULT:      -7.8      1.864      7.303
REMARK  Name = 
REMARK  3 active torsions:
REMARK  status: ('A' for Active; 'I' for Inactive)
REMARK    1  A    between atoms: C_2  and  C_11
REMARK    2  A    between atoms: N_3  and  N_4
REMARK    3  A    between atoms: N_4  and  C_5
REMARK                            x       y       z     vdW  Elec       q    Type
REMARK                         _______ _______ _______ _____ _____    ______ ____
ROOT
ATOM      1  O   UNL     1      17.066  12.795  35.905  0.00  0.00    +0.000 OA
ATOM      2  C   UNL     1      16.739  11.580  36.026  0.00  0.00    +0.000 C 
ATOM      3  N   UNL     1      16.203  10.917  34.885  0.00  0.00    +0.000 NA
ENDROOT
BRANCH   2   4
ATOM      4  C   UNL     1      16.880  10.838  37.260  0.00  0.00    +0.000 A 
ATOM      5  C   UNL     1      18.113  10.353  37.600  0.00  0.00    +0.000 A 
ATOM      6  C   UNL     1      18.337   9.711  38.815  0.00  0.00    +0.000 A 
ATOM      7  C   UNL     1      17.296   9.555  39.705  0.00  0.00    +0.000 A 
ATOM      8  C   UNL     1      16.058  10.051  39.343  0.00  0.00    +0.000 A 
ATOM      9  C   UNL     1      15.025   9.865  40.218  0.00  0.00    +0.000 A 
ATOM     10  C   UNL     1      13.777  10.303  39.899  0.00  0.00    +0.000 A 
ATOM     11  C   UNL     1      13.516  10.942  38.704  0.00  0.00    +0.000 A 
ATOM     12  C   UNL     1      14.571  11.112  37.859  0.00  0.00    +0.000 A 
ATOM     13  C   UNL     1      15.840  10.691  38.124  0.00  0.00    +0.000 A 
ENDBRANCH   2   4
BRANCH   3  14
ATOM     14  N   UNL     1      15.997  11.400  33.699  0.00  0.00    +0.000 NA
BRANCH  14  15
ATOM     15  C   UNL     1      15.137  12.067  32.871  0.00  0.00    +0.000 C 
ATOM     16  C   UNL     1      14.533  13.212  33.256  0.00  0.00    +0.000 C 
ATOM     17  C   UNL     1      13.608  13.926  32.359  0.00  0.00    +0.000 C 
ATOM     18  C   UNL     1      14.282  13.975  31.008  0.00  0.00    +0.000 C 
ATOM     19  C   UNL     1      14.665  12.621  30.470  0.00  0.00    +0.000 C 
ATOM     20  C   UNL     1      14.812  11.570  31.514  0.00  0.00    +0.000 C 
ENDBRANCH  14  15
ENDBRANCH   3  14
TORSDOF 3
ENDMDL
MODEL 3
REMARK VINA RESULT:      -7.7      1.580      7.295
REMARK  Name = 
REMARK  3 active torsions:
REMARK  status: ('A' for Active; 'I' for Inactive)
REMARK    1  A    between atoms: C_2  and  C_11
REMARK    2  A    between atoms: N_3  and  N_4
REMARK    3  A    between atoms: N_4  and  C_5
REMARK                            x       y       z     vdW  Elec       q    Type
REMARK                         _______ _______ _______ _____ _____    ______ ____
ROOT
ATOM      1  O   UNL     1      16.569  12.821  35.803  0.00  0.00    +0.000 OA
ATOM      2  C   UNL     1      16.076  11.682  36.037  0.00  0.00    +0.000 C 
ATOM      3  N   UNL     1      15.677  10.887  34.925  0.00  0.00    +0.000 NA
ENDROOT
BRANCH   2   4
ATOM      4  C   UNL     1      15.898  11.151  37.371  0.00  0.00    +0.000 A 
ATOM      5  C   UNL     1      14.662  11.228  37.952  0.00  0.00    +0.000 A 
ATOM      6  C   UNL     1      14.400  10.656  39.194  0.00  0.00    +0.000 A 
ATOM      7  C   UNL     1      15.406   9.993  39.864  0.00  0.00    +0.000 A 
ATOM      8  C   UNL     1      16.647   9.926  39.261  0.00  0.00    +0.000 A 
ATOM      9  C   UNL     1      17.646   9.292  39.946  0.00  0.00    +0.000 A 
ATOM     10  C   UNL     1      18.897   9.225  39.415  0.00  0.00    +0.000 A 
ATOM     11  C   UNL     1      19.196   9.781  38.187  0.00  0.00    +0.000 A 
ATOM     12  C   UNL     1      18.174  10.402  37.533  0.00  0.00    +0.000 A 
ATOM     13  C   UNL     1      16.904  10.502  38.018  0.00  0.00    +0.000 A 
ENDBRANCH   2   4
BRANCH   3  14
ATOM     14  N   UNL     1      15.750  11.178  33.663  0.00  0.00    +0.000 NA
BRANCH  14  15
ATOM     15  C   UNL     1      15.505  12.106  32.688  0.00  0.00    +0.000 C 
ATOM     16  C   UNL     1      16.251  12.158  31.564  0.00  0.00    +0.000 C 
ATOM     17  C   UNL     1      15.983  13.160  30.516  0.00  0.00    +0.000 C 
ATOM     18  C   UNL     1      14.487  13.155  30.300  0.00  0.00    +0.000 C 
ATOM     19  C   UNL     1      13.691  13.413  31.551  0.00  0.00    +0.000 C 
ATOM     20  C   UNL     1      14.421  13.105  32.812  0.00  0.00    +0.000 C 
ENDBRANCH  14  15
ENDBRANCH   3  14
TORSDOF 3
ENDMDL
MODEL 4
REMARK VINA RESULT:      -7.5      2.482      3.639
REMARK  Name = 
REMARK  3 active torsions:
REMARK  status: ('A' for Active; 'I' for Inactive)
REMARK    1  A    between atoms: C_2  and  C_11
REMARK    2  A    between atoms: N_3  and  N_4
REMARK    3  A    between atoms: N_4  and  C_5
REMARK                            x       y       z     vdW  Elec       q    Type
REMARK                         _______ _______ _______ _____ _____    ______ ____
ROOT
ATOM      1  O   UNL     1      17.749   8.690  35.862  0.00  0.00    +0.000 OA
ATOM      2  C   UNL     1      17.715   9.915  36.169  0.00  0.00    +0.000 C 
ATOM      3  N   UNL     1      18.869  10.481  36.780  0.00  0.00    +0.000 NA
ENDROOT
BRANCH   2   4
ATOM      4  C   UNL     1      16.566  10.762  35.932  0.00  0.00    +0.000 A 
ATOM      5  C   UNL     1      15.880  11.258  37.006  0.00  0.00    +0.000 A 
ATOM      6  C   UNL     1      14.823  12.151  36.851  0.00  0.00    +0.000 A 
ATOM      7  C   UNL     1      14.451  12.552  35.585  0.00  0.00    +0.000 A 
ATOM      8  C   UNL     1      15.156  12.040  34.513  0.00  0.00    +0.000 A 
ATOM      9  C   UNL     1      14.761  12.419  33.260  0.00  0.00    +0.000 A 
ATOM     10  C   UNL     1      15.397  11.919  32.167  0.00  0.00    +0.000 A 
ATOM     11  C   UNL     1      16.448  11.031  32.281  0.00  0.00    +0.000 A 
ATOM     12  C   UNL     1      16.815  10.679  33.545  0.00  0.00    +0.000 A 
ATOM     13  C   UNL     1      16.212  11.144  34.675  0.00  0.00    +0.000 A 
ENDBRANCH   2   4
BRANCH   3  14
ATOM     14  N   UNL     1      19.989   9.898  37.076  0.00  0.00    +0.000 NA
BRANCH  14  15
ATOM     15  C   UNL     1      21.348  10.018  37.179  0.00  0.00    +0.000 C 
ATOM     16  C   UNL     1      22.175   9.456  36.272  0.00  0.00    +0.000 C 
ATOM     17  C   UNL     1      23.638   9.589  36.387  0.00  0.00    +0.000 C 
ATOM     18  C   UNL     1      23.907  11.045  36.691  0.00  0.00    +0.000 C 
ATOM     19  C   UNL     1      23.191  11.553  37.914  0.00  0.00    +0.000 C 
ATOM     20  C   UNL     1      21.987  10.761  38.289  0.00  0.00    +0.000 C 
ENDBRANCH  14  15
ENDBRANCH   3  14
TORSDOF 3
ENDMDL
MODEL 5
REMARK VINA RESULT:      -7.4     27.459     30.443
REMARK  Name = 
REMARK  3 active torsions:
REMARK  status: ('A' for Active; 'I' for Inactive)
REMARK    1  A    between atoms: C_2  and  C_11
REMARK    2  A    between atoms: N_3  and  N_4
REMARK    3  A    between atoms: N_4  and  C_5
REMARK                            x       y       z     vdW  Elec       q    Type
REMARK                         _______ _______ _______ _____ _____    ______ ____
ROOT
ATOM      1  O   UNL     1      31.014  20.135  12.859  0.00  0.00    +0.000 OA
ATOM      2  C   UNL     1      31.735  20.936  12.200  0.00  0.00    +0.000 C 
ATOM      3  N   UNL     1      31.310  22.292  12.106  0.00  0.00    +0.000 NA
ENDROOT
BRANCH   2   4
ATOM      4  C   UNL     1      32.961  20.544  11.540  0.00  0.00    +0.000 A 
ATOM      5  C   UNL     1      34.069  20.293  12.302  0.00  0.00    +0.000 A 
ATOM      6  C   UNL     1      35.253  19.824  11.740  0.00  0.00    +0.000 A 
ATOM      7  C   UNL     1      35.321  19.603  10.381  0.00  0.00    +0.000 A 
ATOM      8  C   UNL     1      34.192  19.862   9.629  0.00  0.00    +0.000 A 
ATOM      9  C   UNL     1      34.278  19.668   8.278  0.00  0.00    +0.000 A 
ATOM     10  C   UNL     1      33.207  19.939   7.484  0.00  0.00    +0.000 A 
ATOM     11  C   UNL     1      32.017  20.407   8.003  0.00  0.00    +0.000 A 
ATOM     12  C   UNL     1      31.969  20.584   9.354  0.00  0.00    +0.000 A 
ATOM     13  C   UNL     1      33.010  20.333  10.197  0.00  0.00    +0.000 A 
ENDBRANCH   2   4
BRANCH   3  14
ATOM     14  N   UNL     1      30.252  22.839  12.618  0.00  0.00    +0.000 NA
BRANCH  14  15
ATOM     15  C   UNL     1      28.914  23.089  12.481  0.00  0.00    +0.000 C 
ATOM     16  C   UNL     1      28.152  22.389  11.613  0.00  0.00    +0.000 C 
ATOM     17  C   UNL     1      26.711  22.662  11.469  0.00  0.00    +0.000 C 
ATOM     18  C   UNL     1      26.160  22.769  12.872  0.00  0.00    +0.000 C 
ATOM     19  C   UNL     1      26.852  23.802  13.721  0.00  0.00    +0.000 C 
ATOM     20  C   UNL     1      28.229  24.142  13.264  0.00  0.00    +0.000 C 
ENDBRANCH  14  15
ENDBRANCH   3  14
TORSDOF 3
ENDMDL
MODEL 6
REMARK VINA RESULT:      -7.1     21.848     23.204
REMARK  Name = 
REMARK  3 active torsions:
REMARK  status: ('A' for Active; 'I' for Inactive)
REMARK    1  A    between atoms: C_2  and  C_11
REMARK    2  A    between atoms: N_3  and  N_4
REMARK    3  A    between atoms: N_4  and  C_5
REMARK                            x       y       z     vdW  Elec       q    Type
REMARK                         _______ _______ _______ _____ _____    ______ ____
ROOT
ATOM      1  O   UNL     1      21.332  -8.105  24.035  0.00  0.00    +0.000 OA
ATOM      2  C   UNL     1      21.391  -7.307  25.013  0.00  0.00    +0.000 C 
ATOM      3  N   UNL     1      22.636  -6.669  25.277  0.00  0.00    +0.000 NA
ENDROOT
BRANCH   2   4
ATOM      4  C   UNL     1      20.263  -7.014  25.870  0.00  0.00    +0.000 A 
ATOM      5  C   UNL     1      19.707  -5.765  25.824  0.00  0.00    +0.000 A 
ATOM      6  C   UNL     1      18.564  -5.446  26.553  0.00  0.00    +0.000 A 
ATOM      7  C   UNL     1      17.972  -6.405  27.345  0.00  0.00    +0.000 A 
ATOM      8  C   UNL     1      18.549  -7.660  27.379  0.00  0.00    +0.000 A 
ATOM      9  C   UNL     1      17.972  -8.597  28.190  0.00  0.00    +0.000 A 
ATOM     10  C   UNL     1      18.518  -9.839  28.288  0.00  0.00    +0.000 A 
ATOM     11  C   UNL     1      19.649 -10.193  27.582  0.00  0.00    +0.000 A 
ATOM     12  C   UNL     1      20.194  -9.234  26.781  0.00  0.00    +0.000 A 
ATOM     13  C   UNL     1      19.694  -7.974  26.647  0.00  0.00    +0.000 A 
ENDBRANCH   2   4
BRANCH   3  14
ATOM     14  N   UNL     1      23.756  -6.795  24.635  0.00  0.00    +0.000 NA
BRANCH  14  15
ATOM     15  C   UNL     1      24.631  -7.649  24.023  0.00  0.00    +0.000 C 
ATOM     16  C   UNL     1      25.610  -7.192  23.212  0.00  0.00    +0.000 C 
ATOM     17  C   UNL     1      26.551  -8.116  22.555  0.00  0.00    +0.000 C 
ATOM     18  C   UNL     1      26.998  -9.092  23.620  0.00  0.00    +0.000 C 
ATOM     19  C   UNL     1      25.864  -9.818  24.294  0.00  0.00    +0.000 C 
ATOM     20  C   UNL     1      24.553  -9.116  24.206  0.00  0.00    +0.000 C 
ENDBRANCH  14  15
ENDBRANCH   3  14
TORSDOF 3
ENDMDL
MODEL 7
REMARK VINA RESULT:      -7.1      3.721      8.261
REMARK  Name = 
REMARK  3 active torsions:
REMARK  status: ('A' for Active; 'I' for Inactive)
REMARK    1  A    between atoms: C_2  and  C_11
REMARK    2  A    between atoms: N_3  and  N_4
REMARK    3  A    between atoms: N_4  and  C_5
REMARK                            x       y       z     vdW  Elec       q    Type
REMARK                         _______ _______ _______ _____ _____    ______ ____
ROOT
ATOM      1  O   UNL     1      20.594   9.301  38.847  0.00  0.00    +0.000 OA
ATOM      2  C   UNL     1      20.863   9.830  37.731  0.00  0.00    +0.000 C 
ATOM      3  N   UNL     1      19.779  10.132  36.859  0.00  0.00    +0.000 NA
ENDROOT
BRANCH   2   4
ATOM      4  C   UNL     1      22.209  10.138  37.302  0.00  0.00    +0.000 A 
ATOM      5  C   UNL     1      22.863   9.250  36.493  0.00  0.00    +0.000 A 
ATOM      6  C   UNL     1      24.123   9.527  35.970  0.00  0.00    +0.000 A 
ATOM      7  C   UNL     1      24.736  10.725  36.268  0.00  0.00    +0.000 A 
ATOM      8  C   UNL     1      24.060  11.609  37.086  0.00  0.00    +0.000 A 
ATOM      9  C   UNL     1      24.688  12.781  37.402  0.00  0.00    +0.000 A 
ATOM     10  C   UNL     1      24.083  13.674  38.231  0.00  0.00    +0.000 A 
ATOM     11  C   UNL     1      22.835  13.435  38.770  0.00  0.00    +0.000 A 
ATOM     12  C   UNL     1      22.239  12.257  38.431  0.00  0.00    +0.000 A 
ATOM     13  C   UNL     1      22.799  11.325  37.609  0.00  0.00    +0.000 A 
ENDBRANCH   2   4
BRANCH   3  14
ATOM     14  N   UNL     1      18.512   9.934  37.054  0.00  0.00    +0.000 NA
BRANCH  14  15
ATOM     15  C   UNL     1      17.244  10.427  36.912  0.00  0.00    +0.000 C 
ATOM     16  C   UNL     1      16.448  10.641  37.982  0.00  0.00    +0.000 C 
ATOM     17  C   UNL     1      15.083  11.173  37.824  0.00  0.00    +0.000 C 
ATOM     18  C   UNL     1      15.189  12.329  36.857  0.00  0.00    +0.000 C 
ATOM     19  C   UNL     1      15.814  11.963  35.537  0.00  0.00    +0.000 C 
ATOM     20  C   UNL     1      16.671  10.746  35.585  0.00  0.00    +0.000 C 
ENDBRANCH  14  15
ENDBRANCH   3  14
TORSDOF 3
ENDMDL
MODEL 8
REMARK VINA RESULT:      -7.0     21.501     23.805
REMARK  Name = 
REMARK  3 active torsions:
REMARK  status: ('A' for Active; 'I' for Inactive)
REMARK    1  A    between atoms: C_2  and  C_11
REMARK    2  A    between atoms: N_3  and  N_4
REMARK    3  A    between atoms: N_4  and  C_5
REMARK                            x       y       z     vdW  Elec       q    Type
REMARK                         _______ _______ _______ _____ _____    ______ ____
ROOT
ATOM      1  O   UNL     1      29.669  24.340  20.766  0.00  0.00    +0.000 OA
ATOM      2  C   UNL     1      29.397  24.862  21.884  0.00  0.00    +0.000 C 
ATOM      3  N   UNL     1      29.026  26.237  21.904  0.00  0.00    +0.000 NA
ENDROOT
BRANCH   2   4
ATOM      4  C   UNL     1      29.447  24.136  23.134  0.00  0.00    +0.000 A 
ATOM      5  C   UNL     1      30.661  23.938  23.733  0.00  0.00    +0.000 A 
ATOM      6  C   UNL     1      30.771  23.329  24.980  0.00  0.00    +0.000 A 
ATOM      7  C   UNL     1      29.633  22.911  25.636  0.00  0.00    +0.000 A 
ATOM      8  C   UNL     1      28.417  23.120  25.015  0.00  0.00    +0.000 A 
ATOM      9  C   UNL     1      27.296  22.675  25.659  0.00  0.00    +0.000 A 
ATOM     10  C   UNL     1      26.075  22.823  25.079  0.00  0.00    +0.000 A 
ATOM     11  C   UNL     1      25.926  23.421  23.843  0.00  0.00    +0.000 A 
ATOM     12  C   UNL     1      27.065  23.854  23.233  0.00  0.00    +0.000 A 
ATOM     13  C   UNL     1      28.314  23.729  23.765  0.00  0.00    +0.000 A 
ENDBRANCH   2   4
BRANCH   3  14
ATOM     14  N   UNL     1      28.923  27.056  20.904  0.00  0.00    +0.000 NA
BRANCH  14  15
ATOM     15  C   UNL     1      29.581  27.774  19.944  0.00  0.00    +0.000 C 
ATOM     16  C   UNL     1      29.788  29.102  20.077  0.00  0.00    +0.000 C 
ATOM     17  C   UNL     1      30.498  29.872  19.040  0.00  0.00    +0.000 C 
ATOM     18  C   UNL     1      31.719  29.061  18.674  0.00  0.00    +0.000 C 
ATOM     19  C   UNL     1      31.407  27.658  18.227  0.00  0.00    +0.000 C 
ATOM     20  C   UNL     1      30.094  27.144  18.706  0.00  0.00    +0.000 C 
ENDBRANCH  14  15
ENDBRANCH   3  14
TORSDOF 3
ENDMDL
MODEL 9
REMARK VINA RESULT:      -6.9     20.937     22.207
REMARK  Name = 
REMARK  3 active torsions:
REMARK  status: ('A' for Active; 'I' for Inactive)
REMARK    1  A    between atoms: C_2  and  C_11
REMARK    2  A    between atoms: N_3  and  N_4
REMARK    3  A    between atoms: N_4  and  C_5
REMARK                            x       y       z     vdW  Elec       q    Type
REMARK                         _______ _______ _______ _____ _____    ______ ____
ROOT
ATOM      1  O   UNL     1      17.029  -9.625  27.118  0.00  0.00    +0.000 OA
ATOM      2  C   UNL     1      17.831  -8.844  27.702  0.00  0.00    +0.000 C 
ATOM      3  N   UNL     1      18.176  -9.131  29.053  0.00  0.00    +0.000 NA
ENDROOT
BRANCH   2   4
ATOM      4  C   UNL     1      18.409  -7.678  27.069  0.00  0.00    +0.000 A 
ATOM      5  C   UNL     1      17.783  -6.471  27.215  0.00  0.00    +0.000 A 
ATOM      6  C   UNL     1      18.334  -5.296  26.709  0.00  0.00    +0.000 A 
ATOM      7  C   UNL     1      19.540  -5.341  26.043  0.00  0.00    +0.000 A 
ATOM      8  C   UNL     1      20.156  -6.569  25.906  0.00  0.00    +0.000 A 
ATOM      9  C   UNL     1      21.337  -6.609  25.218  0.00  0.00    +0.000 A 
ATOM     10  C   UNL     1      21.970  -7.797  25.024  0.00  0.00    +0.000 A 
ATOM     11  C   UNL     1      21.455  -8.982  25.509  0.00  0.00    +0.000 A 
ATOM     12  C   UNL     1      20.278  -8.903  26.191  0.00  0.00    +0.000 A 
ATOM     13  C   UNL     1      19.599  -7.743  26.413  0.00  0.00    +0.000 A 
ENDBRANCH   2   4
BRANCH   3  14
ATOM     14  N   UNL     1      17.770 -10.115  29.794  0.00  0.00    +0.000 NA
BRANCH  14  15
ATOM     15  C   UNL     1      16.773 -10.613  30.587  0.00  0.00    +0.000 C 
ATOM     16  C   UNL     1      16.604 -10.185  31.856  0.00  0.00    +0.000 C 
ATOM     17  C   UNL     1      15.527 -10.724  32.706  0.00  0.00    +0.000 C 
ATOM     18  C   UNL     1      14.279 -10.729  31.855  0.00  0.00    +0.000 C 
ATOM     19  C   UNL     1      14.424 -11.495  30.567  0.00  0.00    +0.000 C 
ATOM     20  C   UNL     1      15.832 -11.649  30.105  0.00  0.00    +0.000 C 
ENDBRANCH  14  15
ENDBRANCH   3  14
TORSDOF 3
ENDMDL
MODEL 10
REMARK VINA RESULT:      -6.9     22.053     23.447
REMARK  Name = 
REMARK  3 active torsions:
REMARK  status: ('A' for Active; 'I' for Inactive)
REMARK    1  A    between atoms: C_2  and  C_11
REMARK    2  A    between atoms: N_3  and  N_4
REMARK    3  A    between atoms: N_4  and  C_5
REMARK                            x       y       z     vdW  Elec       q    Type
REMARK                         _______ _______ _______ _____ _____    ______ ____
ROOT
ATOM      1  O   UNL     1      22.476  -9.329  26.192  0.00  0.00    +0.000 OA
ATOM      2  C   UNL     1      21.417  -9.030  25.572  0.00  0.00    +0.000 C 
ATOM      3  N   UNL     1      21.493  -8.875  24.159  0.00  0.00    +0.000 NA
ENDROOT
BRANCH   2   4
ATOM      4  C   UNL     1      20.141  -8.836  26.226  0.00  0.00    +0.000 A 
ATOM      5  C   UNL     1      19.508  -9.919  26.771  0.00  0.00    +0.000 A 
ATOM      6  C   UNL     1      18.325  -9.789  27.493  0.00  0.00    +0.000 A 
ATOM      7  C   UNL     1      17.769  -8.540  27.669  0.00  0.00    +0.000 A 
ATOM      8  C   UNL     1      18.423  -7.459  27.112  0.00  0.00    +0.000 A 
ATOM      9  C   UNL     1      17.849  -6.228  27.267  0.00  0.00    +0.000 A 
ATOM     10  C   UNL     1      18.431  -5.132  26.710  0.00  0.00    +0.000 A 
ATOM     11  C   UNL     1      19.604  -5.221  25.987  0.00  0.00    +0.000 A 
ATOM     12  C   UNL     1      20.148  -6.463  25.857  0.00  0.00    +0.000 A 
ATOM     13  C   UNL     1      19.607  -7.596  26.389  0.00  0.00    +0.000 A 
ENDBRANCH   2   4
BRANCH   3  14
ATOM     14  N   UNL     1      22.530  -9.003  23.392  0.00  0.00    +0.000 NA
BRANCH  14  15
ATOM     15  C   UNL     1      23.731  -8.480  22.998  0.00  0.00    +0.000 C 
ATOM     16  C   UNL     1      24.325  -7.483  23.688  0.00  0.00    +0.000 C 
ATOM     17  C   UNL     1      25.620  -6.924  23.260  0.00  0.00    +0.000 C 
ATOM     18  C   UNL     1      26.506  -8.106  22.941  0.00  0.00    +0.000 C 
ATOM     19  C   UNL     1      25.925  -9.044  21.918  0.00  0.00    +0.000 C 
ATOM     20  C   UNL     1      24.442  -8.969  21.795  0.00  0.00    +0.000 C 
ENDBRANCH  14  15
ENDBRANCH   3  14
TORSDOF 3
ENDMDL
