MODEL 1
REMARK VINA RESULT:      -6.8      0.000      0.000
REMARK  Name = 
REMARK  5 active torsions:
REMARK  status: ('A' for Active; 'I' for Inactive)
REMARK    1  A    between atoms: C_2  and  C_3
REMARK    2  A    between atoms: C_3  and  C_4
REMARK    3  A    between atoms: C_4  and  C_5
REMARK    4  A    between atoms: C_5  and  C_6
REMARK    5  A    between atoms: C_9  and  C_10
REMARK                            x       y       z     vdW  Elec       q    Type
REMARK                         _______ _______ _______ _____ _____    ______ ____
ROOT
ATOM      1  C   UNL     1      16.119  11.073  33.002  0.00  0.00    +0.000 A 
ATOM      2  C   UNL     1      17.170  10.188  33.114  0.00  0.00    +0.000 A 
ATOM      3  C   UNL     1      17.698   9.923  34.360  0.00  0.00    +0.000 A 
ATOM      4  C   UNL     1      17.225  10.503  35.521  0.00  0.00    +0.000 A 
ATOM      5  C   UNL     1      16.179  11.382  35.393  0.00  0.00    +0.000 A 
ATOM      6  C   UNL     1      15.639  11.658  34.153  0.00  0.00    +0.000 A 
ENDROOT
BRANCH   4   7
ATOM      7  C   UNL     1      17.821  10.191  36.829  0.00  0.00    +0.000 C 
ATOM      8  C   UNL     1      17.114  10.194  37.924  0.00  0.00    +0.000 C 
ATOM      9  C   UNL     1      17.624   9.894  39.269  0.00  0.00    +0.000 C 
ATOM     10  C   UNL     1      19.060   9.569  39.330  0.00  0.00    +0.000 C 
ATOM     11  O   UNL     1      19.552   9.306  40.443  0.00  0.00    +0.000 OA
ATOM     12  N   UNL     1      19.823   9.566  38.142  0.00  0.00    +0.000 NA
ATOM     13  N   UNL     1      19.201   9.872  36.930  0.00  0.00    +0.000 NA
ENDBRANCH   4   7
BRANCH   1  14
ATOM     14  C   UNL     1      15.534  11.377  31.685  0.00  0.00    +0.000 C 
BRANCH  14  15
ATOM     15  C   UNL     1      16.131  12.627  31.101  0.00  0.00    +0.000 C 
BRANCH  15  16
ATOM     16  C   UNL     1      15.017  13.390  30.395  0.00  0.00    +0.000 C 
BRANCH  16  18
ATOM     17  C   UNL     1      13.731  14.498  32.146  0.00  0.00    +0.000 C 
ATOM     18  C   UNL     1      13.784  13.264  31.270  0.00  0.00    +0.000 C 
ENDBRANCH  16  18
ENDBRANCH  15  16
ENDBRANCH  14  15
ENDBRANCH   1  14
TORSDOF 5
ENDMDL
MODEL 2
REMARK VINA RESULT:      -6.6      3.766      7.579
REMARK  Name = 
REMARK  5 active torsions:
REMARK  status: ('A' for Active; 'I' for Inactive)
REMARK    1  A    between atoms: C_2  and  C_3
REMARK    2  A    between atoms: C_3  and  C_4
REMARK    3  A    between atoms: C_4  and  C_5
REMARK    4  A    between atoms: C_5  and  C_6
REMARK    5  A    between atoms: C_9  and  C_10
REMARK                            x       y       z     vdW  Elec       q    Type
REMARK                         _______ _______ _______ _____ _____    ______ ____
ROOT
ATOM      1  C   UNL     1      17.909   9.613  37.115  0.00  0.00    +0.000 A 
ATOM      2  C   UNL     1      16.960  10.609  37.198  0.00  0.00    +0.000 A 
ATOM      3  C   UNL     1      16.389  11.093  36.039  0.00  0.00    +0.000 A 
ATOM      4  C   UNL     1      16.719  10.628  34.781  0.00  0.00    +0.000 A 
ATOM      5  C   UNL     1      17.665   9.636  34.716  0.00  0.00    +0.000 A 
ATOM      6  C   UNL     1      18.246   9.142  35.865  0.00  0.00    +0.000 A 
ENDROOT
BRANCH   4   7
ATOM      7  C   UNL     1      16.083  11.176  33.573  0.00  0.00    +0.000 C 
ATOM      8  C   UNL     1      16.350  10.708  32.386  0.00  0.00    +0.000 C 
ATOM      9  C   UNL     1      15.763  11.193  31.128  0.00  0.00    +0.000 C 
ATOM     10  C   UNL     1      14.800  12.297  31.277  0.00  0.00    +0.000 C 
ATOM     11  O   UNL     1      14.269  12.751  30.247  0.00  0.00    +0.000 OA
ATOM     12  N   UNL     1      14.514  12.801  32.565  0.00  0.00    +0.000 NA
ATOM     13  N   UNL     1      15.150  12.240  33.675  0.00  0.00    +0.000 NA
ENDBRANCH   4   7
BRANCH   1  14
ATOM     14  C   UNL     1      18.537   9.076  38.334  0.00  0.00    +0.000 C 
BRANCH  14  15
ATOM     15  C   UNL     1      18.176   9.899  39.539  0.00  0.00    +0.000 C 
BRANCH  15  16
ATOM     16  C   UNL     1      17.603   8.958  40.592  0.00  0.00    +0.000 C 
BRANCH  16  18
ATOM     17  C   UNL     1      15.444   8.201  41.435  0.00  0.00    +0.000 C 
ATOM     18  C   UNL     1      16.162   9.379  40.811  0.00  0.00    +0.000 C 
ENDBRANCH  16  18
ENDBRANCH  15  16
ENDBRANCH  14  15
ENDBRANCH   1  14
TORSDOF 5
ENDMDL
MODEL 3
REMARK VINA RESULT:      -6.5      3.801      7.140
REMARK  Name = 
REMARK  5 active torsions:
REMARK  status: ('A' for Active; 'I' for Inactive)
REMARK    1  A    between atoms: C_2  and  C_3
REMARK    2  A    between atoms: C_3  and  C_4
REMARK    3  A    between atoms: C_4  and  C_5
REMARK    4  A    between atoms: C_5  and  C_6
REMARK    5  A    between atoms: C_9  and  C_10
REMARK                            x       y       z     vdW  Elec       q    Type
REMARK                         _______ _______ _______ _____ _____    ______ ____
ROOT
ATOM      1  C   UNL     1      17.939   9.704  37.078  0.00  0.00    +0.000 A 
ATOM      2  C   UNL     1      16.835  10.524  37.158  0.00  0.00    +0.000 A 
ATOM      3  C   UNL     1      16.258  10.994  35.996  0.00  0.00    +0.000 A 
ATOM      4  C   UNL     1      16.732  10.682  34.737  0.00  0.00    +0.000 A 
ATOM      5  C   UNL     1      17.833   9.864  34.674  0.00  0.00    +0.000 A 
ATOM      6  C   UNL     1      18.421   9.386  35.827  0.00  0.00    +0.000 A 
ENDROOT
BRANCH   4   7
ATOM      7  C   UNL     1      16.085  11.208  33.525  0.00  0.00    +0.000 C 
ATOM      8  C   UNL     1      15.181  12.145  33.582  0.00  0.00    +0.000 C 
ATOM      9  C   UNL     1      14.484  12.728  32.426  0.00  0.00    +0.000 C 
ATOM     10  C   UNL     1      14.878  12.173  31.120  0.00  0.00    +0.000 C 
ATOM     11  O   UNL     1      14.322  12.626  30.102  0.00  0.00    +0.000 OA
ATOM     12  N   UNL     1      15.856  11.157  31.063  0.00  0.00    +0.000 NA
ATOM     13  N   UNL     1      16.435  10.698  32.247  0.00  0.00    +0.000 NA
ENDBRANCH   4   7
BRANCH   1  14
ATOM     14  C   UNL     1      18.578   9.186  38.301  0.00  0.00    +0.000 C 
BRANCH  14  15
ATOM     15  C   UNL     1      19.082  10.308  39.166  0.00  0.00    +0.000 C 
BRANCH  15  16
ATOM     16  C   UNL     1      20.335  10.876  38.511  0.00  0.00    +0.000 C 
BRANCH  16  18
ATOM     17  C   UNL     1      19.412  13.084  38.040  0.00  0.00    +0.000 C 
ATOM     18  C   UNL     1      20.405  12.339  38.907  0.00  0.00    +0.000 C 
ENDBRANCH  16  18
ENDBRANCH  15  16
ENDBRANCH  14  15
ENDBRANCH   1  14
TORSDOF 5
ENDMDL
MODEL 4
REMARK VINA RESULT:      -6.2      3.763      7.752
REMARK  Name = 
REMARK  5 active torsions:
REMARK  status: ('A' for Active; 'I' for Inactive)
REMARK    1  A    between atoms: C_2  and  C_3
REMARK    2  A    between atoms: C_3  and  C_4
REMARK    3  A    between atoms: C_4  and  C_5
REMARK    4  A    between atoms: C_5  and  C_6
REMARK    5  A    between atoms: C_9  and  C_10
REMARK                            x       y       z     vdW  Elec       q    Type
REMARK                         _______ _______ _______ _____ _____    ______ ____
ROOT
ATOM      1  C   UNL     1      17.372  10.114  37.896  0.00  0.00    +0.000 A 
ATOM      2  C   UNL     1      18.031   9.692  36.761  0.00  0.00    +0.000 A 
ATOM      3  C   UNL     1      17.556  10.076  35.524  0.00  0.00    +0.000 A 
ATOM      4  C   UNL     1      16.440  10.873  35.356  0.00  0.00    +0.000 A 
ATOM      5  C   UNL     1      15.796  11.285  36.496  0.00  0.00    +0.000 A 
ATOM      6  C   UNL     1      16.258  10.910  37.740  0.00  0.00    +0.000 A 
ENDROOT
BRANCH   4   7
ATOM      7  C   UNL     1      15.971  11.257  34.016  0.00  0.00    +0.000 C 
ATOM      8  C   UNL     1      16.396  10.653  32.942  0.00  0.00    +0.000 C 
ATOM      9  C   UNL     1      15.981  10.969  31.567  0.00  0.00    +0.000 C 
ATOM     10  C   UNL     1      15.003  12.064  31.450  0.00  0.00    +0.000 C 
ATOM     11  O   UNL     1      14.614  12.378  30.310  0.00  0.00    +0.000 OA
ATOM     12  N   UNL     1      14.546  12.715  32.616  0.00  0.00    +0.000 NA
ATOM     13  N   UNL     1      15.029  12.307  33.860  0.00  0.00    +0.000 NA
ENDBRANCH   4   7
BRANCH   1  14
ATOM     14  C   UNL     1      17.854   9.721  39.231  0.00  0.00    +0.000 C 
BRANCH  14  15
ATOM     15  C   UNL     1      18.760   8.524  39.150  0.00  0.00    +0.000 C 
BRANCH  15  16
ATOM     16  C   UNL     1      18.745   7.834  40.509  0.00  0.00    +0.000 C 
BRANCH  16  18
ATOM     17  C   UNL     1      17.141   6.111  41.144  0.00  0.00    +0.000 C 
ATOM     18  C   UNL     1      17.288   7.590  40.854  0.00  0.00    +0.000 C 
ENDBRANCH  16  18
ENDBRANCH  15  16
ENDBRANCH  14  15
ENDBRANCH   1  14
TORSDOF 5
ENDMDL
MODEL 5
REMARK VINA RESULT:      -6.0     20.788     22.515
REMARK  Name = 
REMARK  5 active torsions:
REMARK  status: ('A' for Active; 'I' for Inactive)
REMARK    1  A    between atoms: C_2  and  C_3
REMARK    2  A    between atoms: C_3  and  C_4
REMARK    3  A    between atoms: C_4  and  C_5
REMARK    4  A    between atoms: C_5  and  C_6
REMARK    5  A    between atoms: C_9  and  C_10
REMARK                            x       y       z     vdW  Elec       q    Type
REMARK                         _______ _______ _______ _____ _____    ______ ____
ROOT
ATOM      1  C   UNL     1      24.265  -7.205  23.824  0.00  0.00    +0.000 A 
ATOM      2  C   UNL     1      23.682  -8.290  24.442  0.00  0.00    +0.000 A 
ATOM      3  C   UNL     1      22.432  -8.151  25.008  0.00  0.00    +0.000 A 
ATOM      4  C   UNL     1      21.719  -6.968  24.989  0.00  0.00    +0.000 A 
ATOM      5  C   UNL     1      22.313  -5.897  24.369  0.00  0.00    +0.000 A 
ATOM      6  C   UNL     1      23.563  -6.019  23.798  0.00  0.00    +0.000 A 
ENDROOT
BRANCH   4   7
ATOM      7  C   UNL     1      20.388  -6.868  25.606  0.00  0.00    +0.000 C 
ATOM      8  C   UNL     1      19.774  -7.913  26.086  0.00  0.00    +0.000 C 
ATOM      9  C   UNL     1      18.447  -7.905  26.719  0.00  0.00    +0.000 C 
ATOM     10  C   UNL     1      17.803  -6.582  26.793  0.00  0.00    +0.000 C 
ATOM     11  O   UNL     1      16.676  -6.511  27.319  0.00  0.00    +0.000 OA
ATOM     12  N   UNL     1      18.471  -5.453  26.272  0.00  0.00    +0.000 NA
ATOM     13  N   UNL     1      19.733  -5.611  25.697  0.00  0.00    +0.000 NA
ENDBRANCH   4   7
BRANCH   1  14
ATOM     14  C   UNL     1      25.599  -7.320  23.210  0.00  0.00    +0.000 C 
BRANCH  14  15
ATOM     15  C   UNL     1      26.043  -8.755  23.144  0.00  0.00    +0.000 C 
BRANCH  15  16
ATOM     16  C   UNL     1      27.549  -8.768  22.912  0.00  0.00    +0.000 C 
BRANCH  16  18
ATOM     17  C   UNL     1      28.730  -7.887  20.969  0.00  0.00    +0.000 C 
ATOM     18  C   UNL     1      27.882  -7.493  22.160  0.00  0.00    +0.000 C 
ENDBRANCH  16  18
ENDBRANCH  15  16
ENDBRANCH  14  15
ENDBRANCH   1  14
TORSDOF 5
ENDMDL
MODEL 6
REMARK VINA RESULT:      -5.9      4.774      7.178
REMARK  Name = 
REMARK  5 active torsions:
REMARK  status: ('A' for Active; 'I' for Inactive)
REMARK    1  A    between atoms: C_2  and  C_3
REMARK    2  A    between atoms: C_3  and  C_4
REMARK    3  A    between atoms: C_4  and  C_5
REMARK    4  A    between atoms: C_5  and  C_6
REMARK    5  A    between atoms: C_9  and  C_10
REMARK                            x       y       z     vdW  Elec       q    Type
REMARK                         _______ _______ _______ _____ _____    ______ ____
ROOT
ATOM      1  C   UNL     1      18.963  11.188  37.917  0.00  0.00    +0.000 A 
ATOM      2  C   UNL     1      18.170  10.210  38.478  0.00  0.00    +0.000 A 
ATOM      3  C   UNL     1      16.799  10.312  38.373  0.00  0.00    +0.000 A 
ATOM      4  C   UNL     1      16.165  11.354  37.724  0.00  0.00    +0.000 A 
ATOM      5  C   UNL     1      16.968  12.319  37.170  0.00  0.00    +0.000 A 
ATOM      6  C   UNL     1      18.341  12.233  37.267  0.00  0.00    +0.000 A 
ENDROOT
BRANCH   4   7
ATOM      7  C   UNL     1      14.698  11.420  37.637  0.00  0.00    +0.000 C 
ATOM      8  C   UNL     1      14.095  12.243  36.827  0.00  0.00    +0.000 C 
ATOM      9  C   UNL     1      12.639  12.376  36.674  0.00  0.00    +0.000 C 
ATOM     10  C   UNL     1      11.841  11.481  37.530  0.00  0.00    +0.000 C 
ATOM     11  O   UNL     1      10.601  11.546  37.447  0.00  0.00    +0.000 OA
ATOM     12  N   UNL     1      12.498  10.590  38.408  0.00  0.00    +0.000 NA
ATOM     13  N   UNL     1      13.894  10.574  38.446  0.00  0.00    +0.000 NA
ENDBRANCH   4   7
BRANCH   1  14
ATOM     14  C   UNL     1      20.431  11.109  38.013  0.00  0.00    +0.000 C 
BRANCH  14  15
ATOM     15  C   UNL     1      20.971   9.999  37.155  0.00  0.00    +0.000 C 
BRANCH  15  16
ATOM     16  C   UNL     1      22.485   9.971  37.327  0.00  0.00    +0.000 C 
BRANCH  16  18
ATOM     17  C   UNL     1      24.583  10.116  36.093  0.00  0.00    +0.000 C 
ATOM     18  C   UNL     1      23.082  10.265  35.964  0.00  0.00    +0.000 C 
ENDBRANCH  16  18
ENDBRANCH  15  16
ENDBRANCH  14  15
ENDBRANCH   1  14
TORSDOF 5
ENDMDL
MODEL 7
REMARK VINA RESULT:      -5.8      3.747      7.831
REMARK  Name = 
REMARK  5 active torsions:
REMARK  status: ('A' for Active; 'I' for Inactive)
REMARK    1  A    between atoms: C_2  and  C_3
REMARK    2  A    between atoms: C_3  and  C_4
REMARK    3  A    between atoms: C_4  and  C_5
REMARK    4  A    between atoms: C_5  and  C_6
REMARK    5  A    between atoms: C_9  and  C_10
REMARK                            x       y       z     vdW  Elec       q    Type
REMARK                         _______ _______ _______ _____ _____    ______ ____
ROOT
ATOM      1  C   UNL     1      17.822   9.694  37.228  0.00  0.00    +0.000 A 
ATOM      2  C   UNL     1      16.757  10.568  37.277  0.00  0.00    +0.000 A 
ATOM      3  C   UNL     1      16.214  11.036  36.099  0.00  0.00    +0.000 A 
ATOM      4  C   UNL     1      16.684  10.671  34.852  0.00  0.00    +0.000 A 
ATOM      5  C   UNL     1      17.744   9.799  34.821  0.00  0.00    +0.000 A 
ATOM      6  C   UNL     1      18.299   9.323  35.990  0.00  0.00    +0.000 A 
ENDROOT
BRANCH   4   7
ATOM      7  C   UNL     1      16.073  11.196  33.621  0.00  0.00    +0.000 C 
ATOM      8  C   UNL     1      16.376  10.718  32.447  0.00  0.00    +0.000 C 
ATOM      9  C   UNL     1      15.816  11.180  31.169  0.00  0.00    +0.000 C 
ATOM     10  C   UNL     1      14.837  12.275  31.281  0.00  0.00    +0.000 C 
ATOM     11  O   UNL     1      14.327  12.711  30.231  0.00  0.00    +0.000 OA
ATOM     12  N   UNL     1      14.513  12.791  32.554  0.00  0.00    +0.000 NA
ATOM     13  N   UNL     1      15.126  12.252  33.686  0.00  0.00    +0.000 NA
ENDBRANCH   4   7
BRANCH   1  14
ATOM     14  C   UNL     1      18.423   9.177  38.470  0.00  0.00    +0.000 C 
BRANCH  14  15
ATOM     15  C   UNL     1      19.687   9.917  38.809  0.00  0.00    +0.000 C 
BRANCH  15  16
ATOM     16  C   UNL     1      20.015   9.635  40.270  0.00  0.00    +0.000 C 
BRANCH  16  18
ATOM     17  C   UNL     1      22.183   9.093  39.295  0.00  0.00    +0.000 C 
ATOM     18  C   UNL     1      21.133   8.610  40.273  0.00  0.00    +0.000 C 
ENDBRANCH  16  18
ENDBRANCH  15  16
ENDBRANCH  14  15
ENDBRANCH   1  14
TORSDOF 5
ENDMDL
MODEL 8
REMARK VINA RESULT:      -5.8      3.547      7.979
REMARK  Name = 
REMARK  5 active torsions:
REMARK  status: ('A' for Active; 'I' for Inactive)
REMARK    1  A    between atoms: C_2  and  C_3
REMARK    2  A    between atoms: C_3  and  C_4
REMARK    3  A    between atoms: C_4  and  C_5
REMARK    4  A    between atoms: C_5  and  C_6
REMARK    5  A    between atoms: C_9  and  C_10
REMARK                            x       y       z     vdW  Elec       q    Type
REMARK                         _______ _______ _______ _____ _____    ______ ____
ROOT
ATOM      1  C   UNL     1      17.922   9.465  39.209  0.00  0.00    +0.000 A 
ATOM      2  C   UNL     1      18.636   9.126  38.080  0.00  0.00    +0.000 A 
ATOM      3  C   UNL     1      18.187   9.552  36.847  0.00  0.00    +0.000 A 
ATOM      4  C   UNL     1      17.045  10.311  36.677  0.00  0.00    +0.000 A 
ATOM      5  C   UNL     1      16.347  10.640  37.812  0.00  0.00    +0.000 A 
ATOM      6  C   UNL     1      16.781  10.222  39.052  0.00  0.00    +0.000 A 
ENDROOT
BRANCH   4   7
ATOM      7  C   UNL     1      16.605  10.741  35.341  0.00  0.00    +0.000 C 
ATOM      8  C   UNL     1      17.126  10.244  34.255  0.00  0.00    +0.000 C 
ATOM      9  C   UNL     1      16.749  10.614  32.883  0.00  0.00    +0.000 C 
ATOM     10  C   UNL     1      15.689  11.632  32.784  0.00  0.00    +0.000 C 
ATOM     11  O   UNL     1      15.326  11.987  31.647  0.00  0.00    +0.000 OA
ATOM     12  N   UNL     1      15.127  12.168  33.963  0.00  0.00    +0.000 NA
ATOM     13  N   UNL     1      15.587  11.721  35.203  0.00  0.00    +0.000 NA
ENDBRANCH   4   7
BRANCH   1  14
ATOM     14  C   UNL     1      18.375   9.026  40.540  0.00  0.00    +0.000 C 
BRANCH  14  15
ATOM     15  C   UNL     1      18.545   7.533  40.590  0.00  0.00    +0.000 C 
BRANCH  15  16
ATOM     16  C   UNL     1      17.207   6.923  40.990  0.00  0.00    +0.000 C 
BRANCH  16  18
ATOM     17  C   UNL     1      18.758   5.041  40.970  0.00  0.00    +0.000 C 
ATOM     18  C   UNL     1      17.517   5.589  41.642  0.00  0.00    +0.000 C 
ENDBRANCH  16  18
ENDBRANCH  15  16
ENDBRANCH  14  15
ENDBRANCH   1  14
TORSDOF 5
ENDMDL
MODEL 9
REMARK VINA RESULT:      -5.5     20.410     21.532
REMARK  Name = 
REMARK  5 active torsions:
REMARK  status: ('A' for Active; 'I' for Inactive)
REMARK    1  A    between atoms: C_2  and  C_3
REMARK    2  A    between atoms: C_3  and  C_4
REMARK    3  A    between atoms: C_4  and  C_5
REMARK    4  A    between atoms: C_5  and  C_6
REMARK    5  A    between atoms: C_9  and  C_10
REMARK                            x       y       z     vdW  Elec       q    Type
REMARK                         _______ _______ _______ _____ _____    ______ ____
ROOT
ATOM      1  C   UNL     1      25.579   4.423  18.047  0.00  0.00    +0.000 A 
ATOM      2  C   UNL     1      24.946   3.598  18.951  0.00  0.00    +0.000 A 
ATOM      3  C   UNL     1      23.813   2.914  18.560  0.00  0.00    +0.000 A 
ATOM      4  C   UNL     1      23.269   3.011  17.294  0.00  0.00    +0.000 A 
ATOM      5  C   UNL     1      23.912   3.837  16.406  0.00  0.00    +0.000 A 
ATOM      6  C   UNL     1      25.046   4.528  16.781  0.00  0.00    +0.000 A 
ENDROOT
BRANCH   4   7
ATOM      7  C   UNL     1      22.058   2.263  16.923  0.00  0.00    +0.000 C 
ATOM      8  C   UNL     1      20.943   2.394  17.585  0.00  0.00    +0.000 C 
ATOM      9  C   UNL     1      19.688   1.688  17.285  0.00  0.00    +0.000 C 
ATOM     10  C   UNL     1      19.750   0.773  16.133  0.00  0.00    +0.000 C 
ATOM     11  O   UNL     1      18.718   0.146  15.830  0.00  0.00    +0.000 OA
ATOM     12  N   UNL     1      20.961   0.634  15.420  0.00  0.00    +0.000 NA
ATOM     13  N   UNL     1      22.078   1.370  15.820  0.00  0.00    +0.000 NA
ENDBRANCH   4   7
BRANCH   1  14
ATOM     14  C   UNL     1      26.791   5.167  18.433  0.00  0.00    +0.000 C 
BRANCH  14  15
ATOM     15  C   UNL     1      26.757   6.573  17.901  0.00  0.00    +0.000 C 
BRANCH  15  16
ATOM     16  C   UNL     1      28.190   6.991  17.596  0.00  0.00    +0.000 C 
BRANCH  16  18
ATOM     17  C   UNL     1      27.359   7.213  15.314  0.00  0.00    +0.000 C 
ATOM     18  C   UNL     1      28.457   6.598  16.155  0.00  0.00    +0.000 C 
ENDBRANCH  16  18
ENDBRANCH  15  16
ENDBRANCH  14  15
ENDBRANCH   1  14
TORSDOF 5
ENDMDL
MODEL 10
REMARK VINA RESULT:      -5.4      3.712      8.666
REMARK  Name = 
REMARK  5 active torsions:
REMARK  status: ('A' for Active; 'I' for Inactive)
REMARK    1  A    between atoms: C_2  and  C_3
REMARK    2  A    between atoms: C_3  and  C_4
REMARK    3  A    between atoms: C_4  and  C_5
REMARK    4  A    between atoms: C_5  and  C_6
REMARK    5  A    between atoms: C_9  and  C_10
REMARK                            x       y       z     vdW  Elec       q    Type
REMARK                         _______ _______ _______ _____ _____    ______ ____
ROOT
ATOM      1  C   UNL     1      17.266   9.431  42.094  0.00  0.00    +0.000 A 
ATOM      2  C   UNL     1      16.117   9.556  41.343  0.00  0.00    +0.000 A 
ATOM      3  C   UNL     1      16.219   9.704  39.976  0.00  0.00    +0.000 A 
ATOM      4  C   UNL     1      17.426   9.734  39.305  0.00  0.00    +0.000 A 
ATOM      5  C   UNL     1      18.561   9.609  40.067  0.00  0.00    +0.000 A 
ATOM      6  C   UNL     1      18.477   9.460  41.436  0.00  0.00    +0.000 A 
ENDROOT
BRANCH   4   7
ATOM      7  C   UNL     1      17.484   9.895  37.844  0.00  0.00    +0.000 C 
ATOM      8  C   UNL     1      18.461   9.398  37.138  0.00  0.00    +0.000 C 
ATOM      9  C   UNL     1      18.599   9.510  35.679  0.00  0.00    +0.000 C 
ATOM     10  C   UNL     1      17.519  10.253  35.008  0.00  0.00    +0.000 C 
ATOM     11  O   UNL     1      17.581  10.382  33.771  0.00  0.00    +0.000 OA
ATOM     12  N   UNL     1      16.464  10.790  35.776  0.00  0.00    +0.000 NA
ATOM     13  N   UNL     1      16.463  10.606  37.160  0.00  0.00    +0.000 NA
ENDBRANCH   4   7
BRANCH   1  14
ATOM     14  C   UNL     1      17.192   9.272  43.556  0.00  0.00    +0.000 C 
BRANCH  14  15
ATOM     15  C   UNL     1      17.833   7.985  43.995  0.00  0.00    +0.000 C 
BRANCH  15  16
ATOM     16  C   UNL     1      16.899   6.843  43.612  0.00  0.00    +0.000 C 
BRANCH  16  18
ATOM     17  C   UNL     1      17.256   5.929  41.379  0.00  0.00    +0.000 C 
ATOM     18  C   UNL     1      17.729   5.854  42.816  0.00  0.00    +0.000 C 
ENDBRANCH  16  18
ENDBRANCH  15  16
ENDBRANCH  14  15
ENDBRANCH   1  14
TORSDOF 5
ENDMDL
