MODEL 1
REMARK VINA RESULT:      -8.1      0.000      0.000
REMARK  Name = 
REMARK  3 active torsions:
REMARK  status: ('A' for Active; 'I' for Inactive)
REMARK    1  A    between atoms: C_7  and  C_8
REMARK    2  A    between atoms: N_10  and  C_11
REMARK    3  A    between atoms: C_13  and  N_14
REMARK                            x       y       z     vdW  Elec       q    Type
REMARK                         _______ _______ _______ _____ _____    ______ ____
ROOT
ATOM      1  C   UNL     1      15.855  11.570  35.115  0.00  0.00    +0.000 C 
ATOM      2  O   UNL     1      16.171  10.399  34.777  0.00  0.00    +0.000 OA
ATOM      3  N   UNL     1      16.251  12.019  36.383  0.00  0.00    +0.000 NA
ENDROOT
BRANCH   1  10
ATOM      4  C   UNL     1      12.765  15.319  34.484  0.00  0.00    +0.000 C 
ATOM      5  C   UNL     1      13.568  14.257  33.831  0.00  0.00    +0.000 A 
ATOM      6  C   UNL     1      13.612  14.056  32.473  0.00  0.00    +0.000 A 
ATOM      7  C   UNL     1      14.397  13.032  31.977  0.00  0.00    +0.000 A 
ATOM      8  C   UNL     1      14.410  12.857  30.500  0.00  0.00    +0.000 C 
ATOM      9  C   UNL     1      15.134  12.212  32.820  0.00  0.00    +0.000 A 
ATOM     10  C   UNL     1      15.092  12.411  34.174  0.00  0.00    +0.000 A 
ATOM     11  C   UNL     1      14.310  13.428  34.650  0.00  0.00    +0.000 A 
ENDBRANCH   1  10
BRANCH   3  12
ATOM     12  C   UNL     1      16.986  11.169  37.256  0.00  0.00    +0.000 A 
ATOM     13  C   UNL     1      18.336  10.880  37.050  0.00  0.00    +0.000 A 
ATOM     14  C   UNL     1      19.032  10.054  37.908  0.00  0.00    +0.000 A 
ATOM     15  C   UNL     1      18.428   9.478  39.005  0.00  0.00    +0.000 A 
ATOM     16  C   UNL     1      17.095   9.758  39.217  0.00  0.00    +0.000 A 
ATOM     17  C   UNL     1      16.400  10.583  38.360  0.00  0.00    +0.000 A 
ATOM     18  C   UNL     1      14.948  10.883  38.598  0.00  0.00    +0.000 C 
BRANCH  14  19
ATOM     19  N   UNL     1      20.406   9.767  37.688  0.00  0.00    +0.000 N 
ATOM     20  O   UNL     1      21.165   9.517  38.663  0.00  0.00    +0.000 OA
ATOM     21  O   UNL     1      20.964   9.748  36.449  0.00  0.00    +0.000 OA
ENDBRANCH  14  19
ENDBRANCH   3  12
TORSDOF 3
ENDMDL
MODEL 2
REMARK VINA RESULT:      -7.2      2.421      7.487
REMARK  Name = 
REMARK  3 active torsions:
REMARK  status: ('A' for Active; 'I' for Inactive)
REMARK    1  A    between atoms: C_7  and  C_8
REMARK    2  A    between atoms: N_10  and  C_11
REMARK    3  A    between atoms: C_13  and  N_14
REMARK                            x       y       z     vdW  Elec       q    Type
REMARK                         _______ _______ _______ _____ _____    ______ ____
ROOT
ATOM      1  C   UNL     1      17.011  11.355  36.981  0.00  0.00    +0.000 C 
ATOM      2  O   UNL     1      17.437  12.514  36.739  0.00  0.00    +0.000 OA
ATOM      3  N   UNL     1      16.129  10.772  36.060  0.00  0.00    +0.000 NA
ENDROOT
BRANCH   1  10
ATOM      4  C   UNL     1      15.753   9.118  41.154  0.00  0.00    +0.000 C 
ATOM      5  C   UNL     1      16.863   9.556  40.274  0.00  0.00    +0.000 A 
ATOM      6  C   UNL     1      18.191   9.349  40.556  0.00  0.00    +0.000 A 
ATOM      7  C   UNL     1      19.140   9.804  39.658  0.00  0.00    +0.000 A 
ATOM      8  C   UNL     1      20.564   9.555  40.011  0.00  0.00    +0.000 C 
ATOM      9  C   UNL     1      18.776  10.459  38.490  0.00  0.00    +0.000 A 
ATOM     10  C   UNL     1      17.453  10.666  38.207  0.00  0.00    +0.000 A 
ATOM     11  C   UNL     1      16.525  10.211  39.105  0.00  0.00    +0.000 A 
ENDBRANCH   1  10
BRANCH   3  12
ATOM     12  C   UNL     1      15.731  11.478  34.890  0.00  0.00    +0.000 A 
ATOM     13  C   UNL     1      14.800  12.517  34.930  0.00  0.00    +0.000 A 
ATOM     14  C   UNL     1      14.426  13.190  33.785  0.00  0.00    +0.000 A 
ATOM     15  C   UNL     1      14.956  12.868  32.553  0.00  0.00    +0.000 A 
ATOM     16  C   UNL     1      15.877  11.844  32.504  0.00  0.00    +0.000 A 
ATOM     17  C   UNL     1      16.249  11.173  33.648  0.00  0.00    +0.000 A 
ATOM     18  C   UNL     1      17.253  10.058  33.586  0.00  0.00    +0.000 C 
BRANCH  14  19
ATOM     19  N   UNL     1      13.477  14.246  33.836  0.00  0.00    +0.000 N 
ATOM     20  O   UNL     1      13.305  14.993  32.836  0.00  0.00    +0.000 OA
ATOM     21  O   UNL     1      12.725  14.504  34.939  0.00  0.00    +0.000 OA
ENDBRANCH  14  19
ENDBRANCH   3  12
TORSDOF 3
ENDMDL
MODEL 3
REMARK VINA RESULT:      -7.2      2.270      7.113
REMARK  Name = 
REMARK  3 active torsions:
REMARK  status: ('A' for Active; 'I' for Inactive)
REMARK    1  A    between atoms: C_7  and  C_8
REMARK    2  A    between atoms: N_10  and  C_11
REMARK    3  A    between atoms: C_13  and  N_14
REMARK                            x       y       z     vdW  Elec       q    Type
REMARK                         _______ _______ _______ _____ _____    ______ ____
ROOT
ATOM      1  C   UNL     1      16.758  11.631  36.560  0.00  0.00    +0.000 C 
ATOM      2  O   UNL     1      17.313  12.695  36.180  0.00  0.00    +0.000 OA
ATOM      3  N   UNL     1      15.593  11.222  35.896  0.00  0.00    +0.000 NA
ENDROOT
BRANCH   1  10
ATOM      4  C   UNL     1      16.048   9.246  40.780  0.00  0.00    +0.000 C 
ATOM      5  C   UNL     1      17.030   9.683  39.759  0.00  0.00    +0.000 A 
ATOM      6  C   UNL     1      18.375   9.413  39.825  0.00  0.00    +0.000 A 
ATOM      7  C   UNL     1      19.196   9.873  38.812  0.00  0.00    +0.000 A 
ATOM      8  C   UNL     1      20.644   9.554  38.931  0.00  0.00    +0.000 C 
ATOM      9  C   UNL     1      18.690  10.597  37.742  0.00  0.00    +0.000 A 
ATOM     10  C   UNL     1      17.349  10.867  37.674  0.00  0.00    +0.000 A 
ATOM     11  C   UNL     1      16.549  10.406  38.684  0.00  0.00    +0.000 A 
ENDBRANCH   1  10
BRANCH   3  12
ATOM     12  C   UNL     1      15.060  11.994  34.825  0.00  0.00    +0.000 A 
ATOM     13  C   UNL     1      15.436  11.784  33.498  0.00  0.00    +0.000 A 
ATOM     14  C   UNL     1      14.909  12.543  32.473  0.00  0.00    +0.000 A 
ATOM     15  C   UNL     1      13.988  13.541  32.714  0.00  0.00    +0.000 A 
ATOM     16  C   UNL     1      13.611  13.756  34.022  0.00  0.00    +0.000 A 
ATOM     17  C   UNL     1      14.138  12.997  35.044  0.00  0.00    +0.000 A 
ATOM     18  C   UNL     1      13.721  13.238  36.467  0.00  0.00    +0.000 C 
BRANCH  14  19
ATOM     19  N   UNL     1      15.298  12.320  31.125  0.00  0.00    +0.000 N 
ATOM     20  O   UNL     1      14.649  11.516  30.403  0.00  0.00    +0.000 OA
ATOM     21  O   UNL     1      16.364  12.942  30.556  0.00  0.00    +0.000 OA
ENDBRANCH  14  19
ENDBRANCH   3  12
TORSDOF 3
ENDMDL
MODEL 4
REMARK VINA RESULT:      -7.2      2.484      7.573
REMARK  Name = 
REMARK  3 active torsions:
REMARK  status: ('A' for Active; 'I' for Inactive)
REMARK    1  A    between atoms: C_7  and  C_8
REMARK    2  A    between atoms: N_10  and  C_11
REMARK    3  A    between atoms: C_13  and  N_14
REMARK                            x       y       z     vdW  Elec       q    Type
REMARK                         _______ _______ _______ _____ _____    ______ ____
ROOT
ATOM      1  C   UNL     1      16.866  11.541  36.683  0.00  0.00    +0.000 C 
ATOM      2  O   UNL     1      17.445  12.589  36.297  0.00  0.00    +0.000 OA
ATOM      3  N   UNL     1      15.773  11.077  35.937  0.00  0.00    +0.000 NA
ENDROOT
BRANCH   1  10
ATOM      4  C   UNL     1      20.712  10.007  39.303  0.00  0.00    +0.000 C 
ATOM      5  C   UNL     1      19.234  10.081  39.206  0.00  0.00    +0.000 A 
ATOM      6  C   UNL     1      18.378   9.559  40.145  0.00  0.00    +0.000 A 
ATOM      7  C   UNL     1      17.016   9.688  39.948  0.00  0.00    +0.000 A 
ATOM      8  C   UNL     1      16.133   9.106  40.994  0.00  0.00    +0.000 C 
ATOM      9  C   UNL     1      16.504  10.329  38.828  0.00  0.00    +0.000 A 
ATOM     10  C   UNL     1      17.355  10.850  37.891  0.00  0.00    +0.000 A 
ATOM     11  C   UNL     1      18.701  10.714  38.099  0.00  0.00    +0.000 A 
ENDBRANCH   1  10
BRANCH   3  12
ATOM     12  C   UNL     1      15.337  11.779  34.778  0.00  0.00    +0.000 A 
ATOM     13  C   UNL     1      14.514  12.904  34.855  0.00  0.00    +0.000 A 
ATOM     14  C   UNL     1      14.102  13.571  33.720  0.00  0.00    +0.000 A 
ATOM     15  C   UNL     1      14.484  13.159  32.462  0.00  0.00    +0.000 A 
ATOM     16  C   UNL     1      15.298  12.050  32.375  0.00  0.00    +0.000 A 
ATOM     17  C   UNL     1      15.709  11.384  33.509  0.00  0.00    +0.000 A 
ATOM     18  C   UNL     1      16.595  10.176  33.406  0.00  0.00    +0.000 C 
BRANCH  14  19
ATOM     19  N   UNL     1      13.264  14.715  33.811  0.00  0.00    +0.000 N 
ATOM     20  O   UNL     1      12.592  14.927  34.855  0.00  0.00    +0.000 OA
ATOM     21  O   UNL     1      13.144  15.619  32.802  0.00  0.00    +0.000 OA
ENDBRANCH  14  19
ENDBRANCH   3  12
TORSDOF 3
ENDMDL
MODEL 5
REMARK VINA RESULT:      -6.8      2.900      7.756
REMARK  Name = 
REMARK  3 active torsions:
REMARK  status: ('A' for Active; 'I' for Inactive)
REMARK    1  A    between atoms: C_7  and  C_8
REMARK    2  A    between atoms: N_10  and  C_11
REMARK    3  A    between atoms: C_13  and  N_14
REMARK                            x       y       z     vdW  Elec       q    Type
REMARK                         _______ _______ _______ _____ _____    ______ ____
ROOT
ATOM      1  C   UNL     1      19.739  10.602  37.711  0.00  0.00    +0.000 C 
ATOM      2  O   UNL     1      19.548  11.807  38.020  0.00  0.00    +0.000 OA
ATOM      3  N   UNL     1      18.642   9.854  37.261  0.00  0.00    +0.000 NA
ENDROOT
BRANCH   1  10
ATOM      4  C   UNL     1      24.123   9.873  35.649  0.00  0.00    +0.000 C 
ATOM      5  C   UNL     1      23.269   9.659  36.841  0.00  0.00    +0.000 A 
ATOM      6  C   UNL     1      23.681   8.993  37.969  0.00  0.00    +0.000 A 
ATOM      7  C   UNL     1      22.794   8.853  39.021  0.00  0.00    +0.000 A 
ATOM      8  C   UNL     1      23.291   8.123  40.219  0.00  0.00    +0.000 C 
ATOM      9  C   UNL     1      21.508   9.369  38.956  0.00  0.00    +0.000 A 
ATOM     10  C   UNL     1      21.095  10.034  37.833  0.00  0.00    +0.000 A 
ATOM     11  C   UNL     1      21.983  10.164  36.800  0.00  0.00    +0.000 A 
ENDBRANCH   1  10
BRANCH   3  12
ATOM     12  C   UNL     1      17.353  10.448  37.161  0.00  0.00    +0.000 A 
ATOM     13  C   UNL     1      16.897  11.041  35.983  0.00  0.00    +0.000 A 
ATOM     14  C   UNL     1      15.643  11.612  35.905  0.00  0.00    +0.000 A 
ATOM     15  C   UNL     1      14.786  11.621  36.985  0.00  0.00    +0.000 A 
ATOM     16  C   UNL     1      15.227  11.037  38.152  0.00  0.00    +0.000 A 
ATOM     17  C   UNL     1      16.479  10.467  38.229  0.00  0.00    +0.000 A 
ATOM     18  C   UNL     1      16.952   9.833  39.505  0.00  0.00    +0.000 C 
BRANCH  14  19
ATOM     19  N   UNL     1      15.189  12.214  34.701  0.00  0.00    +0.000 N 
ATOM     20  O   UNL     1      14.370  13.170  34.739  0.00  0.00    +0.000 OA
ATOM     21  O   UNL     1      15.602  11.800  33.473  0.00  0.00    +0.000 OA
ENDBRANCH  14  19
ENDBRANCH   3  12
TORSDOF 3
ENDMDL
MODEL 6
REMARK VINA RESULT:      -6.8      1.898      2.616
REMARK  Name = 
REMARK  3 active torsions:
REMARK  status: ('A' for Active; 'I' for Inactive)
REMARK    1  A    between atoms: C_7  and  C_8
REMARK    2  A    between atoms: N_10  and  C_11
REMARK    3  A    between atoms: C_13  and  N_14
REMARK                            x       y       z     vdW  Elec       q    Type
REMARK                         _______ _______ _______ _____ _____    ______ ____
ROOT
ATOM      1  C   UNL     1      17.870  10.266  35.782  0.00  0.00    +0.000 C 
ATOM      2  O   UNL     1      18.393   9.154  35.515  0.00  0.00    +0.000 OA
ATOM      3  N   UNL     1      18.242  10.902  36.975  0.00  0.00    +0.000 NA
ENDROOT
BRANCH   1  10
ATOM      4  C   UNL     1      14.067  13.278  35.093  0.00  0.00    +0.000 C 
ATOM      5  C   UNL     1      15.020  12.329  34.468  0.00  0.00    +0.000 A 
ATOM      6  C   UNL     1      15.015  12.007  33.133  0.00  0.00    +0.000 A 
ATOM      7  C   UNL     1      15.953  11.106  32.663  0.00  0.00    +0.000 A 
ATOM      8  C   UNL     1      15.904  10.792  31.210  0.00  0.00    +0.000 C 
ATOM      9  C   UNL     1      16.890  10.529  33.509  0.00  0.00    +0.000 A 
ATOM     10  C   UNL     1      16.897  10.850  34.839  0.00  0.00    +0.000 A 
ATOM     11  C   UNL     1      15.962  11.741  35.291  0.00  0.00    +0.000 A 
ENDBRANCH   1  10
BRANCH   3  12
ATOM     12  C   UNL     1      19.186  10.298  37.853  0.00  0.00    +0.000 A 
ATOM     13  C   UNL     1      20.555  10.289  37.581  0.00  0.00    +0.000 A 
ATOM     14  C   UNL     1      21.454   9.698  38.445  0.00  0.00    +0.000 A 
ATOM     15  C   UNL     1      21.043   9.093  39.613  0.00  0.00    +0.000 A 
ATOM     16  C   UNL     1      19.693   9.098  39.891  0.00  0.00    +0.000 A 
ATOM     17  C   UNL     1      18.795   9.688  39.028  0.00  0.00    +0.000 A 
ATOM     18  C   UNL     1      17.326   9.688  39.337  0.00  0.00    +0.000 C 
BRANCH  14  19
ATOM     19  N   UNL     1      22.846   9.695  38.158  0.00  0.00    +0.000 N 
ATOM     20  O   UNL     1      23.367  10.660  37.538  0.00  0.00    +0.000 OA
ATOM     21  O   UNL     1      23.669   8.677  38.525  0.00  0.00    +0.000 OA
ENDBRANCH  14  19
ENDBRANCH   3  12
TORSDOF 3
ENDMDL
MODEL 7
REMARK VINA RESULT:      -6.8      2.977      7.685
REMARK  Name = 
REMARK  3 active torsions:
REMARK  status: ('A' for Active; 'I' for Inactive)
REMARK    1  A    between atoms: C_7  and  C_8
REMARK    2  A    between atoms: N_10  and  C_11
REMARK    3  A    between atoms: C_13  and  N_14
REMARK                            x       y       z     vdW  Elec       q    Type
REMARK                         _______ _______ _______ _____ _____    ______ ____
ROOT
ATOM      1  C   UNL     1      19.924  10.642  37.646  0.00  0.00    +0.000 C 
ATOM      2  O   UNL     1      19.707  11.844  37.950  0.00  0.00    +0.000 OA
ATOM      3  N   UNL     1      18.833   9.855  37.251  0.00  0.00    +0.000 NA
ENDROOT
BRANCH   1  10
ATOM      4  C   UNL     1      23.220   7.989  40.116  0.00  0.00    +0.000 C 
ATOM      5  C   UNL     1      22.949   8.813  38.914  0.00  0.00    +0.000 A 
ATOM      6  C   UNL     1      23.882   9.078  37.941  0.00  0.00    +0.000 A 
ATOM      7  C   UNL     1      23.514   9.862  36.863  0.00  0.00    +0.000 A 
ATOM      8  C   UNL     1      24.561  10.119  35.838  0.00  0.00    +0.000 C 
ATOM      9  C   UNL     1      22.231  10.381  36.749  0.00  0.00    +0.000 A 
ATOM     10  C   UNL     1      21.300  10.117  37.717  0.00  0.00    +0.000 A 
ATOM     11  C   UNL     1      21.679   9.340  38.779  0.00  0.00    +0.000 A 
ENDBRANCH   1  10
BRANCH   3  12
ATOM     12  C   UNL     1      17.522  10.407  37.198  0.00  0.00    +0.000 A 
ATOM     13  C   UNL     1      17.017  11.015  36.048  0.00  0.00    +0.000 A 
ATOM     14  C   UNL     1      15.744  11.546  36.016  0.00  0.00    +0.000 A 
ATOM     15  C   UNL     1      14.914  11.498  37.117  0.00  0.00    +0.000 A 
ATOM     16  C   UNL     1      15.404  10.899  38.257  0.00  0.00    +0.000 A 
ATOM     17  C   UNL     1      16.676  10.370  38.288  0.00  0.00    +0.000 A 
ATOM     18  C   UNL     1      17.202   9.719  39.534  0.00  0.00    +0.000 C 
BRANCH  14  19
ATOM     19  N   UNL     1      15.239  12.162  34.840  0.00  0.00    +0.000 N 
ATOM     20  O   UNL     1      15.619  11.767  33.705  0.00  0.00    +0.000 OA
ATOM     21  O   UNL     1      14.346  13.186  34.873  0.00  0.00    +0.000 OA
ENDBRANCH  14  19
ENDBRANCH   3  12
TORSDOF 3
ENDMDL
MODEL 8
REMARK VINA RESULT:      -6.7     19.558     21.354
REMARK  Name = 
REMARK  3 active torsions:
REMARK  status: ('A' for Active; 'I' for Inactive)
REMARK    1  A    between atoms: C_7  and  C_8
REMARK    2  A    between atoms: N_10  and  C_11
REMARK    3  A    between atoms: C_13  and  N_14
REMARK                            x       y       z     vdW  Elec       q    Type
REMARK                         _______ _______ _______ _____ _____    ______ ____
ROOT
ATOM      1  C   UNL     1      29.562  22.898  26.197  0.00  0.00    +0.000 C 
ATOM      2  O   UNL     1      30.007  22.172  25.270  0.00  0.00    +0.000 OA
ATOM      3  N   UNL     1      28.591  23.857  25.875  0.00  0.00    +0.000 NA
ENDROOT
BRANCH   1  10
ATOM      4  C   UNL     1      28.772  23.368  31.009  0.00  0.00    +0.000 C 
ATOM      5  C   UNL     1      29.712  22.931  29.949  0.00  0.00    +0.000 A 
ATOM      6  C   UNL     1      30.953  22.398  30.198  0.00  0.00    +0.000 A 
ATOM      7  C   UNL     1      31.744  22.026  29.127  0.00  0.00    +0.000 A 
ATOM      8  C   UNL     1      33.079  21.454  29.451  0.00  0.00    +0.000 C 
ATOM      9  C   UNL     1      31.310  22.181  27.818  0.00  0.00    +0.000 A 
ATOM     10  C   UNL     1      30.073  22.711  27.567  0.00  0.00    +0.000 A 
ATOM     11  C   UNL     1      29.301  23.076  28.637  0.00  0.00    +0.000 A 
ENDBRANCH   1  10
BRANCH   3  12
ATOM     12  C   UNL     1      28.129  23.999  24.536  0.00  0.00    +0.000 A 
ATOM     13  C   UNL     1      28.886  24.638  23.552  0.00  0.00    +0.000 A 
ATOM     14  C   UNL     1      28.422  24.767  22.260  0.00  0.00    +0.000 A 
ATOM     15  C   UNL     1      27.192  24.270  21.882  0.00  0.00    +0.000 A 
ATOM     16  C   UNL     1      26.438  23.637  22.846  0.00  0.00    +0.000 A 
ATOM     17  C   UNL     1      26.903  23.509  24.137  0.00  0.00    +0.000 A 
ATOM     18  C   UNL     1      26.075  22.818  25.181  0.00  0.00    +0.000 C 
BRANCH  14  19
ATOM     19  N   UNL     1      29.200  25.419  21.266  0.00  0.00    +0.000 N 
ATOM     20  O   UNL     1      29.790  24.745  20.380  0.00  0.00    +0.000 OA
ATOM     21  O   UNL     1      29.350  26.769  21.220  0.00  0.00    +0.000 OA
ENDBRANCH  14  19
ENDBRANCH   3  12
TORSDOF 3
ENDMDL
MODEL 9
REMARK VINA RESULT:      -6.7      2.401      3.851
REMARK  Name = 
REMARK  3 active torsions:
REMARK  status: ('A' for Active; 'I' for Inactive)
REMARK    1  A    between atoms: C_7  and  C_8
REMARK    2  A    between atoms: N_10  and  C_11
REMARK    3  A    between atoms: C_13  and  N_14
REMARK                            x       y       z     vdW  Elec       q    Type
REMARK                         _______ _______ _______ _____ _____    ______ ____
ROOT
ATOM      1  C   UNL     1      17.625  10.138  36.311  0.00  0.00    +0.000 C 
ATOM      2  O   UNL     1      18.565   9.404  35.911  0.00  0.00    +0.000 OA
ATOM      3  N   UNL     1      17.463  10.308  37.694  0.00  0.00    +0.000 NA
ENDROOT
BRANCH   1  10
ATOM      4  C   UNL     1      16.229  10.507  31.629  0.00  0.00    +0.000 C 
ATOM      5  C   UNL     1      16.031  10.987  33.019  0.00  0.00    +0.000 A 
ATOM      6  C   UNL     1      15.113  11.945  33.374  0.00  0.00    +0.000 A 
ATOM      7  C   UNL     1      15.019  12.314  34.704  0.00  0.00    +0.000 A 
ATOM      8  C   UNL     1      14.010  13.356  35.036  0.00  0.00    +0.000 C 
ATOM      9  C   UNL     1      15.827  11.738  35.674  0.00  0.00    +0.000 A 
ATOM     10  C   UNL     1      16.741  10.783  35.321  0.00  0.00    +0.000 A 
ATOM     11  C   UNL     1      16.825  10.428  34.002  0.00  0.00    +0.000 A 
ENDBRANCH   1  10
BRANCH   3  12
ATOM     12  C   UNL     1      18.342   9.665  38.610  0.00  0.00    +0.000 A 
ATOM     13  C   UNL     1      18.144   8.348  39.030  0.00  0.00    +0.000 A 
ATOM     14  C   UNL     1      19.007   7.741  39.919  0.00  0.00    +0.000 A 
ATOM     15  C   UNL     1      20.101   8.405  40.432  0.00  0.00    +0.000 A 
ATOM     16  C   UNL     1      20.305   9.706  40.022  0.00  0.00    +0.000 A 
ATOM     17  C   UNL     1      19.443  10.311  39.134  0.00  0.00    +0.000 A 
ATOM     18  C   UNL     1      19.672  11.728  38.693  0.00  0.00    +0.000 C 
BRANCH  14  19
ATOM     19  N   UNL     1      18.796   6.401  40.340  0.00  0.00    +0.000 N 
ATOM     20  O   UNL     1      19.717   5.548  40.225  0.00  0.00    +0.000 OA
ATOM     21  O   UNL     1      17.620   5.975  40.873  0.00  0.00    +0.000 OA
ENDBRANCH  14  19
ENDBRANCH   3  12
TORSDOF 3
ENDMDL
MODEL 10
REMARK VINA RESULT:      -6.7     20.761     22.298
REMARK  Name = 
REMARK  3 active torsions:
REMARK  status: ('A' for Active; 'I' for Inactive)
REMARK    1  A    between atoms: C_7  and  C_8
REMARK    2  A    between atoms: N_10  and  C_11
REMARK    3  A    between atoms: C_13  and  N_14
REMARK                            x       y       z     vdW  Elec       q    Type
REMARK                         _______ _______ _______ _____ _____    ______ ____
ROOT
ATOM      1  C   UNL     1      24.985   4.431  16.667  0.00  0.00    +0.000 C 
ATOM      2  O   UNL     1      24.368   4.210  15.593  0.00  0.00    +0.000 OA
ATOM      3  N   UNL     1      24.624   3.690  17.801  0.00  0.00    +0.000 NA
ENDROOT
BRANCH   1  10
ATOM      4  C   UNL     1      28.070   7.140  19.342  0.00  0.00    +0.000 C 
ATOM      5  C   UNL     1      27.587   6.799  17.981  0.00  0.00    +0.000 A 
ATOM      6  C   UNL     1      28.075   7.368  16.831  0.00  0.00    +0.000 A 
ATOM      7  C   UNL     1      27.546   6.971  15.616  0.00  0.00    +0.000 A 
ATOM      8  C   UNL     1      28.109   7.617  14.401  0.00  0.00    +0.000 C 
ATOM      9  C   UNL     1      26.540   6.017  15.542  0.00  0.00    +0.000 A 
ATOM     10  C   UNL     1      26.053   5.449  16.688  0.00  0.00    +0.000 A 
ATOM     11  C   UNL     1      26.585   5.852  17.883  0.00  0.00    +0.000 A 
ENDBRANCH   1  10
BRANCH   3  12
ATOM     12  C   UNL     1      23.586   2.719  17.731  0.00  0.00    +0.000 A 
ATOM     13  C   UNL     1      22.241   3.053  17.900  0.00  0.00    +0.000 A 
ATOM     14  C   UNL     1      21.249   2.097  17.829  0.00  0.00    +0.000 A 
ATOM     15  C   UNL     1      21.540   0.772  17.586  0.00  0.00    +0.000 A 
ATOM     16  C   UNL     1      22.865   0.432  17.416  0.00  0.00    +0.000 A 
ATOM     17  C   UNL     1      23.855   1.387  17.488  0.00  0.00    +0.000 A 
ATOM     18  C   UNL     1      25.296   1.008  17.303  0.00  0.00    +0.000 C 
BRANCH  14  19
ATOM     19  N   UNL     1      19.884   2.449  18.003  0.00  0.00    +0.000 N 
ATOM     20  O   UNL     1      19.573   3.481  18.655  0.00  0.00    +0.000 OA
ATOM     21  O   UNL     1      18.864   1.710  17.490  0.00  0.00    +0.000 OA
ENDBRANCH  14  19
ENDBRANCH   3  12
TORSDOF 3
ENDMDL
