MODEL 1
REMARK VINA RESULT:      -8.1      0.000      0.000
REMARK  Name = 
REMARK  8 active torsions:
REMARK  status: ('A' for Active; 'I' for Inactive)
REMARK    1  A    between atoms: O_2  and  C_3
REMARK    2  A    between atoms: C_6  and  C_7
REMARK    3  A    between atoms: C_10  and  S_11
REMARK    4  A    between atoms: S_11  and  C_12
REMARK    5  A    between atoms: C_12  and  C_13
REMARK    6  A    between atoms: C_17  and  C_18
REMARK    7  A    between atoms: N_20  and  C_21
REMARK    8  A    between atoms: C_21  and  C_22
REMARK                            x       y       z     vdW  Elec       q    Type
REMARK                         _______ _______ _______ _____ _____    ______ ____
ROOT
ATOM      1  S   UNL     1      38.936   1.956  13.742  0.00  0.00    +0.000 S 
ENDROOT
BRANCH   1   5
ATOM      2  C   UNL     1      38.917   5.053  16.981  0.00  0.00    +0.000 A 
ATOM      3  C   UNL     1      39.663   5.269  15.847  0.00  0.00    +0.000 A 
ATOM      4  C   UNL     1      39.697   4.349  14.830  0.00  0.00    +0.000 A 
ATOM      5  C   UNL     1      38.936   3.188  15.012  0.00  0.00    +0.000 A 
ATOM      6  N   UNL     1      38.237   3.042  16.133  0.00  0.00    +0.000 NA
ATOM      7  N   UNL     1      38.195   3.913  17.115  0.00  0.00    +0.000 NA
BRANCH   2  11
ATOM      8  C   UNL     1      38.873   7.904  20.036  0.00  0.00    +0.000 A 
ATOM      9  C   UNL     1      39.776   6.892  20.104  0.00  0.00    +0.000 A 
ATOM     10  C   UNL     1      39.785   5.943  19.080  0.00  0.00    +0.000 A 
ATOM     11  C   UNL     1      38.900   6.044  18.041  0.00  0.00    +0.000 A 
ATOM     12  C   UNL     1      38.001   7.072  17.994  0.00  0.00    +0.000 A 
ATOM     13  C   UNL     1      37.971   8.025  18.997  0.00  0.00    +0.000 A 
BRANCH   8  15
ATOM     14  C   UNL     1      38.293  10.180  20.716  0.00  0.00    +0.000 C 
ATOM     15  O   UNL     1      38.786   8.909  21.020  0.00  0.00    +0.000 OA
ENDBRANCH   8  15
ENDBRANCH   2  11
ENDBRANCH   1   5
BRANCH   1  16
ATOM     16  C   UNL     1      40.626   1.362  13.500  0.00  0.00    +0.000 C 
BRANCH  16  17
ATOM     17  C   UNL     1      40.661  -0.073  13.942  0.00  0.00    +0.000 A 
ATOM     18  C   UNL     1      41.468  -0.979  13.295  0.00  0.00    +0.000 A 
ATOM     19  C   UNL     1      41.489  -2.271  13.710  0.00  0.00    +0.000 A 
ATOM     20  C   UNL     1      40.709  -2.699  14.777  0.00  0.00    +0.000 A 
ATOM     21  C   UNL     1      39.892  -1.807  15.441  0.00  0.00    +0.000 A 
ATOM     22  C   UNL     1      39.884  -0.502  15.007  0.00  0.00    +0.000 A 
BRANCH  21  23
ATOM     23  C   UNL     1      39.069  -2.256  16.569  0.00  0.00    +0.000 C 
ATOM     24  O   UNL     1      39.310  -3.369  17.080  0.00  0.00    +0.000 OA
ATOM     25  N   UNL     1      38.024  -1.474  17.087  0.00  0.00    +0.000 NA
BRANCH  25  26
ATOM     26  C   UNL     1      37.138  -1.759  18.160  0.00  0.00    +0.000 C 
BRANCH  26  27
ATOM     27  C   UNL     1      35.792  -1.164  18.142  0.00  0.00    +0.000 C 
ATOM     28  C   UNL     1      35.266  -0.777  16.806  0.00  0.00    +0.000 C 
ATOM     29  C   UNL     1      35.751   0.002  19.111  0.00  0.00    +0.000 C 
ENDBRANCH  26  27
ENDBRANCH  25  26
ENDBRANCH  21  23
ENDBRANCH  16  17
ENDBRANCH   1  16
TORSDOF 8
ENDMDL
MODEL 2
REMARK VINA RESULT:      -8.0      1.577      4.201
REMARK  Name = 
REMARK  8 active torsions:
REMARK  status: ('A' for Active; 'I' for Inactive)
REMARK    1  A    between atoms: O_2  and  C_3
REMARK    2  A    between atoms: C_6  and  C_7
REMARK    3  A    between atoms: C_10  and  S_11
REMARK    4  A    between atoms: S_11  and  C_12
REMARK    5  A    between atoms: C_12  and  C_13
REMARK    6  A    between atoms: C_17  and  C_18
REMARK    7  A    between atoms: N_20  and  C_21
REMARK    8  A    between atoms: C_21  and  C_22
REMARK                            x       y       z     vdW  Elec       q    Type
REMARK                         _______ _______ _______ _____ _____    ______ ____
ROOT
ATOM      1  S   UNL     1      36.262   1.465  15.242  0.00  0.00    +0.000 S 
ENDROOT
BRANCH   1   5
ATOM      2  C   UNL     1      38.787   4.593  17.223  0.00  0.00    +0.000 A 
ATOM      3  C   UNL     1      38.916   4.380  15.870  0.00  0.00    +0.000 A 
ATOM      4  C   UNL     1      38.162   3.434  15.223  0.00  0.00    +0.000 A 
ATOM      5  C   UNL     1      37.264   2.704  16.011  0.00  0.00    +0.000 A 
ATOM      6  N   UNL     1      37.190   2.960  17.313  0.00  0.00    +0.000 NA
ATOM      7  N   UNL     1      37.904   3.863  17.946  0.00  0.00    +0.000 NA
BRANCH   2  11
ATOM      8  C   UNL     1      41.118   7.495  19.122  0.00  0.00    +0.000 A 
ATOM      9  C   UNL     1      39.996   7.052  19.746  0.00  0.00    +0.000 A 
ATOM     10  C   UNL     1      39.222   6.082  19.105  0.00  0.00    +0.000 A 
ATOM     11  C   UNL     1      39.598   5.601  17.881  0.00  0.00    +0.000 A 
ATOM     12  C   UNL     1      40.731   6.061  17.273  0.00  0.00    +0.000 A 
ATOM     13  C   UNL     1      41.516   7.023  17.887  0.00  0.00    +0.000 A 
BRANCH   8  15
ATOM     14  C   UNL     1      41.470   9.443  20.560  0.00  0.00    +0.000 C 
ATOM     15  O   UNL     1      41.964   8.471  19.686  0.00  0.00    +0.000 OA
ENDBRANCH   8  15
ENDBRANCH   2  11
ENDBRANCH   1   5
BRANCH   1  16
ATOM     16  C   UNL     1      35.198   0.711  16.493  0.00  0.00    +0.000 C 
BRANCH  16  17
ATOM     17  C   UNL     1      36.062  -0.189  17.329  0.00  0.00    +0.000 A 
ATOM     18  C   UNL     1      35.873  -0.265  18.689  0.00  0.00    +0.000 A 
ATOM     19  C   UNL     1      36.662  -1.085  19.430  0.00  0.00    +0.000 A 
ATOM     20  C   UNL     1      37.661  -1.849  18.840  0.00  0.00    +0.000 A 
ATOM     21  C   UNL     1      37.869  -1.788  17.478  0.00  0.00    +0.000 A 
ATOM     22  C   UNL     1      37.060  -0.952  16.744  0.00  0.00    +0.000 A 
BRANCH  21  23
ATOM     23  C   UNL     1      38.922  -2.595  16.853  0.00  0.00    +0.000 C 
ATOM     24  O   UNL     1      39.214  -3.698  17.362  0.00  0.00    +0.000 OA
ATOM     25  N   UNL     1      39.607  -2.167  15.705  0.00  0.00    +0.000 NA
BRANCH  25  26
ATOM     26  C   UNL     1      40.645  -2.818  14.985  0.00  0.00    +0.000 C 
BRANCH  26  27
ATOM     27  C   UNL     1      41.480  -2.020  14.072  0.00  0.00    +0.000 C 
ATOM     28  C   UNL     1      41.368  -0.543  14.206  0.00  0.00    +0.000 C 
ATOM     29  C   UNL     1      41.222  -2.466  12.646  0.00  0.00    +0.000 C 
ENDBRANCH  26  27
ENDBRANCH  25  26
ENDBRANCH  21  23
ENDBRANCH  16  17
ENDBRANCH   1  16
TORSDOF 8
ENDMDL
MODEL 3
REMARK VINA RESULT:      -7.8      2.043      4.309
REMARK  Name = 
REMARK  8 active torsions:
REMARK  status: ('A' for Active; 'I' for Inactive)
REMARK    1  A    between atoms: O_2  and  C_3
REMARK    2  A    between atoms: C_6  and  C_7
REMARK    3  A    between atoms: C_10  and  S_11
REMARK    4  A    between atoms: S_11  and  C_12
REMARK    5  A    between atoms: C_12  and  C_13
REMARK    6  A    between atoms: C_17  and  C_18
REMARK    7  A    between atoms: N_20  and  C_21
REMARK    8  A    between atoms: C_21  and  C_22
REMARK                            x       y       z     vdW  Elec       q    Type
REMARK                         _______ _______ _______ _____ _____    ______ ____
ROOT
ATOM      1  S   UNL     1      36.640   3.237  14.141  0.00  0.00    +0.000 S 
ENDROOT
BRANCH   1   5
ATOM      2  C   UNL     1      39.343   5.242  17.100  0.00  0.00    +0.000 A 
ATOM      3  C   UNL     1      39.433   5.578  15.769  0.00  0.00    +0.000 A 
ATOM      4  C   UNL     1      38.625   4.990  14.830  0.00  0.00    +0.000 A 
ATOM      5  C   UNL     1      37.712   4.037  15.299  0.00  0.00    +0.000 A 
ATOM      6  N   UNL     1      37.678   3.759  16.598  0.00  0.00    +0.000 NA
ATOM      7  N   UNL     1      38.445   4.313  17.508  0.00  0.00    +0.000 NA
BRANCH   2  11
ATOM      8  C   UNL     1      41.850   7.077  19.895  0.00  0.00    +0.000 A 
ATOM      9  C   UNL     1      42.318   6.874  18.636  0.00  0.00    +0.000 A 
ATOM     10  C   UNL     1      41.475   6.260  17.708  0.00  0.00    +0.000 A 
ATOM     11  C   UNL     1      40.212   5.879  18.072  0.00  0.00    +0.000 A 
ATOM     12  C   UNL     1      39.763   6.095  19.344  0.00  0.00    +0.000 A 
ATOM     13  C   UNL     1      40.579   6.701  20.284  0.00  0.00    +0.000 A 
BRANCH   8  15
ATOM     14  C   UNL     1      43.513   6.947  21.684  0.00  0.00    +0.000 C 
ATOM     15  O   UNL     1      42.623   7.688  20.902  0.00  0.00    +0.000 OA
ENDBRANCH   8  15
ENDBRANCH   2  11
ENDBRANCH   1   5
BRANCH   1  16
ATOM     16  C   UNL     1      35.127   2.734  14.993  0.00  0.00    +0.000 C 
BRANCH  16  17
ATOM     17  C   UNL     1      35.432   1.461  15.728  0.00  0.00    +0.000 A 
ATOM     18  C   UNL     1      34.804   1.179  16.918  0.00  0.00    +0.000 A 
ATOM     19  C   UNL     1      35.090   0.023  17.568  0.00  0.00    +0.000 A 
ATOM     20  C   UNL     1      36.008  -0.885  17.054  0.00  0.00    +0.000 A 
ATOM     21  C   UNL     1      36.649  -0.624  15.861  0.00  0.00    +0.000 A 
ATOM     22  C   UNL     1      36.346   0.553  15.217  0.00  0.00    +0.000 A 
BRANCH  21  23
ATOM     23  C   UNL     1      37.617  -1.581  15.316  0.00  0.00    +0.000 C 
ATOM     24  O   UNL     1      37.286  -2.271  14.329  0.00  0.00    +0.000 OA
ATOM     25  N   UNL     1      38.898  -1.743  15.867  0.00  0.00    +0.000 NA
BRANCH  25  26
ATOM     26  C   UNL     1      39.942  -2.619  15.467  0.00  0.00    +0.000 C 
BRANCH  26  27
ATOM     27  C   UNL     1      40.937  -2.136  14.496  0.00  0.00    +0.000 C 
ATOM     28  C   UNL     1      41.039  -0.660  14.343  0.00  0.00    +0.000 C 
ATOM     29  C   UNL     1      40.697  -2.815  13.161  0.00  0.00    +0.000 C 
ENDBRANCH  26  27
ENDBRANCH  25  26
ENDBRANCH  21  23
ENDBRANCH  16  17
ENDBRANCH   1  16
TORSDOF 8
ENDMDL
MODEL 4
REMARK VINA RESULT:      -7.6      2.533      4.621
REMARK  Name = 
REMARK  8 active torsions:
REMARK  status: ('A' for Active; 'I' for Inactive)
REMARK    1  A    between atoms: O_2  and  C_3
REMARK    2  A    between atoms: C_6  and  C_7
REMARK    3  A    between atoms: C_10  and  S_11
REMARK    4  A    between atoms: S_11  and  C_12
REMARK    5  A    between atoms: C_12  and  C_13
REMARK    6  A    between atoms: C_17  and  C_18
REMARK    7  A    between atoms: N_20  and  C_21
REMARK    8  A    between atoms: C_21  and  C_22
REMARK                            x       y       z     vdW  Elec       q    Type
REMARK                         _______ _______ _______ _____ _____    ______ ____
ROOT
ATOM      1  S   UNL     1      35.596   2.361  15.621  0.00  0.00    +0.000 S 
ENDROOT
BRANCH   1   5
ATOM      2  C   UNL     1      38.784   4.899  17.487  0.00  0.00    +0.000 A 
ATOM      3  C   UNL     1      38.386   5.158  16.196  0.00  0.00    +0.000 A 
ATOM      4  C   UNL     1      37.413   4.408  15.586  0.00  0.00    +0.000 A 
ATOM      5  C   UNL     1      36.855   3.372  16.346  0.00  0.00    +0.000 A 
ATOM      6  N   UNL     1      37.286   3.176  17.588  0.00  0.00    +0.000 NA
ATOM      7  N   UNL     1      38.216   3.886  18.184  0.00  0.00    +0.000 NA
BRANCH   2  11
ATOM      8  C   UNL     1      41.754   7.234  19.273  0.00  0.00    +0.000 A 
ATOM      9  C   UNL     1      40.667   6.889  20.010  0.00  0.00    +0.000 A 
ATOM     10  C   UNL     1      39.678   6.109  19.407  0.00  0.00    +0.000 A 
ATOM     11  C   UNL     1      39.817   5.710  18.106  0.00  0.00    +0.000 A 
ATOM     12  C   UNL     1      40.920   6.068  17.383  0.00  0.00    +0.000 A 
ATOM     13  C   UNL     1      41.914   6.842  17.958  0.00  0.00    +0.000 A 
BRANCH   8  15
ATOM     14  C   UNL     1      42.550   9.193  20.503  0.00  0.00    +0.000 C 
ATOM     15  O   UNL     1      42.804   8.018  19.792  0.00  0.00    +0.000 OA
ENDBRANCH   8  15
ENDBRANCH   2  11
ENDBRANCH   1   5
BRANCH   1  16
ATOM     16  C   UNL     1      34.834   1.356  16.915  0.00  0.00    +0.000 C 
BRANCH  16  17
ATOM     17  C   UNL     1      35.081  -0.083  16.564  0.00  0.00    +0.000 A 
ATOM     18  C   UNL     1      34.399  -1.084  17.217  0.00  0.00    +0.000 A 
ATOM     19  C   UNL     1      34.634  -2.379  16.886  0.00  0.00    +0.000 A 
ATOM     20  C   UNL     1      35.552  -2.716  15.900  0.00  0.00    +0.000 A 
ATOM     21  C   UNL     1      36.248  -1.729  15.232  0.00  0.00    +0.000 A 
ATOM     22  C   UNL     1      35.996  -0.423  15.581  0.00  0.00    +0.000 A 
BRANCH  21  23
ATOM     23  C   UNL     1      37.217  -2.082  14.190  0.00  0.00    +0.000 C 
ATOM     24  O   UNL     1      37.165  -3.224  13.686  0.00  0.00    +0.000 OA
ATOM     25  N   UNL     1      38.194  -1.179  13.743  0.00  0.00    +0.000 NA
BRANCH  25  26
ATOM     26  C   UNL     1      39.200  -1.361  12.756  0.00  0.00    +0.000 C 
BRANCH  26  27
ATOM     27  C   UNL     1      39.120  -0.579  11.512  0.00  0.00    +0.000 C 
ATOM     28  C   UNL     1      40.404  -0.029  11.001  0.00  0.00    +0.000 C 
ATOM     29  C   UNL     1      38.079   0.512  11.677  0.00  0.00    +0.000 C 
ENDBRANCH  26  27
ENDBRANCH  25  26
ENDBRANCH  21  23
ENDBRANCH  16  17
ENDBRANCH   1  16
TORSDOF 8
ENDMDL
MODEL 5
REMARK VINA RESULT:      -7.5      2.903      9.719
REMARK  Name = 
REMARK  8 active torsions:
REMARK  status: ('A' for Active; 'I' for Inactive)
REMARK    1  A    between atoms: O_2  and  C_3
REMARK    2  A    between atoms: C_6  and  C_7
REMARK    3  A    between atoms: C_10  and  S_11
REMARK    4  A    between atoms: S_11  and  C_12
REMARK    5  A    between atoms: C_12  and  C_13
REMARK    6  A    between atoms: C_17  and  C_18
REMARK    7  A    between atoms: N_20  and  C_21
REMARK    8  A    between atoms: C_21  and  C_22
REMARK                            x       y       z     vdW  Elec       q    Type
REMARK                         _______ _______ _______ _____ _____    ______ ____
ROOT
ATOM      1  S   UNL     1      37.791   4.999  15.633  0.00  0.00    +0.000 S 
ENDROOT
BRANCH   1   5
ATOM      2  C   UNL     1      36.393   0.741  15.695  0.00  0.00    +0.000 A 
ATOM      3  C   UNL     1      35.466   1.755  15.755  0.00  0.00    +0.000 A 
ATOM      4  C   UNL     1      35.850   3.073  15.737  0.00  0.00    +0.000 A 
ATOM      5  C   UNL     1      37.225   3.322  15.656  0.00  0.00    +0.000 A 
ATOM      6  N   UNL     1      38.067   2.295  15.602  0.00  0.00    +0.000 NA
ATOM      7  N   UNL     1      37.715   1.030  15.618  0.00  0.00    +0.000 NA
BRANCH   2  11
ATOM      8  C   UNL     1      35.140  -3.245  15.761  0.00  0.00    +0.000 A 
ATOM      9  C   UNL     1      34.639  -2.390  16.690  0.00  0.00    +0.000 A 
ATOM     10  C   UNL     1      35.062  -1.060  16.661  0.00  0.00    +0.000 A 
ATOM     11  C   UNL     1      35.959  -0.644  15.716  0.00  0.00    +0.000 A 
ATOM     12  C   UNL     1      36.449  -1.521  14.790  0.00  0.00    +0.000 A 
ATOM     13  C   UNL     1      36.045  -2.846  14.797  0.00  0.00    +0.000 A 
BRANCH   8  15
ATOM     14  C   UNL     1      33.722  -5.042  14.898  0.00  0.00    +0.000 C 
ATOM     15  O   UNL     1      34.775  -4.605  15.706  0.00  0.00    +0.000 OA
ENDBRANCH   8  15
ENDBRANCH   2  11
ENDBRANCH   1   5
BRANCH   1  16
ATOM     16  C   UNL     1      39.412   5.082  16.428  0.00  0.00    +0.000 C 
BRANCH  16  17
ATOM     17  C   UNL     1      39.262   5.933  17.656  0.00  0.00    +0.000 A 
ATOM     18  C   UNL     1      40.130   5.787  18.712  0.00  0.00    +0.000 A 
ATOM     19  C   UNL     1      39.981   6.565  19.814  0.00  0.00    +0.000 A 
ATOM     20  C   UNL     1      38.965   7.508  19.898  0.00  0.00    +0.000 A 
ATOM     21  C   UNL     1      38.082   7.672  18.851  0.00  0.00    +0.000 A 
ATOM     22  C   UNL     1      38.249   6.875  17.743  0.00  0.00    +0.000 A 
BRANCH  21  23
ATOM     23  C   UNL     1      37.009   8.668  18.937  0.00  0.00    +0.000 C 
ATOM     24  O   UNL     1      36.435   8.838  20.034  0.00  0.00    +0.000 OA
ATOM     25  N   UNL     1      36.611   9.433  17.829  0.00  0.00    +0.000 NA
BRANCH  25  26
ATOM     26  C   UNL     1      35.598  10.426  17.742  0.00  0.00    +0.000 C 
BRANCH  26  27
ATOM     27  C   UNL     1      34.369  10.117  16.992  0.00  0.00    +0.000 C 
ATOM     28  C   UNL     1      33.275   9.474  17.768  0.00  0.00    +0.000 C 
ATOM     29  C   UNL     1      34.728   9.303  15.764  0.00  0.00    +0.000 C 
ENDBRANCH  26  27
ENDBRANCH  25  26
ENDBRANCH  21  23
ENDBRANCH  16  17
ENDBRANCH   1  16
TORSDOF 8
ENDMDL
MODEL 6
REMARK VINA RESULT:      -7.4      2.307      4.422
REMARK  Name = 
REMARK  8 active torsions:
REMARK  status: ('A' for Active; 'I' for Inactive)
REMARK    1  A    between atoms: O_2  and  C_3
REMARK    2  A    between atoms: C_6  and  C_7
REMARK    3  A    between atoms: C_10  and  S_11
REMARK    4  A    between atoms: S_11  and  C_12
REMARK    5  A    between atoms: C_12  and  C_13
REMARK    6  A    between atoms: C_17  and  C_18
REMARK    7  A    between atoms: N_20  and  C_21
REMARK    8  A    between atoms: C_21  and  C_22
REMARK                            x       y       z     vdW  Elec       q    Type
REMARK                         _______ _______ _______ _____ _____    ______ ____
ROOT
ATOM      1  S   UNL     1      38.229   1.662  14.190  0.00  0.00    +0.000 S 
ENDROOT
BRANCH   1   5
ATOM      2  C   UNL     1      38.666   4.964  17.187  0.00  0.00    +0.000 A 
ATOM      3  C   UNL     1      39.377   5.023  16.012  0.00  0.00    +0.000 A 
ATOM      4  C   UNL     1      39.273   4.035  15.065  0.00  0.00    +0.000 A 
ATOM      5  C   UNL     1      38.410   2.973  15.364  0.00  0.00    +0.000 A 
ATOM      6  N   UNL     1      37.753   2.978  16.519  0.00  0.00    +0.000 NA
ATOM      7  N   UNL     1      37.843   3.916  17.433  0.00  0.00    +0.000 NA
BRANCH   2  11
ATOM      8  C   UNL     1      39.041   8.019  20.014  0.00  0.00    +0.000 A 
ATOM      9  C   UNL     1      38.126   8.161  19.021  0.00  0.00    +0.000 A 
ATOM     10  C   UNL     1      38.006   7.136  18.080  0.00  0.00    +0.000 A 
ATOM     11  C   UNL     1      38.797   6.024  18.170  0.00  0.00    +0.000 A 
ATOM     12  C   UNL     1      39.711   5.902  19.179  0.00  0.00    +0.000 A 
ATOM     13  C   UNL     1      39.849   6.904  20.125  0.00  0.00    +0.000 A 
BRANCH   8  15
ATOM     14  C   UNL     1      38.478  10.169  21.036  0.00  0.00    +0.000 C 
ATOM     15  O   UNL     1      39.236   8.996  21.011  0.00  0.00    +0.000 OA
ENDBRANCH   8  15
ENDBRANCH   2  11
ENDBRANCH   1   5
BRANCH   1  16
ATOM     16  C   UNL     1      37.476   0.238  15.011  0.00  0.00    +0.000 C 
BRANCH  16  17
ATOM     17  C   UNL     1      38.547  -0.802  15.170  0.00  0.00    +0.000 A 
ATOM     18  C   UNL     1      38.296  -1.953  15.879  0.00  0.00    +0.000 A 
ATOM     19  C   UNL     1      39.274  -2.885  16.011  0.00  0.00    +0.000 A 
ATOM     20  C   UNL     1      40.529  -2.697  15.444  0.00  0.00    +0.000 A 
ATOM     21  C   UNL     1      40.803  -1.550  14.729  0.00  0.00    +0.000 A 
ATOM     22  C   UNL     1      39.799  -0.618  14.605  0.00  0.00    +0.000 A 
BRANCH  21  23
ATOM     23  C   UNL     1      42.126  -1.351  14.128  0.00  0.00    +0.000 C 
ATOM     24  O   UNL     1      42.559  -2.211  13.333  0.00  0.00    +0.000 OA
ATOM     25  N   UNL     1      42.915  -0.226  14.419  0.00  0.00    +0.000 NA
BRANCH  25  26
ATOM     26  C   UNL     1      44.206   0.113  13.933  0.00  0.00    +0.000 C 
BRANCH  26  27
ATOM     27  C   UNL     1      45.385  -0.285  14.719  0.00  0.00    +0.000 C 
ATOM     28  C   UNL     1      45.223  -0.263  16.198  0.00  0.00    +0.000 C 
ATOM     29  C   UNL     1      46.577   0.545  14.283  0.00  0.00    +0.000 C 
ENDBRANCH  26  27
ENDBRANCH  25  26
ENDBRANCH  21  23
ENDBRANCH  16  17
ENDBRANCH   1  16
TORSDOF 8
ENDMDL
MODEL 7
REMARK VINA RESULT:      -7.3      2.687      4.420
REMARK  Name = 
REMARK  8 active torsions:
REMARK  status: ('A' for Active; 'I' for Inactive)
REMARK    1  A    between atoms: O_2  and  C_3
REMARK    2  A    between atoms: C_6  and  C_7
REMARK    3  A    between atoms: C_10  and  S_11
REMARK    4  A    between atoms: S_11  and  C_12
REMARK    5  A    between atoms: C_12  and  C_13
REMARK    6  A    between atoms: C_17  and  C_18
REMARK    7  A    between atoms: N_20  and  C_21
REMARK    8  A    between atoms: C_21  and  C_22
REMARK                            x       y       z     vdW  Elec       q    Type
REMARK                         _______ _______ _______ _____ _____    ______ ____
ROOT
ATOM      1  S   UNL     1      37.009   5.380  13.267  0.00  0.00    +0.000 S 
ENDROOT
BRANCH   1   5
ATOM      2  C   UNL     1      39.706   6.011  16.790  0.00  0.00    +0.000 A 
ATOM      3  C   UNL     1      40.171   5.308  15.703  0.00  0.00    +0.000 A 
ATOM      4  C   UNL     1      39.380   5.092  14.603  0.00  0.00    +0.000 A 
ATOM      5  C   UNL     1      38.085   5.623  14.651  0.00  0.00    +0.000 A 
ATOM      6  N   UNL     1      37.699   6.292  15.733  0.00  0.00    +0.000 NA
ATOM      7  N   UNL     1      38.445   6.506  16.792  0.00  0.00    +0.000 NA
BRANCH   2  11
ATOM      8  C   UNL     1      42.184   6.620  20.100  0.00  0.00    +0.000 A 
ATOM      9  C   UNL     1      42.731   6.678  18.858  0.00  0.00    +0.000 A 
ATOM     10  C   UNL     1      41.897   6.473  17.757  0.00  0.00    +0.000 A 
ATOM     11  C   UNL     1      40.565   6.223  17.941  0.00  0.00    +0.000 A 
ATOM     12  C   UNL     1      40.036   6.170  19.200  0.00  0.00    +0.000 A 
ATOM     13  C   UNL     1      40.842   6.369  20.308  0.00  0.00    +0.000 A 
BRANCH   8  15
ATOM     14  C   UNL     1      44.246   7.311  21.220  0.00  0.00    +0.000 C 
ATOM     15  O   UNL     1      42.941   6.813  21.272  0.00  0.00    +0.000 OA
ENDBRANCH   8  15
ENDBRANCH   2  11
ENDBRANCH   1   5
BRANCH   1  16
ATOM     16  C   UNL     1      36.813   3.606  12.981  0.00  0.00    +0.000 C 
BRANCH  16  17
ATOM     17  C   UNL     1      36.098   3.039  14.173  0.00  0.00    +0.000 A 
ATOM     18  C   UNL     1      34.938   3.621  14.628  0.00  0.00    +0.000 A 
ATOM     19  C   UNL     1      34.304   3.094  15.706  0.00  0.00    +0.000 A 
ATOM     20  C   UNL     1      34.804   1.976  16.362  0.00  0.00    +0.000 A 
ATOM     21  C   UNL     1      35.966   1.376  15.923  0.00  0.00    +0.000 A 
ATOM     22  C   UNL     1      36.594   1.924  14.830  0.00  0.00    +0.000 A 
BRANCH  21  23
ATOM     23  C   UNL     1      36.496   0.195  16.613  0.00  0.00    +0.000 C 
ATOM     24  O   UNL     1      36.709   0.265  17.842  0.00  0.00    +0.000 OA
ATOM     25  N   UNL     1      36.767  -1.004  15.937  0.00  0.00    +0.000 NA
BRANCH  25  26
ATOM     26  C   UNL     1      37.281  -2.226  16.448  0.00  0.00    +0.000 C 
BRANCH  26  27
ATOM     27  C   UNL     1      38.738  -2.370  16.603  0.00  0.00    +0.000 C 
ATOM     28  C   UNL     1      39.575  -1.721  15.559  0.00  0.00    +0.000 C 
ATOM     29  C   UNL     1      39.078  -3.841  16.748  0.00  0.00    +0.000 C 
ENDBRANCH  26  27
ENDBRANCH  25  26
ENDBRANCH  21  23
ENDBRANCH  16  17
ENDBRANCH   1  16
TORSDOF 8
ENDMDL
MODEL 8
REMARK VINA RESULT:      -7.2      3.678      8.061
REMARK  Name = 
REMARK  8 active torsions:
REMARK  status: ('A' for Active; 'I' for Inactive)
REMARK    1  A    between atoms: O_2  and  C_3
REMARK    2  A    between atoms: C_6  and  C_7
REMARK    3  A    between atoms: C_10  and  S_11
REMARK    4  A    between atoms: S_11  and  C_12
REMARK    5  A    between atoms: C_12  and  C_13
REMARK    6  A    between atoms: C_17  and  C_18
REMARK    7  A    between atoms: N_20  and  C_21
REMARK    8  A    between atoms: C_21  and  C_22
REMARK                            x       y       z     vdW  Elec       q    Type
REMARK                         _______ _______ _______ _____ _____    ______ ____
ROOT
ATOM      1  S   UNL     1      35.769  -3.885  16.141  0.00  0.00    +0.000 S 
ENDROOT
BRANCH   1   5
ATOM      2  C   UNL     1      39.583  -1.881  14.908  0.00  0.00    +0.000 A 
ATOM      3  C   UNL     1      39.522  -2.524  16.122  0.00  0.00    +0.000 A 
ATOM      4  C   UNL     1      38.375  -3.152  16.539  0.00  0.00    +0.000 A 
ATOM      5  C   UNL     1      37.282  -3.100  15.666  0.00  0.00    +0.000 A 
ATOM      6  N   UNL     1      37.408  -2.461  14.507  0.00  0.00    +0.000 NA
ATOM      7  N   UNL     1      38.499  -1.856  14.095  0.00  0.00    +0.000 NA
BRANCH   2  11
ATOM      8  C   UNL     1      43.111   0.012  13.711  0.00  0.00    +0.000 A 
ATOM      9  C   UNL     1      41.940   0.694  13.609  0.00  0.00    +0.000 A 
ATOM     10  C   UNL     1      40.766   0.055  14.011  0.00  0.00    +0.000 A 
ATOM     11  C   UNL     1      40.809  -1.225  14.493  0.00  0.00    +0.000 A 
ATOM     12  C   UNL     1      41.999  -1.891  14.587  0.00  0.00    +0.000 A 
ATOM     13  C   UNL     1      43.178  -1.280  14.196  0.00  0.00    +0.000 A 
BRANCH   8  15
ATOM     14  C   UNL     1      45.556  -0.044  13.675  0.00  0.00    +0.000 C 
ATOM     15  O   UNL     1      44.348   0.570  13.333  0.00  0.00    +0.000 OA
ENDBRANCH   8  15
ENDBRANCH   2  11
ENDBRANCH   1   5
BRANCH   1  16
ATOM     16  C   UNL     1      34.485  -2.626  16.324  0.00  0.00    +0.000 C 
BRANCH  16  17
ATOM     17  C   UNL     1      35.070  -1.510  17.141  0.00  0.00    +0.000 A 
ATOM     18  C   UNL     1      35.475  -1.735  18.436  0.00  0.00    +0.000 A 
ATOM     19  C   UNL     1      36.003  -0.715  19.159  0.00  0.00    +0.000 A 
ATOM     20  C   UNL     1      36.142   0.556  18.616  0.00  0.00    +0.000 A 
ATOM     21  C   UNL     1      35.744   0.805  17.319  0.00  0.00    +0.000 A 
ATOM     22  C   UNL     1      35.211  -0.241  16.602  0.00  0.00    +0.000 A 
BRANCH  21  23
ATOM     23  C   UNL     1      35.892   2.146  16.744  0.00  0.00    +0.000 C 
ATOM     24  O   UNL     1      34.907   2.669  16.182  0.00  0.00    +0.000 OA
ATOM     25  N   UNL     1      37.102   2.856  16.807  0.00  0.00    +0.000 NA
BRANCH  25  26
ATOM     26  C   UNL     1      37.412   4.147  16.302  0.00  0.00    +0.000 C 
BRANCH  26  27
ATOM     27  C   UNL     1      38.036   4.255  14.974  0.00  0.00    +0.000 C 
ATOM     28  C   UNL     1      37.109   4.215  13.810  0.00  0.00    +0.000 C 
ATOM     29  C   UNL     1      39.124   3.205  14.849  0.00  0.00    +0.000 C 
ENDBRANCH  26  27
ENDBRANCH  25  26
ENDBRANCH  21  23
ENDBRANCH  16  17
ENDBRANCH   1  16
TORSDOF 8
ENDMDL
MODEL 9
REMARK VINA RESULT:      -7.1      3.571      9.486
REMARK  Name = 
REMARK  8 active torsions:
REMARK  status: ('A' for Active; 'I' for Inactive)
REMARK    1  A    between atoms: O_2  and  C_3
REMARK    2  A    between atoms: C_6  and  C_7
REMARK    3  A    between atoms: C_10  and  S_11
REMARK    4  A    between atoms: S_11  and  C_12
REMARK    5  A    between atoms: C_12  and  C_13
REMARK    6  A    between atoms: C_17  and  C_18
REMARK    7  A    between atoms: N_20  and  C_21
REMARK    8  A    between atoms: C_21  and  C_22
REMARK                            x       y       z     vdW  Elec       q    Type
REMARK                         _______ _______ _______ _____ _____    ______ ____
ROOT
ATOM      1  S   UNL     1      38.133   5.479  15.704  0.00  0.00    +0.000 S 
ENDROOT
BRANCH   1   5
ATOM      2  C   UNL     1      36.588   1.275  15.853  0.00  0.00    +0.000 A 
ATOM      3  C   UNL     1      36.280   2.142  16.875  0.00  0.00    +0.000 A 
ATOM      4  C   UNL     1      36.731   3.438  16.870  0.00  0.00    +0.000 A 
ATOM      5  C   UNL     1      37.515   3.823  15.775  0.00  0.00    +0.000 A 
ATOM      6  N   UNL     1      37.775   2.934  14.821  0.00  0.00    +0.000 NA
ATOM      7  N   UNL     1      37.350   1.691  14.813  0.00  0.00    +0.000 NA
BRANCH   2  11
ATOM      8  C   UNL     1      35.174  -2.656  15.952  0.00  0.00    +0.000 A 
ATOM      9  C   UNL     1      34.727  -1.781  16.889  0.00  0.00    +0.000 A 
ATOM     10  C   UNL     1      35.204  -0.469  16.849  0.00  0.00    +0.000 A 
ATOM     11  C   UNL     1      36.097  -0.091  15.885  0.00  0.00    +0.000 A 
ATOM     12  C   UNL     1      36.533  -0.989  14.952  0.00  0.00    +0.000 A 
ATOM     13  C   UNL     1      36.076  -2.296  14.970  0.00  0.00    +0.000 A 
BRANCH   8  15
ATOM     14  C   UNL     1      35.122  -4.842  14.856  0.00  0.00    +0.000 C 
ATOM     15  O   UNL     1      34.753  -4.000  15.908  0.00  0.00    +0.000 OA
ENDBRANCH   8  15
ENDBRANCH   2  11
ENDBRANCH   1   5
BRANCH   1  16
ATOM     16  C   UNL     1      39.923   5.449  15.957  0.00  0.00    +0.000 C 
BRANCH  16  17
ATOM     17  C   UNL     1      40.180   5.886  17.370  0.00  0.00    +0.000 A 
ATOM     18  C   UNL     1      39.138   6.013  18.258  0.00  0.00    +0.000 A 
ATOM     19  C   UNL     1      39.389   6.406  19.533  0.00  0.00    +0.000 A 
ATOM     20  C   UNL     1      40.681   6.686  19.959  0.00  0.00    +0.000 A 
ATOM     21  C   UNL     1      41.742   6.565  19.086  0.00  0.00    +0.000 A 
ATOM     22  C   UNL     1      41.468   6.165  17.799  0.00  0.00    +0.000 A 
BRANCH  21  23
ATOM     23  C   UNL     1      43.107   6.858  19.535  0.00  0.00    +0.000 C 
ATOM     24  O   UNL     1      43.912   7.357  18.720  0.00  0.00    +0.000 OA
ATOM     25  N   UNL     1      43.533   6.596  20.847  0.00  0.00    +0.000 NA
BRANCH  25  26
ATOM     26  C   UNL     1      44.808   6.812  21.436  0.00  0.00    +0.000 C 
BRANCH  26  27
ATOM     27  C   UNL     1      45.750   5.684  21.517  0.00  0.00    +0.000 C 
ATOM     28  C   UNL     1      46.510   5.376  20.276  0.00  0.00    +0.000 C 
ATOM     29  C   UNL     1      45.017   4.461  22.034  0.00  0.00    +0.000 C 
ENDBRANCH  26  27
ENDBRANCH  25  26
ENDBRANCH  21  23
ENDBRANCH  16  17
ENDBRANCH   1  16
TORSDOF 8
ENDMDL
MODEL 10
REMARK VINA RESULT:      -7.0      4.360      5.934
REMARK  Name = 
REMARK  8 active torsions:
REMARK  status: ('A' for Active; 'I' for Inactive)
REMARK    1  A    between atoms: O_2  and  C_3
REMARK    2  A    between atoms: C_6  and  C_7
REMARK    3  A    between atoms: C_10  and  S_11
REMARK    4  A    between atoms: S_11  and  C_12
REMARK    5  A    between atoms: C_12  and  C_13
REMARK    6  A    between atoms: C_17  and  C_18
REMARK    7  A    between atoms: N_20  and  C_21
REMARK    8  A    between atoms: C_21  and  C_22
REMARK                            x       y       z     vdW  Elec       q    Type
REMARK                         _______ _______ _______ _____ _____    ______ ____
ROOT
ATOM      1  S   UNL     1      35.083  -1.144  17.341  0.00  0.00    +0.000 S 
ENDROOT
BRANCH   1   5
ATOM      2  C   UNL     1      35.318   2.697  15.043  0.00  0.00    +0.000 A 
ATOM      3  C   UNL     1      35.994   1.592  14.580  0.00  0.00    +0.000 A 
ATOM      4  C   UNL     1      35.949   0.396  15.251  0.00  0.00    +0.000 A 
ATOM      5  C   UNL     1      35.183   0.366  16.423  0.00  0.00    +0.000 A 
ATOM      6  N   UNL     1      34.556   1.470  16.815  0.00  0.00    +0.000 NA
ATOM      7  N   UNL     1      34.590   2.621  16.183  0.00  0.00    +0.000 NA
BRANCH   2  11
ATOM      8  C   UNL     1      35.516   6.302  12.939  0.00  0.00    +0.000 A 
ATOM      9  C   UNL     1      36.431   5.337  12.664  0.00  0.00    +0.000 A 
ATOM     10  C   UNL     1      36.359   4.135  13.371  0.00  0.00    +0.000 A 
ATOM     11  C   UNL     1      35.385   3.949  14.313  0.00  0.00    +0.000 A 
ATOM     12  C   UNL     1      34.474   4.934  14.572  0.00  0.00    +0.000 A 
ATOM     13  C   UNL     1      34.523   6.135  13.885  0.00  0.00    +0.000 A 
BRANCH   8  15
ATOM     14  C   UNL     1      34.332   8.064  11.724  0.00  0.00    +0.000 C 
ATOM     15  O   UNL     1      35.505   7.547  12.280  0.00  0.00    +0.000 OA
ENDBRANCH   8  15
ENDBRANCH   2  11
ENDBRANCH   1   5
BRANCH   1  16
ATOM     16  C   UNL     1      36.561  -1.304  18.370  0.00  0.00    +0.000 C 
BRANCH  16  17
ATOM     17  C   UNL     1      37.589  -2.041  17.560  0.00  0.00    +0.000 A 
ATOM     18  C   UNL     1      37.781  -3.390  17.743  0.00  0.00    +0.000 A 
ATOM     19  C   UNL     1      38.713  -4.040  17.001  0.00  0.00    +0.000 A 
ATOM     20  C   UNL     1      39.481  -3.368  16.059  0.00  0.00    +0.000 A 
ATOM     21  C   UNL     1      39.306  -2.014  15.858  0.00  0.00    +0.000 A 
ATOM     22  C   UNL     1      38.356  -1.373  16.619  0.00  0.00    +0.000 A 
BRANCH  21  23
ATOM     23  C   UNL     1      40.115  -1.303  14.863  0.00  0.00    +0.000 C 
ATOM     24  O   UNL     1      41.336  -1.554  14.792  0.00  0.00    +0.000 OA
ATOM     25  N   UNL     1      39.558  -0.353  13.990  0.00  0.00    +0.000 NA
BRANCH  25  26
ATOM     26  C   UNL     1      40.194   0.420  12.983  0.00  0.00    +0.000 C 
BRANCH  26  27
ATOM     27  C   UNL     1      40.081   1.887  13.041  0.00  0.00    +0.000 C 
ATOM     28  C   UNL     1      39.591   2.455  14.325  0.00  0.00    +0.000 C 
ATOM     29  C   UNL     1      39.245   2.367  11.870  0.00  0.00    +0.000 C 
ENDBRANCH  26  27
ENDBRANCH  25  26
ENDBRANCH  21  23
ENDBRANCH  16  17
ENDBRANCH   1  16
TORSDOF 8
ENDMDL
