MODEL 1
REMARK VINA RESULT:      -7.9      0.000      0.000
REMARK  Name = 
REMARK  4 active torsions:
REMARK  status: ('A' for Active; 'I' for Inactive)
REMARK    1  A    between atoms: C_2  and  C_5
REMARK    2  A    between atoms: C_10  and  O_11
REMARK    3  A    between atoms: O_11  and  C_12
REMARK    4  A    between atoms: C_17  and  N_18
REMARK                            x       y       z     vdW  Elec       q    Type
REMARK                         _______ _______ _______ _____ _____    ______ ____
ROOT
ATOM      1  C   UNL     1      15.406  11.150  37.345  0.00  0.00    +0.000 A 
ATOM      2  C   UNL     1      14.741  10.884  38.522  0.00  0.00    +0.000 A 
ATOM      3  C   UNL     1      13.372  11.030  38.625  0.00  0.00    +0.000 A 
ATOM      4  C   UNL     1      12.670  11.456  37.510  0.00  0.00    +0.000 A 
ATOM      5  C   UNL     1      13.350  11.710  36.367  0.00  0.00    +0.000 A 
ATOM      6  C   UNL     1      14.737  11.566  36.247  0.00  0.00    +0.000 A 
ENDROOT
BRANCH   1   8
ATOM      7  C   UNL     1      17.345  10.330  38.581  0.00  0.00    +0.000 C 
ATOM      8  C   UNL     1      16.880  10.979  37.276  0.00  0.00    +0.000 C 
ATOM      9  C   UNL     1      17.599  12.277  37.124  0.00  0.00    +0.000 C 
ATOM     10  C   UNL     1      17.239  10.090  36.090  0.00  0.00    +0.000 C 
ENDBRANCH   1   8
BRANCH   6  11
ATOM     11  O   UNL     1      15.330  11.854  35.028  0.00  0.00    +0.000 OA
BRANCH  11  12
ATOM     12  C   UNL     1      14.744  12.705  34.108  0.00  0.00    +0.000 A 
ATOM     13  C   UNL     1      13.919  13.757  34.485  0.00  0.00    +0.000 A 
ATOM     14  C   UNL     1      13.343  14.594  33.564  0.00  0.00    +0.000 A 
ATOM     15  C   UNL     1      13.548  14.442  32.211  0.00  0.00    +0.000 A 
ATOM     16  C   UNL     1      14.361  13.406  31.820  0.00  0.00    +0.000 A 
ATOM     17  C   UNL     1      14.944  12.559  32.750  0.00  0.00    +0.000 A 
BRANCH  17  18
ATOM     18  N   UNL     1      15.787  11.479  32.357  0.00  0.00    +0.000 NA
ATOM     19  C   UNL     1      15.169  10.283  31.912  0.00  0.00    +0.000 C 
ATOM     20  O   UNL     1      13.933  10.236  31.885  0.00  0.00    +0.000 OA
ENDBRANCH  17  18
ENDBRANCH  11  12
ENDBRANCH   6  11
TORSDOF 4
ENDMDL
MODEL 2
REMARK VINA RESULT:      -7.3      1.486      2.570
REMARK  Name = 
REMARK  4 active torsions:
REMARK  status: ('A' for Active; 'I' for Inactive)
REMARK    1  A    between atoms: C_2  and  C_5
REMARK    2  A    between atoms: C_10  and  O_11
REMARK    3  A    between atoms: O_11  and  C_12
REMARK    4  A    between atoms: C_17  and  N_18
REMARK                            x       y       z     vdW  Elec       q    Type
REMARK                         _______ _______ _______ _____ _____    ______ ____
ROOT
ATOM      1  C   UNL     1      15.374  11.397  37.104  0.00  0.00    +0.000 A 
ATOM      2  C   UNL     1      14.672  10.860  38.161  0.00  0.00    +0.000 A 
ATOM      3  C   UNL     1      13.298  10.968  38.243  0.00  0.00    +0.000 A 
ATOM      4  C   UNL     1      12.629  11.633  37.230  0.00  0.00    +0.000 A 
ATOM      5  C   UNL     1      13.344  12.151  36.203  0.00  0.00    +0.000 A 
ATOM      6  C   UNL     1      14.737  12.049  36.106  0.00  0.00    +0.000 A 
ENDROOT
BRANCH   1   8
ATOM      7  C   UNL     1      17.196  10.217  35.988  0.00  0.00    +0.000 C 
ATOM      8  C   UNL     1      16.853  11.258  37.054  0.00  0.00    +0.000 C 
ATOM      9  C   UNL     1      17.428  10.799  38.351  0.00  0.00    +0.000 C 
ATOM     10  C   UNL     1      17.482  12.601  36.699  0.00  0.00    +0.000 C 
ENDBRANCH   1   8
BRANCH   6  11
ATOM     11  O   UNL     1      15.368  12.616  35.010  0.00  0.00    +0.000 OA
BRANCH  11  12
ATOM     12  C   UNL     1      15.192  12.129  33.727  0.00  0.00    +0.000 A 
ATOM     13  C   UNL     1      15.850  10.996  33.262  0.00  0.00    +0.000 A 
ATOM     14  C   UNL     1      15.668  10.523  31.988  0.00  0.00    +0.000 A 
ATOM     15  C   UNL     1      14.824  11.142  31.094  0.00  0.00    +0.000 A 
ATOM     16  C   UNL     1      14.166  12.264  31.535  0.00  0.00    +0.000 A 
ATOM     17  C   UNL     1      14.349  12.743  32.823  0.00  0.00    +0.000 A 
BRANCH  17  18
ATOM     18  N   UNL     1      13.675  13.908  33.293  0.00  0.00    +0.000 NA
ATOM     19  C   UNL     1      13.680  15.057  32.464  0.00  0.00    +0.000 C 
ATOM     20  O   UNL     1      14.266  14.995  31.376  0.00  0.00    +0.000 OA
ENDBRANCH  17  18
ENDBRANCH  11  12
ENDBRANCH   6  11
TORSDOF 4
ENDMDL
MODEL 3
REMARK VINA RESULT:      -6.9     17.239     19.288
REMARK  Name = 
REMARK  4 active torsions:
REMARK  status: ('A' for Active; 'I' for Inactive)
REMARK    1  A    between atoms: C_2  and  C_5
REMARK    2  A    between atoms: C_10  and  O_11
REMARK    3  A    between atoms: O_11  and  C_12
REMARK    4  A    between atoms: C_17  and  N_18
REMARK                            x       y       z     vdW  Elec       q    Type
REMARK                         _______ _______ _______ _____ _____    ______ ____
ROOT
ATOM      1  C   UNL     1      28.101  23.180  25.055  0.00  0.00    +0.000 A 
ATOM      2  C   UNL     1      28.120  23.393  23.694  0.00  0.00    +0.000 A 
ATOM      3  C   UNL     1      26.955  23.426  22.954  0.00  0.00    +0.000 A 
ATOM      4  C   UNL     1      25.751  23.238  23.611  0.00  0.00    +0.000 A 
ATOM      5  C   UNL     1      25.763  23.030  24.949  0.00  0.00    +0.000 A 
ATOM      6  C   UNL     1      26.935  22.995  25.713  0.00  0.00    +0.000 A 
ENDROOT
BRANCH   1   8
ATOM      7  C   UNL     1      30.519  22.952  24.819  0.00  0.00    +0.000 C 
ATOM      8  C   UNL     1      29.377  23.153  25.816  0.00  0.00    +0.000 C 
ATOM      9  C   UNL     1      29.427  22.039  26.807  0.00  0.00    +0.000 C 
ATOM     10  C   UNL     1      29.557  24.469  26.564  0.00  0.00    +0.000 C 
ENDBRANCH   1   8
BRANCH   6  11
ATOM     11  O   UNL     1      26.830  22.775  27.078  0.00  0.00    +0.000 OA
BRANCH  11  12
ATOM     12  C   UNL     1      26.249  23.699  27.929  0.00  0.00    +0.000 A 
ATOM     13  C   UNL     1      25.357  24.667  27.483  0.00  0.00    +0.000 A 
ATOM     14  C   UNL     1      24.788  25.577  28.335  0.00  0.00    +0.000 A 
ATOM     15  C   UNL     1      25.068  25.588  29.684  0.00  0.00    +0.000 A 
ATOM     16  C   UNL     1      25.948  24.639  30.143  0.00  0.00    +0.000 A 
ATOM     17  C   UNL     1      26.524  23.717  29.282  0.00  0.00    +0.000 A 
BRANCH  17  18
ATOM     18  N   UNL     1      27.442  22.729  29.744  0.00  0.00    +0.000 NA
ATOM     19  C   UNL     1      26.927  21.650  30.506  0.00  0.00    +0.000 C 
ATOM     20  O   UNL     1      25.710  21.618  30.732  0.00  0.00    +0.000 OA
ENDBRANCH  17  18
ENDBRANCH  11  12
ENDBRANCH   6  11
TORSDOF 4
ENDMDL
MODEL 4
REMARK VINA RESULT:      -6.6      1.738      5.716
REMARK  Name = 
REMARK  4 active torsions:
REMARK  status: ('A' for Active; 'I' for Inactive)
REMARK    1  A    between atoms: C_2  and  C_5
REMARK    2  A    between atoms: C_10  and  O_11
REMARK    3  A    between atoms: O_11  and  C_12
REMARK    4  A    between atoms: C_17  and  N_18
REMARK                            x       y       z     vdW  Elec       q    Type
REMARK                         _______ _______ _______ _____ _____    ______ ____
ROOT
ATOM      1  C   UNL     1      14.940  12.480  32.227  0.00  0.00    +0.000 A 
ATOM      2  C   UNL     1      15.439  11.692  31.214  0.00  0.00    +0.000 A 
ATOM      3  C   UNL     1      16.196  10.568  31.481  0.00  0.00    +0.000 A 
ATOM      4  C   UNL     1      16.448  10.243  32.803  0.00  0.00    +0.000 A 
ATOM      5  C   UNL     1      15.945  11.037  33.779  0.00  0.00    +0.000 A 
ATOM      6  C   UNL     1      15.176  12.179  33.523  0.00  0.00    +0.000 A 
ENDROOT
BRANCH   1   8
ATOM      7  C   UNL     1      15.051  14.708  31.237  0.00  0.00    +0.000 C 
ATOM      8  C   UNL     1      14.130  13.681  31.897  0.00  0.00    +0.000 C 
ATOM      9  C   UNL     1      13.525  14.312  33.106  0.00  0.00    +0.000 C 
ATOM     10  C   UNL     1      13.004  13.296  30.944  0.00  0.00    +0.000 C 
ENDBRANCH   1   8
BRANCH   6  11
ATOM     11  O   UNL     1      14.711  12.918  34.599  0.00  0.00    +0.000 OA
BRANCH  11  12
ATOM     12  C   UNL     1      14.325  12.325  35.788  0.00  0.00    +0.000 A 
ATOM     13  C   UNL     1      13.075  11.743  35.960  0.00  0.00    +0.000 A 
ATOM     14  C   UNL     1      12.703  11.158  37.143  0.00  0.00    +0.000 A 
ATOM     15  C   UNL     1      13.545  11.114  38.231  0.00  0.00    +0.000 A 
ATOM     16  C   UNL     1      14.785  11.685  38.080  0.00  0.00    +0.000 A 
ATOM     17  C   UNL     1      15.162  12.276  36.885  0.00  0.00    +0.000 A 
BRANCH  17  18
ATOM     18  N   UNL     1      16.445  12.875  36.715  0.00  0.00    +0.000 NA
ATOM     19  C   UNL     1      17.587  12.046  36.847  0.00  0.00    +0.000 C 
ATOM     20  O   UNL     1      17.416  10.847  37.102  0.00  0.00    +0.000 OA
ENDBRANCH  17  18
ENDBRANCH  11  12
ENDBRANCH   6  11
TORSDOF 4
ENDMDL
MODEL 5
REMARK VINA RESULT:      -6.4      3.283      7.006
REMARK  Name = 
REMARK  4 active torsions:
REMARK  status: ('A' for Active; 'I' for Inactive)
REMARK    1  A    between atoms: C_2  and  C_5
REMARK    2  A    between atoms: C_10  and  O_11
REMARK    3  A    between atoms: O_11  and  C_12
REMARK    4  A    between atoms: C_17  and  N_18
REMARK                            x       y       z     vdW  Elec       q    Type
REMARK                         _______ _______ _______ _____ _____    ______ ____
ROOT
ATOM      1  C   UNL     1      16.479  10.917  35.914  0.00  0.00    +0.000 A 
ATOM      2  C   UNL     1      16.619  10.792  34.550  0.00  0.00    +0.000 A 
ATOM      3  C   UNL     1      17.409   9.804  33.995  0.00  0.00    +0.000 A 
ATOM      4  C   UNL     1      18.065   8.930  34.845  0.00  0.00    +0.000 A 
ATOM      5  C   UNL     1      17.909   9.078  36.182  0.00  0.00    +0.000 A 
ATOM      6  C   UNL     1      17.112  10.074  36.759  0.00  0.00    +0.000 A 
ENDROOT
BRANCH   1   8
ATOM      7  C   UNL     1      16.530  13.100  37.004  0.00  0.00    +0.000 C 
ATOM      8  C   UNL     1      15.619  11.994  36.471  0.00  0.00    +0.000 C 
ATOM      9  C   UNL     1      14.764  11.517  37.597  0.00  0.00    +0.000 C 
ATOM     10  C   UNL     1      14.709  12.543  35.378  0.00  0.00    +0.000 C 
ENDBRANCH   1   8
BRANCH   6  11
ATOM     11  O   UNL     1      17.023  10.132  38.141  0.00  0.00    +0.000 OA
BRANCH  11  12
ATOM     12  C   UNL     1      18.142  10.250  38.946  0.00  0.00    +0.000 A 
ATOM     13  C   UNL     1      19.144  11.180  38.700  0.00  0.00    +0.000 A 
ATOM     14  C   UNL     1      20.249  11.287  39.504  0.00  0.00    +0.000 A 
ATOM     15  C   UNL     1      20.432  10.479  40.603  0.00  0.00    +0.000 A 
ATOM     16  C   UNL     1      19.452   9.552  40.863  0.00  0.00    +0.000 A 
ATOM     17  C   UNL     1      18.334   9.443  40.050  0.00  0.00    +0.000 A 
BRANCH  17  18
ATOM     18  N   UNL     1      17.310   8.484  40.306  0.00  0.00    +0.000 NA
ATOM     19  C   UNL     1      16.348   8.791  41.300  0.00  0.00    +0.000 C 
ATOM     20  O   UNL     1      16.442   9.871  41.896  0.00  0.00    +0.000 OA
ENDBRANCH  17  18
ENDBRANCH  11  12
ENDBRANCH   6  11
TORSDOF 4
ENDMDL
MODEL 6
REMARK VINA RESULT:      -6.4     20.305     22.975
REMARK  Name = 
REMARK  4 active torsions:
REMARK  status: ('A' for Active; 'I' for Inactive)
REMARK    1  A    between atoms: C_2  and  C_5
REMARK    2  A    between atoms: C_10  and  O_11
REMARK    3  A    between atoms: O_11  and  C_12
REMARK    4  A    between atoms: C_17  and  N_18
REMARK                            x       y       z     vdW  Elec       q    Type
REMARK                         _______ _______ _______ _____ _____    ______ ____
ROOT
ATOM      1  C   UNL     1      19.967  -7.414  25.989  0.00  0.00    +0.000 A 
ATOM      2  C   UNL     1      20.133  -6.076  25.707  0.00  0.00    +0.000 A 
ATOM      3  C   UNL     1      19.278  -5.120  26.219  0.00  0.00    +0.000 A 
ATOM      4  C   UNL     1      18.237  -5.536  27.031  0.00  0.00    +0.000 A 
ATOM      5  C   UNL     1      18.098  -6.858  27.291  0.00  0.00    +0.000 A 
ATOM      6  C   UNL     1      18.956  -7.838  26.780  0.00  0.00    +0.000 A 
ENDROOT
BRANCH   1   8
ATOM      7  C   UNL     1      20.148  -9.250  24.391  0.00  0.00    +0.000 C 
ATOM      8  C   UNL     1      20.910  -8.411  25.418  0.00  0.00    +0.000 C 
ATOM      9  C   UNL     1      21.460  -9.334  26.453  0.00  0.00    +0.000 C 
ATOM     10  C   UNL     1      22.076  -7.691  24.749  0.00  0.00    +0.000 C 
ENDBRANCH   1   8
BRANCH   6  11
ATOM     11  O   UNL     1      18.721  -9.163  27.111  0.00  0.00    +0.000 OA
BRANCH  11  12
ATOM     12  C   UNL     1      18.397  -9.553  28.398  0.00  0.00    +0.000 A 
ATOM     13  C   UNL     1      19.265  -9.385  29.470  0.00  0.00    +0.000 A 
ATOM     14  C   UNL     1      18.934  -9.776  30.741  0.00  0.00    +0.000 A 
ATOM     15  C   UNL     1      17.721 -10.359  31.032  0.00  0.00    +0.000 A 
ATOM     16  C   UNL     1      16.849 -10.534  29.985  0.00  0.00    +0.000 A 
ATOM     17  C   UNL     1      17.183 -10.139  28.699  0.00  0.00    +0.000 A 
BRANCH  17  18
ATOM     18  N   UNL     1      16.290 -10.317  27.603  0.00  0.00    +0.000 NA
ATOM     19  C   UNL     1      16.275 -11.578  26.957  0.00  0.00    +0.000 C 
ATOM     20  O   UNL     1      17.035 -12.461  27.375  0.00  0.00    +0.000 OA
ENDBRANCH  17  18
ENDBRANCH  11  12
ENDBRANCH   6  11
TORSDOF 4
ENDMDL
MODEL 7
REMARK VINA RESULT:      -6.3      1.889      5.933
REMARK  Name = 
REMARK  4 active torsions:
REMARK  status: ('A' for Active; 'I' for Inactive)
REMARK    1  A    between atoms: C_2  and  C_5
REMARK    2  A    between atoms: C_10  and  O_11
REMARK    3  A    between atoms: O_11  and  C_12
REMARK    4  A    between atoms: C_17  and  N_18
REMARK                            x       y       z     vdW  Elec       q    Type
REMARK                         _______ _______ _______ _____ _____    ______ ____
ROOT
ATOM      1  C   UNL     1      14.961  12.446  32.065  0.00  0.00    +0.000 A 
ATOM      2  C   UNL     1      15.487  11.841  30.946  0.00  0.00    +0.000 A 
ATOM      3  C   UNL     1      16.272  10.708  31.040  0.00  0.00    +0.000 A 
ATOM      4  C   UNL     1      16.525  10.186  32.297  0.00  0.00    +0.000 A 
ATOM      5  C   UNL     1      15.995  10.802  33.380  0.00  0.00    +0.000 A 
ATOM      6  C   UNL     1      15.197  11.950  33.300  0.00  0.00    +0.000 A 
ENDROOT
BRANCH   1   8
ATOM      7  C   UNL     1      14.979  14.760  31.288  0.00  0.00    +0.000 C 
ATOM      8  C   UNL     1      14.121  13.663  31.920  0.00  0.00    +0.000 C 
ATOM      9  C   UNL     1      13.617  14.169  33.230  0.00  0.00    +0.000 C 
ATOM     10  C   UNL     1      12.921  13.356  31.031  0.00  0.00    +0.000 C 
ENDBRANCH   1   8
BRANCH   6  11
ATOM     11  O   UNL     1      14.706  12.498  34.474  0.00  0.00    +0.000 OA
BRANCH  11  12
ATOM     12  C   UNL     1      15.037  11.991  35.718  0.00  0.00    +0.000 A 
ATOM     13  C   UNL     1      16.259  11.382  35.975  0.00  0.00    +0.000 A 
ATOM     14  C   UNL     1      16.577  10.883  37.211  0.00  0.00    +0.000 A 
ATOM     15  C   UNL     1      15.702  10.953  38.272  0.00  0.00    +0.000 A 
ATOM     16  C   UNL     1      14.488  11.550  38.038  0.00  0.00    +0.000 A 
ATOM     17  C   UNL     1      14.166  12.057  36.788  0.00  0.00    +0.000 A 
BRANCH  17  18
ATOM     18  N   UNL     1      12.909  12.677  36.529  0.00  0.00    +0.000 NA
ATOM     19  C   UNL     1      11.733  11.951  36.849  0.00  0.00    +0.000 C 
ATOM     20  O   UNL     1      11.855  10.820  37.335  0.00  0.00    +0.000 OA
ENDBRANCH  17  18
ENDBRANCH  11  12
ENDBRANCH   6  11
TORSDOF 4
ENDMDL
MODEL 8
REMARK VINA RESULT:      -6.3     17.982     20.106
REMARK  Name = 
REMARK  4 active torsions:
REMARK  status: ('A' for Active; 'I' for Inactive)
REMARK    1  A    between atoms: C_2  and  C_5
REMARK    2  A    between atoms: C_10  and  O_11
REMARK    3  A    between atoms: O_11  and  C_12
REMARK    4  A    between atoms: C_17  and  N_18
REMARK                            x       y       z     vdW  Elec       q    Type
REMARK                         _______ _______ _______ _____ _____    ______ ____
ROOT
ATOM      1  C   UNL     1      28.244  23.264  24.915  0.00  0.00    +0.000 A 
ATOM      2  C   UNL     1      29.220  22.996  23.981  0.00  0.00    +0.000 A 
ATOM      3  C   UNL     1      30.467  22.537  24.354  0.00  0.00    +0.000 A 
ATOM      4  C   UNL     1      30.723  22.348  25.701  0.00  0.00    +0.000 A 
ATOM      5  C   UNL     1      29.745  22.621  26.597  0.00  0.00    +0.000 A 
ATOM      6  C   UNL     1      28.476  23.086  26.234  0.00  0.00    +0.000 A 
ENDROOT
BRANCH   1   8
ATOM      7  C   UNL     1      26.858  23.667  22.946  0.00  0.00    +0.000 C 
ATOM      8  C   UNL     1      26.913  23.757  24.471  0.00  0.00    +0.000 C 
ATOM      9  C   UNL     1      26.672  25.177  24.860  0.00  0.00    +0.000 C 
ATOM     10  C   UNL     1      25.815  22.898  25.089  0.00  0.00    +0.000 C 
ENDBRANCH   1   8
BRANCH   6  11
ATOM     11  O   UNL     1      27.549  23.332  27.235  0.00  0.00    +0.000 OA
BRANCH  11  12
ATOM     12  C   UNL     1      27.831  24.151  28.314  0.00  0.00    +0.000 A 
ATOM     13  C   UNL     1      27.958  25.530  28.191  0.00  0.00    +0.000 A 
ATOM     14  C   UNL     1      28.238  26.332  29.267  0.00  0.00    +0.000 A 
ATOM     15  C   UNL     1      28.412  25.819  30.533  0.00  0.00    +0.000 A 
ATOM     16  C   UNL     1      28.291  24.458  30.674  0.00  0.00    +0.000 A 
ATOM     17  C   UNL     1      28.007  23.646  29.587  0.00  0.00    +0.000 A 
BRANCH  17  18
ATOM     18  N   UNL     1      27.883  22.232  29.718  0.00  0.00    +0.000 NA
ATOM     19  C   UNL     1      26.704  21.723  30.318  0.00  0.00    +0.000 C 
ATOM     20  O   UNL     1      25.844  22.528  30.698  0.00  0.00    +0.000 OA
ENDBRANCH  17  18
ENDBRANCH  11  12
ENDBRANCH   6  11
TORSDOF 4
ENDMDL
MODEL 9
REMARK VINA RESULT:      -6.3      4.311      7.024
REMARK  Name = 
REMARK  4 active torsions:
REMARK  status: ('A' for Active; 'I' for Inactive)
REMARK    1  A    between atoms: C_2  and  C_5
REMARK    2  A    between atoms: C_10  and  O_11
REMARK    3  A    between atoms: O_11  and  C_12
REMARK    4  A    between atoms: C_17  and  N_18
REMARK                            x       y       z     vdW  Elec       q    Type
REMARK                         _______ _______ _______ _____ _____    ______ ____
ROOT
ATOM      1  C   UNL     1      17.418  10.438  38.475  0.00  0.00    +0.000 A 
ATOM      2  C   UNL     1      16.558   9.989  39.453  0.00  0.00    +0.000 A 
ATOM      3  C   UNL     1      17.029   9.456  40.636  0.00  0.00    +0.000 A 
ATOM      4  C   UNL     1      18.398   9.379  40.825  0.00  0.00    +0.000 A 
ATOM      5  C   UNL     1      19.219   9.827  39.846  0.00  0.00    +0.000 A 
ATOM      6  C   UNL     1      18.758  10.370  38.642  0.00  0.00    +0.000 A 
ENDROOT
BRANCH   1   8
ATOM      7  C   UNL     1      17.272  10.081  36.064  0.00  0.00    +0.000 C 
ATOM      8  C   UNL     1      16.871  11.006  37.215  0.00  0.00    +0.000 C 
ATOM      9  C   UNL     1      17.407  12.367  36.922  0.00  0.00    +0.000 C 
ATOM     10  C   UNL     1      15.352  11.099  37.310  0.00  0.00    +0.000 C 
ENDBRANCH   1   8
BRANCH   6  11
ATOM     11  O   UNL     1      19.688  10.799  37.709  0.00  0.00    +0.000 OA
BRANCH  11  12
ATOM     12  C   UNL     1      20.756  11.610  38.053  0.00  0.00    +0.000 A 
ATOM     13  C   UNL     1      20.598  12.950  38.385  0.00  0.00    +0.000 A 
ATOM     14  C   UNL     1      21.663  13.744  38.724  0.00  0.00    +0.000 A 
ATOM     15  C   UNL     1      22.952  13.261  38.754  0.00  0.00    +0.000 A 
ATOM     16  C   UNL     1      23.127  11.939  38.428  0.00  0.00    +0.000 A 
ATOM     17  C   UNL     1      22.051  11.135  38.086  0.00  0.00    +0.000 A 
BRANCH  17  18
ATOM     18  N   UNL     1      22.219   9.761  37.743  0.00  0.00    +0.000 NA
ATOM     19  C   UNL     1      22.727   9.457  36.455  0.00  0.00    +0.000 C 
ATOM     20  O   UNL     1      22.999  10.394  35.694  0.00  0.00    +0.000 OA
ENDBRANCH  17  18
ENDBRANCH  11  12
ENDBRANCH   6  11
TORSDOF 4
ENDMDL
MODEL 10
REMARK VINA RESULT:      -6.3      4.323      7.418
REMARK  Name = 
REMARK  4 active torsions:
REMARK  status: ('A' for Active; 'I' for Inactive)
REMARK    1  A    between atoms: C_2  and  C_5
REMARK    2  A    between atoms: C_10  and  O_11
REMARK    3  A    between atoms: O_11  and  C_12
REMARK    4  A    between atoms: C_17  and  N_18
REMARK                            x       y       z     vdW  Elec       q    Type
REMARK                         _______ _______ _______ _____ _____    ______ ____
ROOT
ATOM      1  C   UNL     1      22.516  11.693  37.995  0.00  0.00    +0.000 A 
ATOM      2  C   UNL     1      23.297  12.751  38.406  0.00  0.00    +0.000 A 
ATOM      3  C   UNL     1      22.735  13.922  38.874  0.00  0.00    +0.000 A 
ATOM      4  C   UNL     1      21.354  14.016  38.923  0.00  0.00    +0.000 A 
ATOM      5  C   UNL     1      20.612  12.960  38.512  0.00  0.00    +0.000 A 
ATOM      6  C   UNL     1      21.168  11.767  38.036  0.00  0.00    +0.000 A 
ENDROOT
BRANCH   1   8
ATOM      7  C   UNL     1      24.662  10.714  37.365  0.00  0.00    +0.000 C 
ATOM      8  C   UNL     1      23.161  10.450  37.498  0.00  0.00    +0.000 C 
ATOM      9  C   UNL     1      22.645  10.033  36.162  0.00  0.00    +0.000 C 
ATOM     10  C   UNL     1      22.913   9.313  38.484  0.00  0.00    +0.000 C 
ENDBRANCH   1   8
BRANCH   6  11
ATOM     11  O   UNL     1      20.313  10.749  37.642  0.00  0.00    +0.000 OA
BRANCH  11  12
ATOM     12  C   UNL     1      19.239  10.349  38.417  0.00  0.00    +0.000 A 
ATOM     13  C   UNL     1      19.398   9.763  39.667  0.00  0.00    +0.000 A 
ATOM     14  C   UNL     1      18.326   9.370  40.426  0.00  0.00    +0.000 A 
ATOM     15  C   UNL     1      17.028   9.531  39.994  0.00  0.00    +0.000 A 
ATOM     16  C   UNL     1      16.852  10.108  38.760  0.00  0.00    +0.000 A 
ATOM     17  C   UNL     1      17.935  10.506  37.992  0.00  0.00    +0.000 A 
BRANCH  17  18
ATOM     18  N   UNL     1      17.766  11.103  36.709  0.00  0.00    +0.000 NA
ATOM     19  C   UNL     1      17.573  10.244  35.598  0.00  0.00    +0.000 C 
ATOM     20  O   UNL     1      17.561   9.023  35.795  0.00  0.00    +0.000 OA
ENDBRANCH  17  18
ENDBRANCH  11  12
ENDBRANCH   6  11
TORSDOF 4
ENDMDL
