MODEL 1
REMARK VINA RESULT:      -7.8      0.000      0.000
REMARK  Name = 
REMARK  7 active torsions:
REMARK  status: ('A' for Active; 'I' for Inactive)
REMARK    1  A    between atoms: C_5  and  C_6
REMARK    2  A    between atoms: C_9  and  C_10
REMARK    3  A    between atoms: C_18  and  C_19
REMARK    4  A    between atoms: C_22  and  O_23
REMARK    5  A    between atoms: O_23  and  C_24
REMARK    6  A    between atoms: C_24  and  C_25
REMARK    7  A    between atoms: C_25  and  N_26
REMARK                            x       y       z     vdW  Elec       q    Type
REMARK                         _______ _______ _______ _____ _____    ______ ____
ROOT
ATOM      1  C   UNL     1      36.926   4.695  14.836  0.00  0.00    +0.000 A 
ATOM      2  C   UNL     1      35.966   3.997  14.121  0.00  0.00    +0.000 A 
ATOM      3  C   UNL     1      35.657   2.683  14.434  0.00  0.00    +0.000 A 
ATOM      4  C   UNL     1      36.293   2.027  15.468  0.00  0.00    +0.000 A 
ATOM      5  N   UNL     1      37.221   2.714  16.154  0.00  0.00    +0.000 NA
ATOM      6  C   UNL     1      37.542   4.010  15.862  0.00  0.00    +0.000 A 
ENDROOT
BRANCH   1  11
ATOM      7  O   UNL     1      38.326  10.033  13.492  0.00  0.00    +0.000 OA
ATOM      8  C   UNL     1      37.976   8.730  13.832  0.00  0.00    +0.000 A 
ATOM      9  C   UNL     1      37.135   8.458  14.900  0.00  0.00    +0.000 A 
ATOM     10  C   UNL     1      36.794   7.162  15.230  0.00  0.00    +0.000 A 
ATOM     11  C   UNL     1      37.267   6.078  14.521  0.00  0.00    +0.000 A 
ATOM     12  C   UNL     1      38.108   6.350  13.456  0.00  0.00    +0.000 A 
ATOM     13  C   UNL     1      38.450   7.646  13.123  0.00  0.00    +0.000 A 
ENDBRANCH   1  11
BRANCH   4  14
ATOM     14  C   UNL     1      35.947   0.645  15.774  0.00  0.00    +0.000 A 
ATOM     15  C   UNL     1      35.103   0.331  16.818  0.00  0.00    +0.000 A 
ATOM     16  C   UNL     1      34.764  -0.975  17.122  0.00  0.00    +0.000 A 
ATOM     17  C   UNL     1      35.271  -2.014  16.371  0.00  0.00    +0.000 A 
ATOM     18  F   UNL     1      34.920  -3.280  16.695  0.00  0.00    +0.000 F 
ATOM     19  C   UNL     1      36.117  -1.711  15.325  0.00  0.00    +0.000 A 
ATOM     20  C   UNL     1      36.454  -0.393  15.025  0.00  0.00    +0.000 A 
ENDBRANCH   4  14
BRANCH   6  21
ATOM     21  C   UNL     1      38.550   4.726  16.631  0.00  0.00    +0.000 A 
ATOM     22  C   UNL     1      39.708   5.255  16.088  0.00  0.00    +0.000 A 
ATOM     23  C   UNL     1      40.627   5.925  16.868  0.00  0.00    +0.000 A 
ATOM     24  C   UNL     1      40.470   6.115  18.214  0.00  0.00    +0.000 A 
ATOM     25  C   UNL     1      39.290   5.579  18.776  0.00  0.00    +0.000 A 
ATOM     26  C   UNL     1      38.390   4.916  17.983  0.00  0.00    +0.000 A 
BRANCH  24  27
ATOM     27  O   UNL     1      41.323   6.758  19.037  0.00  0.00    +0.000 OA
BRANCH  27  28
ATOM     28  C   UNL     1      41.254   7.577  20.106  0.00  0.00    +0.000 C 
BRANCH  28  29
ATOM     29  C   UNL     1      41.196   9.048  19.911  0.00  0.00    +0.000 C 
BRANCH  29  30
ATOM     30  N   UNL     1      39.882   9.553  20.197  0.00  0.00    +0.000 NA
ATOM     31  C   UNL     1      39.354  10.215  19.013  0.00  0.00    +0.000 C 
ATOM     32  C   UNL     1      38.587   9.245  18.122  0.00  0.00    +0.000 C 
ATOM     33  C   UNL     1      37.397   8.663  18.843  0.00  0.00    +0.000 C 
ATOM     34  C   UNL     1      37.564   8.907  20.328  0.00  0.00    +0.000 C 
ATOM     35  C   UNL     1      38.985   8.563  20.724  0.00  0.00    +0.000 C 
ENDBRANCH  29  30
ENDBRANCH  28  29
ENDBRANCH  27  28
ENDBRANCH  24  27
ENDBRANCH   6  21
TORSDOF 7
ENDMDL
MODEL 2
REMARK VINA RESULT:      -7.7      4.541      8.062
REMARK  Name = 
REMARK  7 active torsions:
REMARK  status: ('A' for Active; 'I' for Inactive)
REMARK    1  A    between atoms: C_5  and  C_6
REMARK    2  A    between atoms: C_9  and  C_10
REMARK    3  A    between atoms: C_18  and  C_19
REMARK    4  A    between atoms: C_22  and  O_23
REMARK    5  A    between atoms: O_23  and  C_24
REMARK    6  A    between atoms: C_24  and  C_25
REMARK    7  A    between atoms: C_25  and  N_26
REMARK                            x       y       z     vdW  Elec       q    Type
REMARK                         _______ _______ _______ _____ _____    ______ ____
ROOT
ATOM      1  C   UNL     1      37.549   3.747  12.991  0.00  0.00    +0.000 A 
ATOM      2  C   UNL     1      37.226   4.765  12.107  0.00  0.00    +0.000 A 
ATOM      3  C   UNL     1      36.935   4.493  10.780  0.00  0.00    +0.000 A 
ATOM      4  C   UNL     1      36.957   3.202  10.295  0.00  0.00    +0.000 A 
ATOM      5  N   UNL     1      37.271   2.224  11.160  0.00  0.00    +0.000 NA
ATOM      6  C   UNL     1      37.562   2.470  12.473  0.00  0.00    +0.000 A 
ENDROOT
BRANCH   1  11
ATOM      7  O   UNL     1      38.881   4.850  18.401  0.00  0.00    +0.000 OA
ATOM      8  C   UNL     1      38.544   4.573  17.080  0.00  0.00    +0.000 A 
ATOM      9  C   UNL     1      37.338   3.975  16.747  0.00  0.00    +0.000 A 
ATOM     10  C   UNL     1      37.012   3.704  15.434  0.00  0.00    +0.000 A 
ATOM     11  C   UNL     1      37.860   4.013  14.391  0.00  0.00    +0.000 A 
ATOM     12  C   UNL     1      39.064   4.609  14.724  0.00  0.00    +0.000 A 
ATOM     13  C   UNL     1      39.392   4.881  16.037  0.00  0.00    +0.000 A 
ENDBRANCH   1  11
BRANCH   4  14
ATOM     14  C   UNL     1      36.647   2.946   8.894  0.00  0.00    +0.000 A 
ATOM     15  C   UNL     1      37.073   1.797   8.263  0.00  0.00    +0.000 A 
ATOM     16  C   UNL     1      36.788   1.539   6.934  0.00  0.00    +0.000 A 
ATOM     17  C   UNL     1      36.053   2.443   6.196  0.00  0.00    +0.000 A 
ATOM     18  F   UNL     1      35.791   2.160   4.899  0.00  0.00    +0.000 F 
ATOM     19  C   UNL     1      35.621   3.596   6.818  0.00  0.00    +0.000 A 
ATOM     20  C   UNL     1      35.914   3.848   8.156  0.00  0.00    +0.000 A 
ENDBRANCH   4  14
BRANCH   6  21
ATOM     21  C   UNL     1      37.893   1.384  13.385  0.00  0.00    +0.000 A 
ATOM     22  C   UNL     1      36.968   0.484  13.885  0.00  0.00    +0.000 A 
ATOM     23  C   UNL     1      37.341  -0.526  14.747  0.00  0.00    +0.000 A 
ATOM     24  C   UNL     1      38.629  -0.714  15.167  0.00  0.00    +0.000 A 
ATOM     25  C   UNL     1      39.580   0.200  14.661  0.00  0.00    +0.000 A 
ATOM     26  C   UNL     1      39.188   1.197  13.806  0.00  0.00    +0.000 A 
BRANCH  24  27
ATOM     27  O   UNL     1      39.066  -1.676  16.005  0.00  0.00    +0.000 OA
BRANCH  27  28
ATOM     28  C   UNL     1      38.541  -2.536  16.901  0.00  0.00    +0.000 C 
BRANCH  28  29
ATOM     29  C   UNL     1      38.197  -2.066  18.267  0.00  0.00    +0.000 C 
BRANCH  29  30
ATOM     30  N   UNL     1      36.778  -2.126  18.488  0.00  0.00    +0.000 NA
ATOM     31  C   UNL     1      36.331  -0.871  19.075  0.00  0.00    +0.000 C 
ATOM     32  C   UNL     1      35.936   0.140  18.006  0.00  0.00    +0.000 C 
ATOM     33  C   UNL     1      34.786  -0.365  17.171  0.00  0.00    +0.000 C 
ATOM     34  C   UNL     1      34.651  -1.858  17.389  0.00  0.00    +0.000 C 
ATOM     35  C   UNL     1      36.026  -2.490  17.321  0.00  0.00    +0.000 C 
ENDBRANCH  29  30
ENDBRANCH  28  29
ENDBRANCH  27  28
ENDBRANCH  24  27
ENDBRANCH   6  21
TORSDOF 7
ENDMDL
MODEL 3
REMARK VINA RESULT:      -7.6      3.800      8.779
REMARK  Name = 
REMARK  7 active torsions:
REMARK  status: ('A' for Active; 'I' for Inactive)
REMARK    1  A    between atoms: C_5  and  C_6
REMARK    2  A    between atoms: C_9  and  C_10
REMARK    3  A    between atoms: C_18  and  C_19
REMARK    4  A    between atoms: C_22  and  O_23
REMARK    5  A    between atoms: O_23  and  C_24
REMARK    6  A    between atoms: C_24  and  C_25
REMARK    7  A    between atoms: C_25  and  N_26
REMARK                            x       y       z     vdW  Elec       q    Type
REMARK                         _______ _______ _______ _____ _____    ______ ____
ROOT
ATOM      1  C   UNL     1      40.352   7.896  19.372  0.00  0.00    +0.000 A 
ATOM      2  C   UNL     1      41.167   8.605  20.241  0.00  0.00    +0.000 A 
ATOM      3  C   UNL     1      42.387   8.094  20.654  0.00  0.00    +0.000 A 
ATOM      4  C   UNL     1      42.830   6.863  20.215  0.00  0.00    +0.000 A 
ATOM      5  N   UNL     1      42.032   6.186  19.374  0.00  0.00    +0.000 NA
ATOM      6  C   UNL     1      40.825   6.671  18.954  0.00  0.00    +0.000 A 
ENDROOT
BRANCH   1  11
ATOM      7  O   UNL     1      35.281   9.889  17.767  0.00  0.00    +0.000 OA
ATOM      8  C   UNL     1      36.529   9.404  18.148  0.00  0.00    +0.000 A 
ATOM      9  C   UNL     1      37.638   9.525  17.326  0.00  0.00    +0.000 A 
ATOM     10  C   UNL     1      38.871   9.041  17.712  0.00  0.00    +0.000 A 
ATOM     11  C   UNL     1      39.064   8.417  18.926  0.00  0.00    +0.000 A 
ATOM     12  C   UNL     1      37.956   8.295  19.746  0.00  0.00    +0.000 A 
ATOM     13  C   UNL     1      36.721   8.779  19.362  0.00  0.00    +0.000 A 
ENDBRANCH   1  11
BRANCH   4  14
ATOM     14  C   UNL     1      44.117   6.351  20.667  0.00  0.00    +0.000 A 
ATOM     15  C   UNL     1      44.217   5.545  21.781  0.00  0.00    +0.000 A 
ATOM     16  C   UNL     1      45.430   5.050  22.224  0.00  0.00    +0.000 A 
ATOM     17  C   UNL     1      46.591   5.355  21.546  0.00  0.00    +0.000 A 
ATOM     18  F   UNL     1      47.761   4.855  22.006  0.00  0.00    +0.000 F 
ATOM     19  C   UNL     1      46.503   6.161  20.430  0.00  0.00    +0.000 A 
ATOM     20  C   UNL     1      45.277   6.656  19.991  0.00  0.00    +0.000 A 
ENDBRANCH   4  14
BRANCH   6  21
ATOM     21  C   UNL     1      39.988   5.911  18.036  0.00  0.00    +0.000 A 
ATOM     22  C   UNL     1      38.942   5.097  18.436  0.00  0.00    +0.000 A 
ATOM     23  C   UNL     1      38.182   4.401  17.519  0.00  0.00    +0.000 A 
ATOM     24  C   UNL     1      38.399   4.458  16.169  0.00  0.00    +0.000 A 
ATOM     25  C   UNL     1      39.464   5.287  15.753  0.00  0.00    +0.000 A 
ATOM     26  C   UNL     1      40.207   5.971  16.681  0.00  0.00    +0.000 A 
BRANCH  24  27
ATOM     27  O   UNL     1      37.700   3.809  15.217  0.00  0.00    +0.000 OA
BRANCH  27  28
ATOM     28  C   UNL     1      36.569   3.078  15.131  0.00  0.00    +0.000 C 
BRANCH  28  29
ATOM     29  C   UNL     1      36.648   1.607  14.950  0.00  0.00    +0.000 C 
BRANCH  29  30
ATOM     30  N   UNL     1      36.948   0.952  16.193  0.00  0.00    +0.000 NA
ATOM     31  C   UNL     1      35.927   1.293  17.173  0.00  0.00    +0.000 C 
ATOM     32  C   UNL     1      34.768   0.305  17.144  0.00  0.00    +0.000 C 
ATOM     33  C   UNL     1      35.228  -1.091  17.485  0.00  0.00    +0.000 C 
ATOM     34  C   UNL     1      36.736  -1.148  17.356  0.00  0.00    +0.000 C 
ATOM     35  C   UNL     1      37.143  -0.465  16.066  0.00  0.00    +0.000 C 
ENDBRANCH  29  30
ENDBRANCH  28  29
ENDBRANCH  27  28
ENDBRANCH  24  27
ENDBRANCH   6  21
TORSDOF 7
ENDMDL
MODEL 4
REMARK VINA RESULT:      -7.6      4.308      8.537
REMARK  Name = 
REMARK  7 active torsions:
REMARK  status: ('A' for Active; 'I' for Inactive)
REMARK    1  A    between atoms: C_5  and  C_6
REMARK    2  A    between atoms: C_9  and  C_10
REMARK    3  A    between atoms: C_18  and  C_19
REMARK    4  A    between atoms: C_22  and  O_23
REMARK    5  A    between atoms: O_23  and  C_24
REMARK    6  A    between atoms: C_24  and  C_25
REMARK    7  A    between atoms: C_25  and  N_26
REMARK                            x       y       z     vdW  Elec       q    Type
REMARK                         _______ _______ _______ _____ _____    ______ ____
ROOT
ATOM      1  C   UNL     1      39.742   3.914  13.699  0.00  0.00    +0.000 A 
ATOM      2  C   UNL     1      40.216   5.202  13.891  0.00  0.00    +0.000 A 
ATOM      3  C   UNL     1      40.059   5.847  15.108  0.00  0.00    +0.000 A 
ATOM      4  C   UNL     1      39.425   5.229  16.166  0.00  0.00    +0.000 A 
ATOM      5  N   UNL     1      38.970   3.982  15.968  0.00  0.00    +0.000 NA
ATOM      6  C   UNL     1      39.114   3.327  14.776  0.00  0.00    +0.000 A 
ENDROOT
BRANCH   1  11
ATOM      7  O   UNL     1      40.474   1.152   8.790  0.00  0.00    +0.000 OA
ATOM      8  C   UNL     1      40.283   1.834   9.988  0.00  0.00    +0.000 A 
ATOM      9  C   UNL     1      39.102   2.508  10.261  0.00  0.00    +0.000 A 
ATOM     10  C   UNL     1      38.922   3.181  11.451  0.00  0.00    +0.000 A 
ATOM     11  C   UNL     1      39.897   3.218  12.426  0.00  0.00    +0.000 A 
ATOM     12  C   UNL     1      41.075   2.546  12.153  0.00  0.00    +0.000 A 
ATOM     13  C   UNL     1      41.258   1.871  10.962  0.00  0.00    +0.000 A 
ENDBRANCH   1  11
BRANCH   4  14
ATOM     14  C   UNL     1      39.274   5.933  17.433  0.00  0.00    +0.000 A 
ATOM     15  C   UNL     1      38.264   6.851  17.627  0.00  0.00    +0.000 A 
ATOM     16  C   UNL     1      38.105   7.528  18.823  0.00  0.00    +0.000 A 
ATOM     17  C   UNL     1      38.970   7.293  19.871  0.00  0.00    +0.000 A 
ATOM     18  F   UNL     1      38.787   7.972  21.027  0.00  0.00    +0.000 F 
ATOM     19  C   UNL     1      39.984   6.377  19.688  0.00  0.00    +0.000 A 
ATOM     20  C   UNL     1      40.137   5.700  18.480  0.00  0.00    +0.000 A 
ENDBRANCH   4  14
BRANCH   6  21
ATOM     21  C   UNL     1      38.612   1.971  14.599  0.00  0.00    +0.000 A 
ATOM     22  C   UNL     1      37.309   1.667  14.246  0.00  0.00    +0.000 A 
ATOM     23  C   UNL     1      36.892   0.362  14.092  0.00  0.00    +0.000 A 
ATOM     24  C   UNL     1      37.717  -0.714  14.272  0.00  0.00    +0.000 A 
ATOM     25  C   UNL     1      39.049  -0.413  14.631  0.00  0.00    +0.000 A 
ATOM     26  C   UNL     1      39.443   0.892  14.780  0.00  0.00    +0.000 A 
BRANCH  24  27
ATOM     27  O   UNL     1      37.380  -2.013  14.139  0.00  0.00    +0.000 OA
BRANCH  27  28
ATOM     28  C   UNL     1      36.746  -2.960  14.859  0.00  0.00    +0.000 C 
BRANCH  28  29
ATOM     29  C   UNL     1      37.139  -3.207  16.269  0.00  0.00    +0.000 C 
BRANCH  29  30
ATOM     30  N   UNL     1      36.082  -2.835  17.169  0.00  0.00    +0.000 NA
ATOM     31  C   UNL     1      36.591  -1.873  18.136  0.00  0.00    +0.000 C 
ATOM     32  C   UNL     1      36.426  -0.441  17.643  0.00  0.00    +0.000 C 
ATOM     33  C   UNL     1      34.973  -0.097  17.434  0.00  0.00    +0.000 C 
ATOM     34  C   UNL     1      34.173  -1.382  17.392  0.00  0.00    +0.000 C 
ATOM     35  C   UNL     1      34.893  -2.378  16.506  0.00  0.00    +0.000 C 
ENDBRANCH  29  30
ENDBRANCH  28  29
ENDBRANCH  27  28
ENDBRANCH  24  27
ENDBRANCH   6  21
TORSDOF 7
ENDMDL
MODEL 5
REMARK VINA RESULT:      -7.3      5.758      9.999
REMARK  Name = 
REMARK  7 active torsions:
REMARK  status: ('A' for Active; 'I' for Inactive)
REMARK    1  A    between atoms: C_5  and  C_6
REMARK    2  A    between atoms: C_9  and  C_10
REMARK    3  A    between atoms: C_18  and  C_19
REMARK    4  A    between atoms: C_22  and  O_23
REMARK    5  A    between atoms: O_23  and  C_24
REMARK    6  A    between atoms: C_24  and  C_25
REMARK    7  A    between atoms: C_25  and  N_26
REMARK                            x       y       z     vdW  Elec       q    Type
REMARK                         _______ _______ _______ _____ _____    ______ ____
ROOT
ATOM      1  C   UNL     1      37.048  -0.829  16.003  0.00  0.00    +0.000 A 
ATOM      2  C   UNL     1      36.056  -0.048  16.575  0.00  0.00    +0.000 A 
ATOM      3  C   UNL     1      35.915   1.288  16.237  0.00  0.00    +0.000 A 
ATOM      4  C   UNL     1      36.755   1.884  15.319  0.00  0.00    +0.000 A 
ATOM      5  N   UNL     1      37.712   1.118  14.772  0.00  0.00    +0.000 NA
ATOM      6  C   UNL     1      37.870  -0.202  15.091  0.00  0.00    +0.000 A 
ENDROOT
BRANCH   1  11
ATOM      7  O   UNL     1      37.610  -6.347  17.226  0.00  0.00    +0.000 OA
ATOM      8  C   UNL     1      37.480  -4.992  16.937  0.00  0.00    +0.000 A 
ATOM      9  C   UNL     1      38.187  -4.028  17.639  0.00  0.00    +0.000 A 
ATOM     10  C   UNL     1      38.052  -2.687  17.346  0.00  0.00    +0.000 A 
ATOM     11  C   UNL     1      37.215  -2.238  16.346  0.00  0.00    +0.000 A 
ATOM     12  C   UNL     1      36.509  -3.200  15.646  0.00  0.00    +0.000 A 
ATOM     13  C   UNL     1      36.642  -4.544  15.938  0.00  0.00    +0.000 A 
ENDBRANCH   1  11
BRANCH   4  14
ATOM     14  C   UNL     1      36.583   3.292  14.984  0.00  0.00    +0.000 A 
ATOM     15  C   UNL     1      37.542   4.229  15.305  0.00  0.00    +0.000 A 
ATOM     16  C   UNL     1      37.394   5.568  14.994  0.00  0.00    +0.000 A 
ATOM     17  C   UNL     1      36.262   6.006  14.340  0.00  0.00    +0.000 A 
ATOM     18  F   UNL     1      36.149   7.323  14.051  0.00  0.00    +0.000 F 
ATOM     19  C   UNL     1      35.296   5.078  14.014  0.00  0.00    +0.000 A 
ATOM     20  C   UNL     1      35.452   3.730  14.332  0.00  0.00    +0.000 A 
ENDBRANCH   4  14
BRANCH   6  21
ATOM     21  C   UNL     1      38.916  -1.005  14.472  0.00  0.00    +0.000 A 
ATOM     22  C   UNL     1      40.163  -1.218  15.033  0.00  0.00    +0.000 A 
ATOM     23  C   UNL     1      41.114  -1.989  14.399  0.00  0.00    +0.000 A 
ATOM     24  C   UNL     1      40.903  -2.593  13.189  0.00  0.00    +0.000 A 
ATOM     25  C   UNL     1      39.632  -2.382  12.610  0.00  0.00    +0.000 A 
ATOM     26  C   UNL     1      38.702  -1.610  13.257  0.00  0.00    +0.000 A 
BRANCH  24  27
ATOM     27  O   UNL     1      41.782  -3.359  12.513  0.00  0.00    +0.000 OA
BRANCH  27  28
ATOM     28  C   UNL     1      43.081  -3.310  12.152  0.00  0.00    +0.000 C 
BRANCH  28  29
ATOM     29  C   UNL     1      43.693  -2.016  11.756  0.00  0.00    +0.000 C 
BRANCH  29  30
ATOM     30  N   UNL     1      44.769  -1.665  12.642  0.00  0.00    +0.000 NA
ATOM     31  C   UNL     1      44.803  -0.219  12.804  0.00  0.00    +0.000 C 
ATOM     32  C   UNL     1      43.938   0.236  13.973  0.00  0.00    +0.000 C 
ATOM     33  C   UNL     1      44.427  -0.344  15.276  0.00  0.00    +0.000 C 
ATOM     34  C   UNL     1      45.360  -1.497  14.972  0.00  0.00    +0.000 C 
ATOM     35  C   UNL     1      44.735  -2.362  13.896  0.00  0.00    +0.000 C 
ENDBRANCH  29  30
ENDBRANCH  28  29
ENDBRANCH  27  28
ENDBRANCH  24  27
ENDBRANCH   6  21
TORSDOF 7
ENDMDL
MODEL 6
REMARK VINA RESULT:      -7.2      7.333      9.292
REMARK  Name = 
REMARK  7 active torsions:
REMARK  status: ('A' for Active; 'I' for Inactive)
REMARK    1  A    between atoms: C_5  and  C_6
REMARK    2  A    between atoms: C_9  and  C_10
REMARK    3  A    between atoms: C_18  and  C_19
REMARK    4  A    between atoms: C_22  and  O_23
REMARK    5  A    between atoms: O_23  and  C_24
REMARK    6  A    between atoms: C_24  and  C_25
REMARK    7  A    between atoms: C_25  and  N_26
REMARK                            x       y       z     vdW  Elec       q    Type
REMARK                         _______ _______ _______ _____ _____    ______ ____
ROOT
ATOM      1  C   UNL     1      39.580  -2.212  13.169  0.00  0.00    +0.000 A 
ATOM      2  C   UNL     1      38.339  -2.791  13.385  0.00  0.00    +0.000 A 
ATOM      3  C   UNL     1      37.598  -2.490  14.517  0.00  0.00    +0.000 A 
ATOM      4  C   UNL     1      38.070  -1.605  15.464  0.00  0.00    +0.000 A 
ATOM      5  N   UNL     1      39.273  -1.051  15.244  0.00  0.00    +0.000 NA
ATOM      6  C   UNL     1      40.021  -1.333  14.135  0.00  0.00    +0.000 A 
ENDROOT
BRANCH   1  11
ATOM      7  O   UNL     1      42.745  -3.505   8.634  0.00  0.00    +0.000 OA
ATOM      8  C   UNL     1      41.964  -3.178   9.738  0.00  0.00    +0.000 A 
ATOM      9  C   UNL     1      40.979  -2.205   9.669  0.00  0.00    +0.000 A 
ATOM     10  C   UNL     1      40.209  -1.887  10.769  0.00  0.00    +0.000 A 
ATOM     11  C   UNL     1      40.377  -2.516  11.985  0.00  0.00    +0.000 A 
ATOM     12  C   UNL     1      41.361  -3.486  12.054  0.00  0.00    +0.000 A 
ATOM     13  C   UNL     1      42.132  -3.806  10.954  0.00  0.00    +0.000 A 
ENDBRANCH   1  11
BRANCH   4  14
ATOM     14  C   UNL     1      37.268  -1.309  16.644  0.00  0.00    +0.000 A 
ATOM     15  C   UNL     1      36.031  -0.709  16.539  0.00  0.00    +0.000 A 
ATOM     16  C   UNL     1      35.257  -0.422  17.648  0.00  0.00    +0.000 A 
ATOM     17  C   UNL     1      35.713  -0.736  18.911  0.00  0.00    +0.000 A 
ATOM     18  F   UNL     1      34.931  -0.441  19.975  0.00  0.00    +0.000 F 
ATOM     19  C   UNL     1      36.949  -1.335  19.028  0.00  0.00    +0.000 A 
ATOM     20  C   UNL     1      37.723  -1.622  17.905  0.00  0.00    +0.000 A 
ENDBRANCH   4  14
BRANCH   6  21
ATOM     21  C   UNL     1      41.319  -0.708  13.926  0.00  0.00    +0.000 A 
ATOM     22  C   UNL     1      41.508   0.468  13.222  0.00  0.00    +0.000 A 
ATOM     23  C   UNL     1      42.763   1.014  13.056  0.00  0.00    +0.000 A 
ATOM     24  C   UNL     1      43.900   0.446  13.565  0.00  0.00    +0.000 A 
ATOM     25  C   UNL     1      43.716  -0.754  14.286  0.00  0.00    +0.000 A 
ATOM     26  C   UNL     1      42.459  -1.280  14.439  0.00  0.00    +0.000 A 
BRANCH  24  27
ATOM     27  O   UNL     1      45.155   0.921  13.445  0.00  0.00    +0.000 OA
BRANCH  27  28
ATOM     28  C   UNL     1      46.414   0.481  13.647  0.00  0.00    +0.000 C 
BRANCH  28  29
ATOM     29  C   UNL     1      47.265   1.115  14.685  0.00  0.00    +0.000 C 
BRANCH  29  30
ATOM     30  N   UNL     1      47.687   0.150  15.662  0.00  0.00    +0.000 NA
ATOM     31  C   UNL     1      47.185   0.541  16.971  0.00  0.00    +0.000 C 
ATOM     32  C   UNL     1      45.810  -0.055  17.246  0.00  0.00    +0.000 C 
ATOM     33  C   UNL     1      45.855  -1.563  17.249  0.00  0.00    +0.000 C 
ATOM     34  C   UNL     1      47.144  -2.008  16.588  0.00  0.00    +0.000 C 
ATOM     35  C   UNL     1      47.349  -1.203  15.321  0.00  0.00    +0.000 C 
ENDBRANCH  29  30
ENDBRANCH  28  29
ENDBRANCH  27  28
ENDBRANCH  24  27
ENDBRANCH   6  21
TORSDOF 7
ENDMDL
MODEL 7
REMARK VINA RESULT:      -7.2     24.967     28.536
REMARK  Name = 
REMARK  7 active torsions:
REMARK  status: ('A' for Active; 'I' for Inactive)
REMARK    1  A    between atoms: C_5  and  C_6
REMARK    2  A    between atoms: C_9  and  C_10
REMARK    3  A    between atoms: C_18  and  C_19
REMARK    4  A    between atoms: C_22  and  O_23
REMARK    5  A    between atoms: O_23  and  C_24
REMARK    6  A    between atoms: C_24  and  C_25
REMARK    7  A    between atoms: C_25  and  N_26
REMARK                            x       y       z     vdW  Elec       q    Type
REMARK                         _______ _______ _______ _____ _____    ______ ____
ROOT
ATOM      1  C   UNL     1      14.447   0.052  28.038  0.00  0.00    +0.000 A 
ATOM      2  C   UNL     1      15.700   0.532  28.384  0.00  0.00    +0.000 A 
ATOM      3  C   UNL     1      16.778   0.400  27.524  0.00  0.00    +0.000 A 
ATOM      4  C   UNL     1      16.640  -0.212  26.295  0.00  0.00    +0.000 A 
ATOM      5  N   UNL     1      15.421  -0.673  25.971  0.00  0.00    +0.000 NA
ATOM      6  C   UNL     1      14.344  -0.554  26.804  0.00  0.00    +0.000 A 
ENDROOT
BRANCH   1  11
ATOM      7  O   UNL     1      10.025   0.430  31.582  0.00  0.00    +0.000 OA
ATOM      8  C   UNL     1      11.104   0.348  30.707  0.00  0.00    +0.000 A 
ATOM      9  C   UNL     1      11.340   1.325  29.751  0.00  0.00    +0.000 A 
ATOM     10  C   UNL     1      12.412   1.235  28.888  0.00  0.00    +0.000 A 
ATOM     11  C   UNL     1      13.299   0.180  28.930  0.00  0.00    +0.000 A 
ATOM     12  C   UNL     1      13.062  -0.795  29.883  0.00  0.00    +0.000 A 
ATOM     13  C   UNL     1      11.990  -0.708  30.749  0.00  0.00    +0.000 A 
ENDBRANCH   1  11
BRANCH   4  14
ATOM     14  C   UNL     1      17.792  -0.336  25.412  0.00  0.00    +0.000 A 
ATOM     15  C   UNL     1      18.253  -1.570  25.003  0.00  0.00    +0.000 A 
ATOM     16  C   UNL     1      19.345  -1.706  24.165  0.00  0.00    +0.000 A 
ATOM     17  C   UNL     1      20.010  -0.589  23.708  0.00  0.00    +0.000 A 
ATOM     18  F   UNL     1      21.074  -0.757  22.889  0.00  0.00    +0.000 F 
ATOM     19  C   UNL     1      19.558   0.651  24.111  0.00  0.00    +0.000 A 
ATOM     20  C   UNL     1      18.458   0.779  24.955  0.00  0.00    +0.000 A 
ENDBRANCH   4  14
BRANCH   6  21
ATOM     21  C   UNL     1      13.035  -1.060  26.416  0.00  0.00    +0.000 A 
ATOM     22  C   UNL     1      12.054  -0.291  25.817  0.00  0.00    +0.000 A 
ATOM     23  C   UNL     1      10.831  -0.826  25.471  0.00  0.00    +0.000 A 
ATOM     24  C   UNL     1      10.498  -2.135  25.689  0.00  0.00    +0.000 A 
ATOM     25  C   UNL     1      11.494  -2.929  26.300  0.00  0.00    +0.000 A 
ATOM     26  C   UNL     1      12.703  -2.376  26.636  0.00  0.00    +0.000 A 
BRANCH  24  27
ATOM     27  O   UNL     1       9.327  -2.727  25.379  0.00  0.00    +0.000 OA
BRANCH  27  28
ATOM     28  C   UNL     1       8.093  -2.354  24.983  0.00  0.00    +0.000 C 
BRANCH  28  29
ATOM     29  C   UNL     1       7.135  -1.793  25.968  0.00  0.00    +0.000 C 
BRANCH  29  30
ATOM     30  N   UNL     1       6.705  -0.479  25.576  0.00  0.00    +0.000 NA
ATOM     31  C   UNL     1       6.707   0.394  26.741  0.00  0.00    +0.000 C 
ATOM     32  C   UNL     1       8.051   1.088  26.919  0.00  0.00    +0.000 C 
ATOM     33  C   UNL     1       8.377   1.966  25.737  0.00  0.00    +0.000 C 
ATOM     34  C   UNL     1       7.476   1.577  24.584  0.00  0.00    +0.000 C 
ATOM     35  C   UNL     1       7.445   0.066  24.474  0.00  0.00    +0.000 C 
ENDBRANCH  29  30
ENDBRANCH  28  29
ENDBRANCH  27  28
ENDBRANCH  24  27
ENDBRANCH   6  21
TORSDOF 7
ENDMDL
MODEL 8
REMARK VINA RESULT:      -7.2      7.864      9.281
REMARK  Name = 
REMARK  7 active torsions:
REMARK  status: ('A' for Active; 'I' for Inactive)
REMARK    1  A    between atoms: C_5  and  C_6
REMARK    2  A    between atoms: C_9  and  C_10
REMARK    3  A    between atoms: C_18  and  C_19
REMARK    4  A    between atoms: C_22  and  O_23
REMARK    5  A    between atoms: O_23  and  C_24
REMARK    6  A    between atoms: C_24  and  C_25
REMARK    7  A    between atoms: C_25  and  N_26
REMARK                            x       y       z     vdW  Elec       q    Type
REMARK                         _______ _______ _______ _____ _____    ______ ____
ROOT
ATOM      1  C   UNL     1      39.440  -1.824  13.094  0.00  0.00    +0.000 A 
ATOM      2  C   UNL     1      38.172  -2.221  13.490  0.00  0.00    +0.000 A 
ATOM      3  C   UNL     1      37.852  -2.356  14.831  0.00  0.00    +0.000 A 
ATOM      4  C   UNL     1      38.784  -2.099  15.816  0.00  0.00    +0.000 A 
ATOM      5  N   UNL     1      40.009  -1.716  15.420  0.00  0.00    +0.000 NA
ATOM      6  C   UNL     1      40.346  -1.577  14.103  0.00  0.00    +0.000 A 
ENDROOT
BRANCH   1  11
ATOM      7  O   UNL     1      40.850  -1.397   7.608  0.00  0.00    +0.000 OA
ATOM      8  C   UNL     1      40.503  -1.489   8.953  0.00  0.00    +0.000 A 
ATOM      9  C   UNL     1      40.059  -0.385   9.665  0.00  0.00    +0.000 A 
ATOM     10  C   UNL     1      39.717  -0.485  10.998  0.00  0.00    +0.000 A 
ATOM     11  C   UNL     1      39.797  -1.677  11.686  0.00  0.00    +0.000 A 
ATOM     12  C   UNL     1      40.241  -2.778  10.975  0.00  0.00    +0.000 A 
ATOM     13  C   UNL     1      40.584  -2.681   9.641  0.00  0.00    +0.000 A 
ENDBRANCH   1  11
BRANCH   4  14
ATOM     14  C   UNL     1      38.419  -2.251  17.218  0.00  0.00    +0.000 A 
ATOM     15  C   UNL     1      38.956  -3.255  17.996  0.00  0.00    +0.000 A 
ATOM     16  C   UNL     1      38.621  -3.413  19.328  0.00  0.00    +0.000 A 
ATOM     17  C   UNL     1      37.725  -2.550  19.923  0.00  0.00    +0.000 A 
ATOM     18  F   UNL     1      37.418  -2.732  21.228  0.00  0.00    +0.000 F 
ATOM     19  C   UNL     1      37.181  -1.542  19.155  0.00  0.00    +0.000 A 
ATOM     20  C   UNL     1      37.524  -1.390  17.813  0.00  0.00    +0.000 A 
ENDBRANCH   4  14
BRANCH   6  21
ATOM     21  C   UNL     1      41.682  -1.153  13.710  0.00  0.00    +0.000 A 
ATOM     22  C   UNL     1      42.710  -2.025  13.395  0.00  0.00    +0.000 A 
ATOM     23  C   UNL     1      43.957  -1.564  13.029  0.00  0.00    +0.000 A 
ATOM     24  C   UNL     1      44.271  -0.235  12.950  0.00  0.00    +0.000 A 
ATOM     25  C   UNL     1      43.227   0.662  13.269  0.00  0.00    +0.000 A 
ATOM     26  C   UNL     1      41.995   0.183  13.631  0.00  0.00    +0.000 A 
BRANCH  24  27
ATOM     27  O   UNL     1      45.463   0.288  12.600  0.00  0.00    +0.000 OA
BRANCH  27  28
ATOM     28  C   UNL     1      46.733   0.271  13.053  0.00  0.00    +0.000 C 
BRANCH  28  29
ATOM     29  C   UNL     1      47.088   1.002  14.296  0.00  0.00    +0.000 C 
BRANCH  29  30
ATOM     30  N   UNL     1      47.400   0.086  15.358  0.00  0.00    +0.000 NA
ATOM     31  C   UNL     1      46.533   0.358  16.496  0.00  0.00    +0.000 C 
ATOM     32  C   UNL     1      45.244  -0.450  16.425  0.00  0.00    +0.000 C 
ATOM     33  C   UNL     1      45.523  -1.932  16.456  0.00  0.00    +0.000 C 
ATOM     34  C   UNL     1      46.989  -2.154  16.144  0.00  0.00    +0.000 C 
ATOM     35  C   UNL     1      47.373  -1.292  14.959  0.00  0.00    +0.000 C 
ENDBRANCH  29  30
ENDBRANCH  28  29
ENDBRANCH  27  28
ENDBRANCH  24  27
ENDBRANCH   6  21
TORSDOF 7
ENDMDL
MODEL 9
REMARK VINA RESULT:      -7.1      5.064      8.285
REMARK  Name = 
REMARK  7 active torsions:
REMARK  status: ('A' for Active; 'I' for Inactive)
REMARK    1  A    between atoms: C_5  and  C_6
REMARK    2  A    between atoms: C_9  and  C_10
REMARK    3  A    between atoms: C_18  and  C_19
REMARK    4  A    between atoms: C_22  and  O_23
REMARK    5  A    between atoms: O_23  and  C_24
REMARK    6  A    between atoms: C_24  and  C_25
REMARK    7  A    between atoms: C_25  and  N_26
REMARK                            x       y       z     vdW  Elec       q    Type
REMARK                         _______ _______ _______ _____ _____    ______ ____
ROOT
ATOM      1  C   UNL     1      38.447  -1.832  15.644  0.00  0.00    +0.000 A 
ATOM      2  C   UNL     1      39.294  -2.902  15.891  0.00  0.00    +0.000 A 
ATOM      3  C   UNL     1      40.579  -2.929  15.375  0.00  0.00    +0.000 A 
ATOM      4  C   UNL     1      41.059  -1.894  14.599  0.00  0.00    +0.000 A 
ATOM      5  N   UNL     1      40.230  -0.864  14.367  0.00  0.00    +0.000 NA
ATOM      6  C   UNL     1      38.958  -0.816  14.866  0.00  0.00    +0.000 A 
ENDROOT
BRANCH   1  11
ATOM      7  O   UNL     1      33.125  -1.753  17.627  0.00  0.00    +0.000 OA
ATOM      8  C   UNL     1      34.433  -1.762  17.150  0.00  0.00    +0.000 A 
ATOM      9  C   UNL     1      35.424  -0.985  17.730  0.00  0.00    +0.000 A 
ATOM     10  C   UNL     1      36.717  -1.001  17.249  0.00  0.00    +0.000 A 
ATOM     11  C   UNL     1      37.090  -1.784  16.178  0.00  0.00    +0.000 A 
ATOM     12  C   UNL     1      36.100  -2.559  15.599  0.00  0.00    +0.000 A 
ATOM     13  C   UNL     1      34.805  -2.545  16.078  0.00  0.00    +0.000 A 
ENDBRANCH   1  11
BRANCH   4  14
ATOM     14  C   UNL     1      42.415  -1.951  14.070  0.00  0.00    +0.000 A 
ATOM     15  C   UNL     1      42.730  -2.747  12.989  0.00  0.00    +0.000 A 
ATOM     16  C   UNL     1      44.012  -2.813  12.473  0.00  0.00    +0.000 A 
ATOM     17  C   UNL     1      45.024  -2.068  13.038  0.00  0.00    +0.000 A 
ATOM     18  F   UNL     1      46.267  -2.156  12.510  0.00  0.00    +0.000 F 
ATOM     19  C   UNL     1      44.721  -1.268  14.120  0.00  0.00    +0.000 A 
ATOM     20  C   UNL     1      43.427  -1.208  14.634  0.00  0.00    +0.000 A 
ENDBRANCH   4  14
BRANCH   6  21
ATOM     21  C   UNL     1      38.089   0.322  14.599  0.00  0.00    +0.000 A 
ATOM     22  C   UNL     1      37.021   0.290  13.719  0.00  0.00    +0.000 A 
ATOM     23  C   UNL     1      36.231   1.400  13.507  0.00  0.00    +0.000 A 
ATOM     24  C   UNL     1      36.437   2.597  14.137  0.00  0.00    +0.000 A 
ATOM     25  C   UNL     1      37.525   2.638  15.037  0.00  0.00    +0.000 A 
ATOM     26  C   UNL     1      38.298   1.522  15.233  0.00  0.00    +0.000 A 
BRANCH  24  27
ATOM     27  O   UNL     1      35.709   3.721  13.980  0.00  0.00    +0.000 OA
BRANCH  27  28
ATOM     28  C   UNL     1      35.814   4.898  13.332  0.00  0.00    +0.000 C 
BRANCH  28  29
ATOM     29  C   UNL     1      35.746   6.173  14.091  0.00  0.00    +0.000 C 
BRANCH  29  30
ATOM     30  N   UNL     1      34.965   7.150  13.384  0.00  0.00    +0.000 NA
ATOM     31  C   UNL     1      33.657   7.264  14.012  0.00  0.00    +0.000 C 
ATOM     32  C   UNL     1      33.651   8.322  15.109  0.00  0.00    +0.000 C 
ATOM     33  C   UNL     1      33.971   9.688  14.556  0.00  0.00    +0.000 C 
ATOM     34  C   UNL     1      34.584   9.521  13.181  0.00  0.00    +0.000 C 
ATOM     35  C   UNL     1      35.622   8.418  13.238  0.00  0.00    +0.000 C 
ENDBRANCH  29  30
ENDBRANCH  28  29
ENDBRANCH  27  28
ENDBRANCH  24  27
ENDBRANCH   6  21
TORSDOF 7
ENDMDL
MODEL 10
REMARK VINA RESULT:      -7.0      7.312     10.032
REMARK  Name = 
REMARK  7 active torsions:
REMARK  status: ('A' for Active; 'I' for Inactive)
REMARK    1  A    between atoms: C_5  and  C_6
REMARK    2  A    between atoms: C_9  and  C_10
REMARK    3  A    between atoms: C_18  and  C_19
REMARK    4  A    between atoms: C_22  and  O_23
REMARK    5  A    between atoms: O_23  and  C_24
REMARK    6  A    between atoms: C_24  and  C_25
REMARK    7  A    between atoms: C_25  and  N_26
REMARK                            x       y       z     vdW  Elec       q    Type
REMARK                         _______ _______ _______ _____ _____    ______ ____
ROOT
ATOM      1  C   UNL     1      39.580  -2.221  13.197  0.00  0.00    +0.000 A 
ATOM      2  C   UNL     1      38.333  -2.792  13.398  0.00  0.00    +0.000 A 
ATOM      3  C   UNL     1      37.572  -2.473  14.511  0.00  0.00    +0.000 A 
ATOM      4  C   UNL     1      38.030  -1.576  15.454  0.00  0.00    +0.000 A 
ATOM      5  N   UNL     1      39.239  -1.030  15.249  0.00  0.00    +0.000 NA
ATOM      6  C   UNL     1      40.007  -1.331  14.159  0.00  0.00    +0.000 A 
ENDROOT
BRANCH   1  11
ATOM      7  O   UNL     1      42.696  -3.375   8.590  0.00  0.00    +0.000 OA
ATOM      8  C   UNL     1      41.939  -3.102   9.725  0.00  0.00    +0.000 A 
ATOM      9  C   UNL     1      42.167  -3.758  10.926  0.00  0.00    +0.000 A 
ATOM     10  C   UNL     1      41.411  -3.481  12.046  0.00  0.00    +0.000 A 
ATOM     11  C   UNL     1      40.398  -2.545  12.033  0.00  0.00    +0.000 A 
ATOM     12  C   UNL     1      40.170  -1.892  10.834  0.00  0.00    +0.000 A 
ATOM     13  C   UNL     1      40.926  -2.167   9.711  0.00  0.00    +0.000 A 
ENDBRANCH   1  11
BRANCH   4  14
ATOM     14  C   UNL     1      37.207  -1.260  16.615  0.00  0.00    +0.000 A 
ATOM     15  C   UNL     1      37.591  -1.627  17.888  0.00  0.00    +0.000 A 
ATOM     16  C   UNL     1      36.822  -1.335  19.000  0.00  0.00    +0.000 A 
ATOM     17  C   UNL     1      35.631  -0.655  18.859  0.00  0.00    +0.000 A 
ATOM     18  F   UNL     1      34.903  -0.385  19.967  0.00  0.00    +0.000 F 
ATOM     19  C   UNL     1      35.237  -0.284  17.590  0.00  0.00    +0.000 A 
ATOM     20  C   UNL     1      36.017  -0.582  16.475  0.00  0.00    +0.000 A 
ENDBRANCH   4  14
BRANCH   6  21
ATOM     21  C   UNL     1      41.312  -0.714  13.966  0.00  0.00    +0.000 A 
ATOM     22  C   UNL     1      41.520   0.442  13.234  0.00  0.00    +0.000 A 
ATOM     23  C   UNL     1      42.781   0.981  13.085  0.00  0.00    +0.000 A 
ATOM     24  C   UNL     1      43.903   0.426  13.639  0.00  0.00    +0.000 A 
ATOM     25  C   UNL     1      43.698  -0.754  14.388  0.00  0.00    +0.000 A 
ATOM     26  C   UNL     1      42.436  -1.273  14.523  0.00  0.00    +0.000 A 
BRANCH  24  27
ATOM     27  O   UNL     1      45.162   0.895  13.537  0.00  0.00    +0.000 OA
BRANCH  27  28
ATOM     28  C   UNL     1      46.329   0.515  12.978  0.00  0.00    +0.000 C 
BRANCH  28  29
ATOM     29  C   UNL     1      47.168  -0.516  13.640  0.00  0.00    +0.000 C 
BRANCH  29  30
ATOM     30  N   UNL     1      47.284  -1.689  12.818  0.00  0.00    +0.000 NA
ATOM     31  C   UNL     1      47.426  -2.860  13.672  0.00  0.00    +0.000 C 
ATOM     32  C   UNL     1      46.073  -3.464  14.025  0.00  0.00    +0.000 C 
ATOM     33  C   UNL     1      45.341  -3.932  12.792  0.00  0.00    +0.000 C 
ATOM     34  C   UNL     1      45.989  -3.299  11.577  0.00  0.00    +0.000 C 
ATOM     35  C   UNL     1      46.225  -1.829  11.859  0.00  0.00    +0.000 C 
ENDBRANCH  29  30
ENDBRANCH  28  29
ENDBRANCH  27  28
ENDBRANCH  24  27
ENDBRANCH   6  21
TORSDOF 7
ENDMDL
