MODEL 1
REMARK VINA RESULT:      -7.6      0.000      0.000
REMARK  Name = 
REMARK  9 active torsions:
REMARK  status: ('A' for Active; 'I' for Inactive)
REMARK    1  A    between atoms: N_2  and  C_3
REMARK    2  A    between atoms: N_2  and  C_21
REMARK    3  A    between atoms: C_3  and  C_4
REMARK    4  A    between atoms: N_6  and  C_7
REMARK    5  A    between atoms: C_10  and  O_11
REMARK    6  A    between atoms: O_11  and  C_12
REMARK    7  A    between atoms: C_12  and  C_13
REMARK    8  A    between atoms: C_21  and  C_22
REMARK    9  A    between atoms: C_25  and  C_26
REMARK                            x       y       z     vdW  Elec       q    Type
REMARK                         _______ _______ _______ _____ _____    ______ ____
ROOT
ATOM      1  C   UNL     1      35.725  -1.417  16.906  0.00  0.00    +0.000 C 
ATOM      2  O   UNL     1      36.370  -1.112  17.929  0.00  0.00    +0.000 OA
ATOM      3  N   UNL     1      35.573  -0.526  15.840  0.00  0.00    +0.000 NA
ENDROOT
BRANCH   3   4
ATOM      4  C   UNL     1      36.053   0.807  15.783  0.00  0.00    +0.000 A 
ATOM      5  C   UNL     1      35.332   1.787  16.470  0.00  0.00    +0.000 A 
ATOM      6  C   UNL     1      35.914   3.082  16.476  0.00  0.00    +0.000 A 
ATOM      7  C   UNL     1      37.039   3.430  15.920  0.00  0.00    +0.000 A 
ATOM      8  C   UNL     1      37.803   2.399  15.193  0.00  0.00    +0.000 A 
ATOM      9  C   UNL     1      37.209   1.161  15.203  0.00  0.00    +0.000 A 
BRANCH   7  10
ATOM     10  O   UNL     1      37.664   4.638  15.885  0.00  0.00    +0.000 OA
BRANCH  10  11
ATOM     11  C   UNL     1      38.905   5.117  15.704  0.00  0.00    +0.000 C 
BRANCH  11  12
ATOM     12  C   UNL     1      39.610   5.553  16.926  0.00  0.00    +0.000 A 
ATOM     13  C   UNL     1      39.080   5.495  18.164  0.00  0.00    +0.000 A 
ATOM     14  C   UNL     1      39.745   5.951  19.299  0.00  0.00    +0.000 A 
ATOM     15  C   UNL     1      41.021   6.488  19.148  0.00  0.00    +0.000 A 
ATOM     16  C   UNL     1      41.561   6.551  17.886  0.00  0.00    +0.000 A 
ATOM     17  C   UNL     1      40.883   6.097  16.795  0.00  0.00    +0.000 A 
ENDBRANCH  11  12
ENDBRANCH  10  11
ENDBRANCH   7  10
ENDBRANCH   3   4
BRANCH   1  18
ATOM     18  C   UNL     1      35.112  -2.777  16.870  0.00  0.00    +0.000 C 
BRANCH  18  20
ATOM     19  C   UNL     1      34.449  -3.991  14.850  0.00  0.00    +0.000 C 
ATOM     20  N   UNL     1      35.444  -3.414  15.641  0.00  0.00    +0.000 NA
BRANCH  20  21
ATOM     21  C   UNL     1      36.664  -4.169  15.627  0.00  0.00    +0.000 C 
BRANCH  21  22
ATOM     22  C   UNL     1      37.753  -3.341  15.066  0.00  0.00    +0.000 A 
ATOM     23  C   UNL     1      38.806  -2.951  15.886  0.00  0.00    +0.000 A 
ATOM     24  C   UNL     1      39.867  -2.211  15.462  0.00  0.00    +0.000 A 
ATOM     25  C   UNL     1      39.947  -1.790  14.121  0.00  0.00    +0.000 A 
ATOM     26  C   UNL     1      38.919  -2.160  13.300  0.00  0.00    +0.000 A 
ATOM     27  C   UNL     1      37.856  -2.913  13.760  0.00  0.00    +0.000 A 
BRANCH  25  28
ATOM     28  C   UNL     1      41.133  -0.968  13.704  0.00  0.00    +0.000 C 
ATOM     29  C   UNL     1      40.846   0.466  14.155  0.00  0.00    +0.000 C 
ATOM     30  C   UNL     1      41.254  -1.032  12.183  0.00  0.00    +0.000 C 
ATOM     31  C   UNL     1      42.409  -1.486  14.339  0.00  0.00    +0.000 C 
ENDBRANCH  25  28
ENDBRANCH  21  22
ENDBRANCH  20  21
ENDBRANCH  18  20
ENDBRANCH   1  18
TORSDOF 9
ENDMDL
MODEL 2
REMARK VINA RESULT:      -7.4      2.131      4.363
REMARK  Name = 
REMARK  9 active torsions:
REMARK  status: ('A' for Active; 'I' for Inactive)
REMARK    1  A    between atoms: N_2  and  C_3
REMARK    2  A    between atoms: N_2  and  C_21
REMARK    3  A    between atoms: C_3  and  C_4
REMARK    4  A    between atoms: N_6  and  C_7
REMARK    5  A    between atoms: C_10  and  O_11
REMARK    6  A    between atoms: O_11  and  C_12
REMARK    7  A    between atoms: C_12  and  C_13
REMARK    8  A    between atoms: C_21  and  C_22
REMARK    9  A    between atoms: C_25  and  C_26
REMARK                            x       y       z     vdW  Elec       q    Type
REMARK                         _______ _______ _______ _____ _____    ______ ____
ROOT
ATOM      1  C   UNL     1      40.102   0.250  13.548  0.00  0.00    +0.000 C 
ATOM      2  O   UNL     1      40.898   0.326  14.506  0.00  0.00    +0.000 OA
ATOM      3  N   UNL     1      39.087   1.192  13.361  0.00  0.00    +0.000 NA
ENDROOT
BRANCH   3   4
ATOM      4  C   UNL     1      38.785   2.286  14.212  0.00  0.00    +0.000 A 
ATOM      5  C   UNL     1      37.710   2.145  15.093  0.00  0.00    +0.000 A 
ATOM      6  C   UNL     1      37.520   3.221  16.001  0.00  0.00    +0.000 A 
ATOM      7  C   UNL     1      38.246   4.297  16.092  0.00  0.00    +0.000 A 
ATOM      8  C   UNL     1      39.382   4.450  15.163  0.00  0.00    +0.000 A 
ATOM      9  C   UNL     1      39.533   3.396  14.296  0.00  0.00    +0.000 A 
BRANCH   7  10
ATOM     10  O   UNL     1      38.135   5.363  16.930  0.00  0.00    +0.000 OA
BRANCH  10  11
ATOM     11  C   UNL     1      38.761   6.529  17.154  0.00  0.00    +0.000 C 
BRANCH  11  12
ATOM     12  C   UNL     1      39.905   6.475  18.087  0.00  0.00    +0.000 A 
ATOM     13  C   UNL     1      39.783   6.356  19.424  0.00  0.00    +0.000 A 
ATOM     14  C   UNL     1      40.872   6.349  20.291  0.00  0.00    +0.000 A 
ATOM     15  C   UNL     1      42.150   6.467  19.749  0.00  0.00    +0.000 A 
ATOM     16  C   UNL     1      42.276   6.592  18.387  0.00  0.00    +0.000 A 
ATOM     17  C   UNL     1      41.188   6.596  17.566  0.00  0.00    +0.000 A 
ENDBRANCH  11  12
ENDBRANCH  10  11
ENDBRANCH   7  10
ENDBRANCH   3   4
BRANCH   1  18
ATOM     18  C   UNL     1      40.274  -0.898  12.611  0.00  0.00    +0.000 C 
BRANCH  18  20
ATOM     19  C   UNL     1      41.332  -2.990  13.315  0.00  0.00    +0.000 C 
ATOM     20  N   UNL     1      40.244  -2.117  13.345  0.00  0.00    +0.000 NA
BRANCH  20  21
ATOM     21  C   UNL     1      38.986  -2.807  13.375  0.00  0.00    +0.000 C 
BRANCH  21  22
ATOM     22  C   UNL     1      38.142  -2.253  14.455  0.00  0.00    +0.000 A 
ATOM     23  C   UNL     1      36.893  -1.725  14.142  0.00  0.00    +0.000 A 
ATOM     24  C   UNL     1      36.031  -1.215  15.064  0.00  0.00    +0.000 A 
ATOM     25  C   UNL     1      36.381  -1.195  16.427  0.00  0.00    +0.000 A 
ATOM     26  C   UNL     1      37.606  -1.705  16.753  0.00  0.00    +0.000 A 
ATOM     27  C   UNL     1      38.459  -2.218  15.795  0.00  0.00    +0.000 A 
BRANCH  25  28
ATOM     28  C   UNL     1      35.399  -0.613  17.404  0.00  0.00    +0.000 C 
ATOM     29  C   UNL     1      36.119  -0.548  18.753  0.00  0.00    +0.000 C 
ATOM     30  C   UNL     1      34.192  -1.544  17.490  0.00  0.00    +0.000 C 
ATOM     31  C   UNL     1      34.948   0.768  16.970  0.00  0.00    +0.000 C 
ENDBRANCH  25  28
ENDBRANCH  21  22
ENDBRANCH  20  21
ENDBRANCH  18  20
ENDBRANCH   1  18
TORSDOF 9
ENDMDL
MODEL 3
REMARK VINA RESULT:      -7.4      3.446      6.943
REMARK  Name = 
REMARK  9 active torsions:
REMARK  status: ('A' for Active; 'I' for Inactive)
REMARK    1  A    between atoms: N_2  and  C_3
REMARK    2  A    between atoms: N_2  and  C_21
REMARK    3  A    between atoms: C_3  and  C_4
REMARK    4  A    between atoms: N_6  and  C_7
REMARK    5  A    between atoms: C_10  and  O_11
REMARK    6  A    between atoms: O_11  and  C_12
REMARK    7  A    between atoms: C_12  and  C_13
REMARK    8  A    between atoms: C_21  and  C_22
REMARK    9  A    between atoms: C_25  and  C_26
REMARK                            x       y       z     vdW  Elec       q    Type
REMARK                         _______ _______ _______ _____ _____    ______ ____
ROOT
ATOM      1  C   UNL     1      38.198   4.990  16.183  0.00  0.00    +0.000 C 
ATOM      2  O   UNL     1      38.412   3.874  16.696  0.00  0.00    +0.000 OA
ATOM      3  N   UNL     1      38.901   6.130  16.584  0.00  0.00    +0.000 NA
ENDROOT
BRANCH   3   4
ATOM      4  C   UNL     1      39.871   6.201  17.616  0.00  0.00    +0.000 A 
ATOM      5  C   UNL     1      41.210   6.338  17.239  0.00  0.00    +0.000 A 
ATOM      6  C   UNL     1      42.129   6.519  18.306  0.00  0.00    +0.000 A 
ATOM      7  C   UNL     1      41.844   6.578  19.575  0.00  0.00    +0.000 A 
ATOM      8  C   UNL     1      40.431   6.433  19.977  0.00  0.00    +0.000 A 
ATOM      9  C   UNL     1      39.572   6.254  18.922  0.00  0.00    +0.000 A 
BRANCH   7  10
ATOM     10  O   UNL     1      42.657   6.753  20.651  0.00  0.00    +0.000 OA
BRANCH  10  11
ATOM     11  C   UNL     1      43.233   6.002  21.603  0.00  0.00    +0.000 C 
BRANCH  11  12
ATOM     12  C   UNL     1      44.596   5.519  21.303  0.00  0.00    +0.000 A 
ATOM     13  C   UNL     1      45.412   6.083  20.391  0.00  0.00    +0.000 A 
ATOM     14  C   UNL     1      46.679   5.589  20.092  0.00  0.00    +0.000 A 
ATOM     15  C   UNL     1      47.124   4.457  20.772  0.00  0.00    +0.000 A 
ATOM     16  C   UNL     1      46.292   3.879  21.699  0.00  0.00    +0.000 A 
ATOM     17  C   UNL     1      45.057   4.388  21.968  0.00  0.00    +0.000 A 
ENDBRANCH  11  12
ENDBRANCH  10  11
ENDBRANCH   7  10
ENDBRANCH   3   4
BRANCH   1  18
ATOM     18  C   UNL     1      37.150   5.061  15.124  0.00  0.00    +0.000 C 
BRANCH  18  20
ATOM     19  C   UNL     1      38.103   3.835  13.232  0.00  0.00    +0.000 C 
ATOM     20  N   UNL     1      37.219   3.896  14.309  0.00  0.00    +0.000 NA
BRANCH  20  21
ATOM     21  C   UNL     1      35.972   3.239  14.036  0.00  0.00    +0.000 C 
BRANCH  21  22
ATOM     22  C   UNL     1      35.830   2.059  14.915  0.00  0.00    +0.000 A 
ATOM     23  C   UNL     1      35.113   2.174  16.101  0.00  0.00    +0.000 A 
ATOM     24  C   UNL     1      34.903   1.143  16.965  0.00  0.00    +0.000 A 
ATOM     25  C   UNL     1      35.426  -0.133  16.687  0.00  0.00    +0.000 A 
ATOM     26  C   UNL     1      36.138  -0.265  15.528  0.00  0.00    +0.000 A 
ATOM     27  C   UNL     1      36.332   0.800  14.669  0.00  0.00    +0.000 A 
BRANCH  25  28
ATOM     28  C   UNL     1      35.174  -1.235  17.676  0.00  0.00    +0.000 C 
ATOM     29  C   UNL     1      33.703  -1.629  17.521  0.00  0.00    +0.000 C 
ATOM     30  C   UNL     1      35.434  -0.695  19.080  0.00  0.00    +0.000 C 
ATOM     31  C   UNL     1      36.078  -2.425  17.413  0.00  0.00    +0.000 C 
ENDBRANCH  25  28
ENDBRANCH  21  22
ENDBRANCH  20  21
ENDBRANCH  18  20
ENDBRANCH   1  18
TORSDOF 9
ENDMDL
MODEL 4
REMARK VINA RESULT:      -7.2      3.551      7.032
REMARK  Name = 
REMARK  9 active torsions:
REMARK  status: ('A' for Active; 'I' for Inactive)
REMARK    1  A    between atoms: N_2  and  C_3
REMARK    2  A    between atoms: N_2  and  C_21
REMARK    3  A    between atoms: C_3  and  C_4
REMARK    4  A    between atoms: N_6  and  C_7
REMARK    5  A    between atoms: C_10  and  O_11
REMARK    6  A    between atoms: O_11  and  C_12
REMARK    7  A    between atoms: C_12  and  C_13
REMARK    8  A    between atoms: C_21  and  C_22
REMARK    9  A    between atoms: C_25  and  C_26
REMARK                            x       y       z     vdW  Elec       q    Type
REMARK                         _______ _______ _______ _____ _____    ______ ____
ROOT
ATOM      1  C   UNL     1      38.156   5.012  16.039  0.00  0.00    +0.000 C 
ATOM      2  O   UNL     1      38.290   3.901  16.589  0.00  0.00    +0.000 OA
ATOM      3  N   UNL     1      38.870   6.134  16.469  0.00  0.00    +0.000 NA
ENDROOT
BRANCH   3   4
ATOM      4  C   UNL     1      39.765   6.194  17.567  0.00  0.00    +0.000 A 
ATOM      5  C   UNL     1      41.131   6.278  17.287  0.00  0.00    +0.000 A 
ATOM      6  C   UNL     1      41.976   6.449  18.415  0.00  0.00    +0.000 A 
ATOM      7  C   UNL     1      41.602   6.543  19.658  0.00  0.00    +0.000 A 
ATOM      8  C   UNL     1      40.160   6.455  19.958  0.00  0.00    +0.000 A 
ATOM      9  C   UNL     1      39.373   6.284  18.846  0.00  0.00    +0.000 A 
BRANCH   7  10
ATOM     10  O   UNL     1      42.341   6.713  20.788  0.00  0.00    +0.000 OA
BRANCH  10  11
ATOM     11  C   UNL     1      43.533   6.330  21.270  0.00  0.00    +0.000 C 
BRANCH  11  12
ATOM     12  C   UNL     1      43.918   6.913  22.571  0.00  0.00    +0.000 A 
ATOM     13  C   UNL     1      44.081   6.195  23.700  0.00  0.00    +0.000 A 
ATOM     14  C   UNL     1      44.403   6.768  24.928  0.00  0.00    +0.000 A 
ATOM     15  C   UNL     1      44.567   8.150  24.989  0.00  0.00    +0.000 A 
ATOM     16  C   UNL     1      44.396   8.883  23.841  0.00  0.00    +0.000 A 
ATOM     17  C   UNL     1      44.081   8.291  22.654  0.00  0.00    +0.000 A 
ENDBRANCH  11  12
ENDBRANCH  10  11
ENDBRANCH   7  10
ENDBRANCH   3   4
BRANCH   1  18
ATOM     18  C   UNL     1      37.190   5.097  14.905  0.00  0.00    +0.000 C 
BRANCH  18  20
ATOM     19  C   UNL     1      38.169   3.778  13.090  0.00  0.00    +0.000 C 
ATOM     20  N   UNL     1      37.255   3.900  14.137  0.00  0.00    +0.000 NA
BRANCH  20  21
ATOM     21  C   UNL     1      36.001   3.263  13.851  0.00  0.00    +0.000 C 
BRANCH  21  22
ATOM     22  C   UNL     1      35.744   2.203  14.849  0.00  0.00    +0.000 A 
ATOM     23  C   UNL     1      36.308   0.945  14.670  0.00  0.00    +0.000 A 
ATOM     24  C   UNL     1      36.153  -0.089  15.542  0.00  0.00    +0.000 A 
ATOM     25  C   UNL     1      35.382   0.076  16.708  0.00  0.00    +0.000 A 
ATOM     26  C   UNL     1      34.815   1.305  16.899  0.00  0.00    +0.000 A 
ATOM     27  C   UNL     1      34.992   2.336  15.996  0.00  0.00    +0.000 A 
BRANCH  25  28
ATOM     28  C   UNL     1      35.234  -1.096  17.634  0.00  0.00    +0.000 C 
ATOM     29  C   UNL     1      33.786  -1.576  17.496  0.00  0.00    +0.000 C 
ATOM     30  C   UNL     1      35.502  -0.624  19.061  0.00  0.00    +0.000 C 
ATOM     31  C   UNL     1      36.203  -2.206  17.274  0.00  0.00    +0.000 C 
ENDBRANCH  25  28
ENDBRANCH  21  22
ENDBRANCH  20  21
ENDBRANCH  18  20
ENDBRANCH   1  18
TORSDOF 9
ENDMDL
MODEL 5
REMARK VINA RESULT:      -7.0      2.941      5.771
REMARK  Name = 
REMARK  9 active torsions:
REMARK  status: ('A' for Active; 'I' for Inactive)
REMARK    1  A    between atoms: N_2  and  C_3
REMARK    2  A    between atoms: N_2  and  C_21
REMARK    3  A    between atoms: C_3  and  C_4
REMARK    4  A    between atoms: N_6  and  C_7
REMARK    5  A    between atoms: C_10  and  O_11
REMARK    6  A    between atoms: O_11  and  C_12
REMARK    7  A    between atoms: C_12  and  C_13
REMARK    8  A    between atoms: C_21  and  C_22
REMARK    9  A    between atoms: C_25  and  C_26
REMARK                            x       y       z     vdW  Elec       q    Type
REMARK                         _______ _______ _______ _____ _____    ______ ____
ROOT
ATOM      1  C   UNL     1      37.472   4.442  15.318  0.00  0.00    +0.000 C 
ATOM      2  O   UNL     1      37.035   5.608  15.232  0.00  0.00    +0.000 OA
ATOM      3  N   UNL     1      38.502   4.107  16.202  0.00  0.00    +0.000 NA
ENDROOT
BRANCH   3   4
ATOM      4  C   UNL     1      39.208   4.999  17.048  0.00  0.00    +0.000 A 
ATOM      5  C   UNL     1      38.818   5.067  18.389  0.00  0.00    +0.000 A 
ATOM      6  C   UNL     1      39.627   5.887  19.219  0.00  0.00    +0.000 A 
ATOM      7  C   UNL     1      40.681   6.559  18.856  0.00  0.00    +0.000 A 
ATOM      8  C   UNL     1      41.096   6.490  17.441  0.00  0.00    +0.000 A 
ATOM      9  C   UNL     1      40.290   5.694  16.667  0.00  0.00    +0.000 A 
BRANCH   7  10
ATOM     10  O   UNL     1      41.509   7.357  19.584  0.00  0.00    +0.000 OA
BRANCH  10  11
ATOM     11  C   UNL     1      42.800   7.721  19.586  0.00  0.00    +0.000 C 
BRANCH  11  12
ATOM     12  C   UNL     1      43.732   6.779  20.239  0.00  0.00    +0.000 A 
ATOM     13  C   UNL     1      43.428   6.055  21.335  0.00  0.00    +0.000 A 
ATOM     14  C   UNL     1      44.334   5.204  21.961  0.00  0.00    +0.000 A 
ATOM     15  C   UNL     1      45.616   5.092  21.425  0.00  0.00    +0.000 A 
ATOM     16  C   UNL     1      45.928   5.832  20.311  0.00  0.00    +0.000 A 
ATOM     17  C   UNL     1      45.017   6.657  19.722  0.00  0.00    +0.000 A 
ENDBRANCH  11  12
ENDBRANCH  10  11
ENDBRANCH   7  10
ENDBRANCH   3   4
BRANCH   1  18
ATOM     18  C   UNL     1      36.852   3.417  14.429  0.00  0.00    +0.000 C 
BRANCH  18  20
ATOM     19  C   UNL     1      34.501   3.494  15.108  0.00  0.00    +0.000 C 
ATOM     20  N   UNL     1      35.731   2.835  15.086  0.00  0.00    +0.000 NA
BRANCH  20  21
ATOM     21  C   UNL     1      36.004   2.140  16.311  0.00  0.00    +0.000 C 
BRANCH  21  22
ATOM     22  C   UNL     1      35.892   0.682  16.090  0.00  0.00    +0.000 A 
ATOM     23  C   UNL     1      36.588   0.096  15.038  0.00  0.00    +0.000 A 
ATOM     24  C   UNL     1      36.572  -1.237  14.765  0.00  0.00    +0.000 A 
ATOM     25  C   UNL     1      35.818  -2.116  15.566  0.00  0.00    +0.000 A 
ATOM     26  C   UNL     1      35.124  -1.558  16.603  0.00  0.00    +0.000 A 
ATOM     27  C   UNL     1      35.162  -0.200  16.855  0.00  0.00    +0.000 A 
BRANCH  25  28
ATOM     28  C   UNL     1      35.826  -3.577  15.219  0.00  0.00    +0.000 C 
ATOM     29  C   UNL     1      36.279  -4.318  16.480  0.00  0.00    +0.000 C 
ATOM     30  C   UNL     1      36.823  -3.801  14.085  0.00  0.00    +0.000 C 
ATOM     31  C   UNL     1      34.449  -4.046  14.788  0.00  0.00    +0.000 C 
ENDBRANCH  25  28
ENDBRANCH  21  22
ENDBRANCH  20  21
ENDBRANCH  18  20
ENDBRANCH   1  18
TORSDOF 9
ENDMDL
MODEL 6
REMARK VINA RESULT:      -6.9      1.495      2.354
REMARK  Name = 
REMARK  9 active torsions:
REMARK  status: ('A' for Active; 'I' for Inactive)
REMARK    1  A    between atoms: N_2  and  C_3
REMARK    2  A    between atoms: N_2  and  C_21
REMARK    3  A    between atoms: C_3  and  C_4
REMARK    4  A    between atoms: N_6  and  C_7
REMARK    5  A    between atoms: C_10  and  O_11
REMARK    6  A    between atoms: O_11  and  C_12
REMARK    7  A    between atoms: C_12  and  C_13
REMARK    8  A    between atoms: C_21  and  C_22
REMARK    9  A    between atoms: C_25  and  C_26
REMARK                            x       y       z     vdW  Elec       q    Type
REMARK                         _______ _______ _______ _____ _____    ______ ____
ROOT
ATOM      1  C   UNL     1      36.306   0.521  16.163  0.00  0.00    +0.000 C 
ATOM      2  O   UNL     1      36.505   0.973  17.308  0.00  0.00    +0.000 OA
ATOM      3  N   UNL     1      36.572   1.277  15.018  0.00  0.00    +0.000 NA
ENDROOT
BRANCH   3   4
ATOM      4  C   UNL     1      37.032   2.618  14.983  0.00  0.00    +0.000 A 
ATOM      5  C   UNL     1      36.080   3.626  14.810  0.00  0.00    +0.000 A 
ATOM      6  C   UNL     1      36.574   4.954  14.895  0.00  0.00    +0.000 A 
ATOM      7  C   UNL     1      37.805   5.311  15.125  0.00  0.00    +0.000 A 
ATOM      8  C   UNL     1      38.814   4.250  15.308  0.00  0.00    +0.000 A 
ATOM      9  C   UNL     1      38.303   2.979  15.214  0.00  0.00    +0.000 A 
BRANCH   7  10
ATOM     10  O   UNL     1      38.355   6.551  15.227  0.00  0.00    +0.000 OA
BRANCH  10  11
ATOM     11  C   UNL     1      38.530   7.493  16.167  0.00  0.00    +0.000 C 
BRANCH  11  12
ATOM     12  C   UNL     1      39.363   7.102  17.322  0.00  0.00    +0.000 A 
ATOM     13  C   UNL     1      40.688   6.866  17.251  0.00  0.00    +0.000 A 
ATOM     14  C   UNL     1      41.449   6.457  18.343  0.00  0.00    +0.000 A 
ATOM     15  C   UNL     1      40.808   6.286  19.568  0.00  0.00    +0.000 A 
ATOM     16  C   UNL     1      39.457   6.521  19.641  0.00  0.00    +0.000 A 
ATOM     17  C   UNL     1      38.741   6.921  18.552  0.00  0.00    +0.000 A 
ENDBRANCH  11  12
ENDBRANCH  10  11
ENDBRANCH   7  10
ENDBRANCH   3   4
BRANCH   1  18
ATOM     18  C   UNL     1      35.760  -0.864  16.065  0.00  0.00    +0.000 C 
BRANCH  18  20
ATOM     19  C   UNL     1      36.312  -2.706  14.549  0.00  0.00    +0.000 C 
ATOM     20  N   UNL     1      36.719  -1.709  15.437  0.00  0.00    +0.000 NA
BRANCH  20  21
ATOM     21  C   UNL     1      37.833  -2.114  16.246  0.00  0.00    +0.000 C 
BRANCH  21  22
ATOM     22  C   UNL     1      39.095  -1.759  15.564  0.00  0.00    +0.000 A 
ATOM     23  C   UNL     1      40.076  -2.731  15.393  0.00  0.00    +0.000 A 
ATOM     24  C   UNL     1      41.260  -2.513  14.758  0.00  0.00    +0.000 A 
ATOM     25  C   UNL     1      41.558  -1.243  14.228  0.00  0.00    +0.000 A 
ATOM     26  C   UNL     1      40.608  -0.273  14.390  0.00  0.00    +0.000 A 
ATOM     27  C   UNL     1      39.414  -0.526  15.038  0.00  0.00    +0.000 A 
BRANCH  25  28
ATOM     28  C   UNL     1      42.881  -1.051  13.544  0.00  0.00    +0.000 C 
ATOM     29  C   UNL     1      43.474  -2.448  13.349  0.00  0.00    +0.000 C 
ATOM     30  C   UNL     1      43.779  -0.215  14.454  0.00  0.00    +0.000 C 
ATOM     31  C   UNL     1      42.712  -0.349  12.211  0.00  0.00    +0.000 C 
ENDBRANCH  25  28
ENDBRANCH  21  22
ENDBRANCH  20  21
ENDBRANCH  18  20
ENDBRANCH   1  18
TORSDOF 9
ENDMDL
MODEL 7
REMARK VINA RESULT:      -6.8      2.704      4.879
REMARK  Name = 
REMARK  9 active torsions:
REMARK  status: ('A' for Active; 'I' for Inactive)
REMARK    1  A    between atoms: N_2  and  C_3
REMARK    2  A    between atoms: N_2  and  C_21
REMARK    3  A    between atoms: C_3  and  C_4
REMARK    4  A    between atoms: N_6  and  C_7
REMARK    5  A    between atoms: C_10  and  O_11
REMARK    6  A    between atoms: O_11  and  C_12
REMARK    7  A    between atoms: C_12  and  C_13
REMARK    8  A    between atoms: C_21  and  C_22
REMARK    9  A    between atoms: C_25  and  C_26
REMARK                            x       y       z     vdW  Elec       q    Type
REMARK                         _______ _______ _______ _____ _____    ______ ____
ROOT
ATOM      1  C   UNL     1      42.343  -0.096  12.508  0.00  0.00    +0.000 C 
ATOM      2  O   UNL     1      43.183   0.388  13.293  0.00  0.00    +0.000 OA
ATOM      3  N   UNL     1      41.045   0.413  12.416  0.00  0.00    +0.000 NA
ENDROOT
BRANCH   3   4
ATOM      4  C   UNL     1      40.495   1.463  13.195  0.00  0.00    +0.000 A 
ATOM      5  C   UNL     1      40.671   2.772  12.738  0.00  0.00    +0.000 A 
ATOM      6  C   UNL     1      40.007   3.776  13.489  0.00  0.00    +0.000 A 
ATOM      7  C   UNL     1      39.256   3.593  14.537  0.00  0.00    +0.000 A 
ATOM      8  C   UNL     1      39.067   2.213  15.023  0.00  0.00    +0.000 A 
ATOM      9  C   UNL     1      39.727   1.268  14.277  0.00  0.00    +0.000 A 
BRANCH   7  10
ATOM     10  O   UNL     1      38.584   4.493  15.304  0.00  0.00    +0.000 OA
BRANCH  10  11
ATOM     11  C   UNL     1      38.291   4.681  16.600  0.00  0.00    +0.000 C 
BRANCH  11  12
ATOM     12  C   UNL     1      39.317   5.387  17.395  0.00  0.00    +0.000 A 
ATOM     13  C   UNL     1      40.464   5.874  16.883  0.00  0.00    +0.000 A 
ATOM     14  C   UNL     1      41.439   6.499  17.656  0.00  0.00    +0.000 A 
ATOM     15  C   UNL     1      41.214   6.630  19.025  0.00  0.00    +0.000 A 
ATOM     16  C   UNL     1      40.047   6.130  19.549  0.00  0.00    +0.000 A 
ATOM     17  C   UNL     1      39.113   5.523  18.764  0.00  0.00    +0.000 A 
ENDBRANCH  11  12
ENDBRANCH  10  11
ENDBRANCH   7  10
ENDBRANCH   3   4
BRANCH   1  18
ATOM     18  C   UNL     1      42.781  -1.253  11.673  0.00  0.00    +0.000 C 
BRANCH  18  20
ATOM     19  C   UNL     1      43.914  -3.137  12.748  0.00  0.00    +0.000 C 
ATOM     20  N   UNL     1      42.740  -2.443  12.454  0.00  0.00    +0.000 NA
BRANCH  20  21
ATOM     21  C   UNL     1      41.627  -3.317  12.220  0.00  0.00    +0.000 C 
BRANCH  21  22
ATOM     22  C   UNL     1      40.528  -2.981  13.149  0.00  0.00    +0.000 A 
ATOM     23  C   UNL     1      40.798  -2.851  14.507  0.00  0.00    +0.000 A 
ATOM     24  C   UNL     1      39.863  -2.520  15.439  0.00  0.00    +0.000 A 
ATOM     25  C   UNL     1      38.529  -2.289  15.056  0.00  0.00    +0.000 A 
ATOM     26  C   UNL     1      38.243  -2.417  13.725  0.00  0.00    +0.000 A 
ATOM     27  C   UNL     1      39.214  -2.752  12.802  0.00  0.00    +0.000 A 
BRANCH  25  28
ATOM     28  C   UNL     1      37.533  -1.936  16.123  0.00  0.00    +0.000 C 
ATOM     29  C   UNL     1      36.533  -3.093  16.182  0.00  0.00    +0.000 C 
ATOM     30  C   UNL     1      36.826  -0.644  15.717  0.00  0.00    +0.000 C 
ATOM     31  C   UNL     1      38.212  -1.744  17.465  0.00  0.00    +0.000 C 
ENDBRANCH  25  28
ENDBRANCH  21  22
ENDBRANCH  20  21
ENDBRANCH  18  20
ENDBRANCH   1  18
TORSDOF 9
ENDMDL
MODEL 8
REMARK VINA RESULT:      -6.5     27.093     30.798
REMARK  Name = 
REMARK  9 active torsions:
REMARK  status: ('A' for Active; 'I' for Inactive)
REMARK    1  A    between atoms: N_2  and  C_3
REMARK    2  A    between atoms: N_2  and  C_21
REMARK    3  A    between atoms: C_3  and  C_4
REMARK    4  A    between atoms: N_6  and  C_7
REMARK    5  A    between atoms: C_10  and  O_11
REMARK    6  A    between atoms: O_11  and  C_12
REMARK    7  A    between atoms: C_12  and  C_13
REMARK    8  A    between atoms: C_21  and  C_22
REMARK    9  A    between atoms: C_25  and  C_26
REMARK                            x       y       z     vdW  Elec       q    Type
REMARK                         _______ _______ _______ _____ _____    ______ ____
ROOT
ATOM      1  C   UNL     1      23.189  15.603  41.590  0.00  0.00    +0.000 C 
ATOM      2  O   UNL     1      23.991  16.514  41.879  0.00  0.00    +0.000 OA
ATOM      3  N   UNL     1      23.336  14.834  40.432  0.00  0.00    +0.000 NA
ENDROOT
BRANCH   3   4
ATOM      4  C   UNL     1      24.331  14.997  39.435  0.00  0.00    +0.000 A 
ATOM      5  C   UNL     1      24.053  15.867  38.377  0.00  0.00    +0.000 A 
ATOM      6  C   UNL     1      25.122  16.082  37.467  0.00  0.00    +0.000 A 
ATOM      7  C   UNL     1      26.313  15.563  37.532  0.00  0.00    +0.000 A 
ATOM      8  C   UNL     1      26.611  14.643  38.647  0.00  0.00    +0.000 A 
ATOM      9  C   UNL     1      25.555  14.453  39.504  0.00  0.00    +0.000 A 
BRANCH   7  10
ATOM     10  O   UNL     1      27.387  15.721  36.711  0.00  0.00    +0.000 OA
BRANCH  10  11
ATOM     11  C   UNL     1      27.661  16.271  35.518  0.00  0.00    +0.000 C 
BRANCH  11  12
ATOM     12  C   UNL     1      26.661  16.032  34.456  0.00  0.00    +0.000 A 
ATOM     13  C   UNL     1      25.919  17.002  33.888  0.00  0.00    +0.000 A 
ATOM     14  C   UNL     1      24.951  16.753  32.918  0.00  0.00    +0.000 A 
ATOM     15  C   UNL     1      24.745  15.435  32.514  0.00  0.00    +0.000 A 
ATOM     16  C   UNL     1      25.498  14.445  33.096  0.00  0.00    +0.000 A 
ATOM     17  C   UNL     1      26.437  14.724  34.043  0.00  0.00    +0.000 A 
ENDBRANCH  11  12
ENDBRANCH  10  11
ENDBRANCH   7  10
ENDBRANCH   3   4
BRANCH   1  18
ATOM     18  C   UNL     1      22.055  15.373  42.532  0.00  0.00    +0.000 C 
BRANCH  18  20
ATOM     19  C   UNL     1      20.856  13.284  42.972  0.00  0.00    +0.000 C 
ATOM     20  N   UNL     1      22.048  14.009  42.942  0.00  0.00    +0.000 NA
BRANCH  20  21
ATOM     21  C   UNL     1      22.927  13.668  44.023  0.00  0.00    +0.000 C 
BRANCH  21  22
ATOM     22  C   UNL     1      23.842  12.588  43.596  0.00  0.00    +0.000 A 
ATOM     23  C   UNL     1      25.021  12.913  42.933  0.00  0.00    +0.000 A 
ATOM     24  C   UNL     1      25.940  11.997  42.522  0.00  0.00    +0.000 A 
ATOM     25  C   UNL     1      25.728  10.625  42.756  0.00  0.00    +0.000 A 
ATOM     26  C   UNL     1      24.572  10.285  43.402  0.00  0.00    +0.000 A 
ATOM     27  C   UNL     1      23.659  11.239  43.809  0.00  0.00    +0.000 A 
BRANCH  25  28
ATOM     28  C   UNL     1      26.767   9.653  42.275  0.00  0.00    +0.000 C 
ATOM     29  C   UNL     1      26.102   8.274  42.277  0.00  0.00    +0.000 C 
ATOM     30  C   UNL     1      27.941   9.677  43.251  0.00  0.00    +0.000 C 
ATOM     31  C   UNL     1      27.253  10.013  40.884  0.00  0.00    +0.000 C 
ENDBRANCH  25  28
ENDBRANCH  21  22
ENDBRANCH  20  21
ENDBRANCH  18  20
ENDBRANCH   1  18
TORSDOF 9
ENDMDL
MODEL 9
REMARK VINA RESULT:      -6.5      3.342      6.832
REMARK  Name = 
REMARK  9 active torsions:
REMARK  status: ('A' for Active; 'I' for Inactive)
REMARK    1  A    between atoms: N_2  and  C_3
REMARK    2  A    between atoms: N_2  and  C_21
REMARK    3  A    between atoms: C_3  and  C_4
REMARK    4  A    between atoms: N_6  and  C_7
REMARK    5  A    between atoms: C_10  and  O_11
REMARK    6  A    between atoms: O_11  and  C_12
REMARK    7  A    between atoms: C_12  and  C_13
REMARK    8  A    between atoms: C_21  and  C_22
REMARK    9  A    between atoms: C_25  and  C_26
REMARK                            x       y       z     vdW  Elec       q    Type
REMARK                         _______ _______ _______ _____ _____    ______ ____
ROOT
ATOM      1  C   UNL     1      38.239   5.020  16.331  0.00  0.00    +0.000 C 
ATOM      2  O   UNL     1      38.506   3.882  16.766  0.00  0.00    +0.000 OA
ATOM      3  N   UNL     1      38.940   6.152  16.757  0.00  0.00    +0.000 NA
ENDROOT
BRANCH   3   4
ATOM      4  C   UNL     1      39.969   6.188  17.732  0.00  0.00    +0.000 A 
ATOM      5  C   UNL     1      41.277   6.396  17.288  0.00  0.00    +0.000 A 
ATOM      6  C   UNL     1      42.254   6.537  18.309  0.00  0.00    +0.000 A 
ATOM      7  C   UNL     1      42.044   6.502  19.594  0.00  0.00    +0.000 A 
ATOM      8  C   UNL     1      40.664   6.282  20.067  0.00  0.00    +0.000 A 
ATOM      9  C   UNL     1      39.747   6.144  19.054  0.00  0.00    +0.000 A 
BRANCH   7  10
ATOM     10  O   UNL     1      42.916   6.633  20.630  0.00  0.00    +0.000 OA
BRANCH  10  11
ATOM     11  C   UNL     1      43.451   7.619  21.367  0.00  0.00    +0.000 C 
BRANCH  11  12
ATOM     12  C   UNL     1      43.393   8.970  20.773  0.00  0.00    +0.000 A 
ATOM     13  C   UNL     1      44.335   9.473  19.950  0.00  0.00    +0.000 A 
ATOM     14  C   UNL     1      44.283  10.765  19.433  0.00  0.00    +0.000 A 
ATOM     15  C   UNL     1      43.204  11.574  19.781  0.00  0.00    +0.000 A 
ATOM     16  C   UNL     1      42.246  11.064  20.623  0.00  0.00    +0.000 A 
ATOM     17  C   UNL     1      42.326   9.794  21.112  0.00  0.00    +0.000 A 
ENDBRANCH  11  12
ENDBRANCH  10  11
ENDBRANCH   7  10
ENDBRANCH   3   4
BRANCH   1  18
ATOM     18  C   UNL     1      37.128   5.126  15.341  0.00  0.00    +0.000 C 
BRANCH  18  20
ATOM     19  C   UNL     1      38.063   4.030  13.362  0.00  0.00    +0.000 C 
ATOM     20  N   UNL     1      37.184   4.020  14.446  0.00  0.00    +0.000 NA
BRANCH  20  21
ATOM     21  C   UNL     1      35.932   3.394  14.133  0.00  0.00    +0.000 C 
BRANCH  21  22
ATOM     22  C   UNL     1      35.815   2.120  14.874  0.00  0.00    +0.000 A 
ATOM     23  C   UNL     1      35.064   2.077  16.044  0.00  0.00    +0.000 A 
ATOM     24  C   UNL     1      34.874   0.951  16.785  0.00  0.00    +0.000 A 
ATOM     25  C   UNL     1      35.456  -0.267  16.386  0.00  0.00    +0.000 A 
ATOM     26  C   UNL     1      36.202  -0.244  15.241  0.00  0.00    +0.000 A 
ATOM     27  C   UNL     1      36.375   0.915  14.509  0.00  0.00    +0.000 A 
BRANCH  25  28
ATOM     28  C   UNL     1      35.225  -1.479  17.242  0.00  0.00    +0.000 C 
ATOM     29  C   UNL     1      33.722  -1.524  17.532  0.00  0.00    +0.000 C 
ATOM     30  C   UNL     1      36.011  -1.313  18.540  0.00  0.00    +0.000 C 
ATOM     31  C   UNL     1      35.672  -2.743  16.534  0.00  0.00    +0.000 C 
ENDBRANCH  25  28
ENDBRANCH  21  22
ENDBRANCH  20  21
ENDBRANCH  18  20
ENDBRANCH   1  18
TORSDOF 9
ENDMDL
MODEL 10
REMARK VINA RESULT:      -6.4      2.412      4.808
REMARK  Name = 
REMARK  9 active torsions:
REMARK  status: ('A' for Active; 'I' for Inactive)
REMARK    1  A    between atoms: N_2  and  C_3
REMARK    2  A    between atoms: N_2  and  C_21
REMARK    3  A    between atoms: C_3  and  C_4
REMARK    4  A    between atoms: N_6  and  C_7
REMARK    5  A    between atoms: C_10  and  O_11
REMARK    6  A    between atoms: O_11  and  C_12
REMARK    7  A    between atoms: C_12  and  C_13
REMARK    8  A    between atoms: C_21  and  C_22
REMARK    9  A    between atoms: C_25  and  C_26
REMARK                            x       y       z     vdW  Elec       q    Type
REMARK                         _______ _______ _______ _____ _____    ______ ____
ROOT
ATOM      1  C   UNL     1      40.505   0.198  13.147  0.00  0.00    +0.000 C 
ATOM      2  O   UNL     1      40.944   0.039  14.304  0.00  0.00    +0.000 OA
ATOM      3  N   UNL     1      40.217   1.468  12.640  0.00  0.00    +0.000 NA
ENDROOT
BRANCH   3   4
ATOM      4  C   UNL     1      40.320   2.698  13.339  0.00  0.00    +0.000 A 
ATOM      5  C   UNL     1      41.269   3.621  12.891  0.00  0.00    +0.000 A 
ATOM      6  C   UNL     1      41.256   4.878  13.550  0.00  0.00    +0.000 A 
ATOM      7  C   UNL     1      40.452   5.245  14.506  0.00  0.00    +0.000 A 
ATOM      8  C   UNL     1      39.449   4.274  14.982  0.00  0.00    +0.000 A 
ATOM      9  C   UNL     1      39.493   3.068  14.327  0.00  0.00    +0.000 A 
BRANCH   7  10
ATOM     10  O   UNL     1      40.370   6.424  15.181  0.00  0.00    +0.000 OA
BRANCH  10  11
ATOM     11  C   UNL     1      41.129   7.155  16.012  0.00  0.00    +0.000 C 
BRANCH  11  12
ATOM     12  C   UNL     1      41.047   6.794  17.442  0.00  0.00    +0.000 A 
ATOM     13  C   UNL     1      39.906   6.440  18.066  0.00  0.00    +0.000 A 
ATOM     14  C   UNL     1      39.841   6.144  19.425  0.00  0.00    +0.000 A 
ATOM     15  C   UNL     1      41.013   6.213  20.174  0.00  0.00    +0.000 A 
ATOM     16  C   UNL     1      42.176   6.577  19.540  0.00  0.00    +0.000 A 
ATOM     17  C   UNL     1      42.206   6.862  18.208  0.00  0.00    +0.000 A 
ENDBRANCH  11  12
ENDBRANCH  10  11
ENDBRANCH   7  10
ENDBRANCH   3   4
BRANCH   1  18
ATOM     18  C   UNL     1      40.291  -1.029  12.327  0.00  0.00    +0.000 C 
BRANCH  18  20
ATOM     19  C   UNL     1      41.019  -3.082  13.443  0.00  0.00    +0.000 C 
ATOM     20  N   UNL     1      40.029  -2.134  13.186  0.00  0.00    +0.000 NA
BRANCH  20  21
ATOM     21  C   UNL     1      38.721  -2.716  13.088  0.00  0.00    +0.000 C 
BRANCH  21  22
ATOM     22  C   UNL     1      37.830  -2.108  14.099  0.00  0.00    +0.000 A 
ATOM     23  C   UNL     1      37.676  -2.728  15.335  0.00  0.00    +0.000 A 
ATOM     24  C   UNL     1      36.901  -2.237  16.340  0.00  0.00    +0.000 A 
ATOM     25  C   UNL     1      36.191  -1.035  16.165  0.00  0.00    +0.000 A 
ATOM     26  C   UNL     1      36.326  -0.413  14.955  0.00  0.00    +0.000 A 
ATOM     27  C   UNL     1      37.122  -0.935  13.955  0.00  0.00    +0.000 A 
BRANCH  25  28
ATOM     28  C   UNL     1      35.342  -0.539  17.301  0.00  0.00    +0.000 C 
ATOM     29  C   UNL     1      34.133  -1.475  17.378  0.00  0.00    +0.000 C 
ATOM     30  C   UNL     1      34.892   0.885  16.984  0.00  0.00    +0.000 C 
ATOM     31  C   UNL     1      36.113  -0.551  18.607  0.00  0.00    +0.000 C 
ENDBRANCH  25  28
ENDBRANCH  21  22
ENDBRANCH  20  21
ENDBRANCH  18  20
ENDBRANCH   1  18
TORSDOF 9
ENDMDL
