MODEL 1
REMARK VINA RESULT:      -5.8      0.000      0.000
REMARK  Name = 
REMARK  3 active torsions:
REMARK  status: ('A' for Active; 'I' for Inactive)
REMARK    1  A    between atoms: O_2  and  C_3
REMARK    2  A    between atoms: C_9  and  N_10
REMARK    3  A    between atoms: C_18  and  C_19
REMARK                            x       y       z     vdW  Elec       q    Type
REMARK                         _______ _______ _______ _____ _____    ______ ____
ROOT
ATOM      1  N   UNL     1      17.371   9.531  40.523  0.00  0.00    +0.000 NA
ATOM      2  C   UNL     1      16.532  10.072  39.517  0.00  0.00    +0.000 A 
ATOM      3  N   UNL     1      15.215  10.208  39.635  0.00  0.00    +0.000 NA
ATOM      4  C   UNL     1      14.467  10.731  38.639  0.00  0.00    +0.000 A 
ATOM      5  C   UNL     1      12.982  10.876  38.789  0.00  0.00    +0.000 C 
ATOM      6  C   UNL     1      15.047  11.147  37.462  0.00  0.00    +0.000 A 
ATOM      7  C   UNL     1      16.412  11.021  37.306  0.00  0.00    +0.000 A 
ATOM      8  C   UNL     1      17.074  11.464  36.035  0.00  0.00    +0.000 C 
ATOM      9  C   UNL     1      17.152  10.479  38.346  0.00  0.00    +0.000 A 
ENDROOT
BRANCH   1  16
ATOM     10  C   UNL     1      16.715   7.713  41.941  0.00  0.00    +0.000 A 
ATOM     11  C   UNL     1      16.272   7.163  43.122  0.00  0.00    +0.000 A 
ATOM     12  C   UNL     1      16.011   7.974  44.199  0.00  0.00    +0.000 A 
ATOM     13  C   UNL     1      16.202   9.325  44.058  0.00  0.00    +0.000 A 
ATOM     14  C   UNL     1      15.916  10.194  45.230  0.00  0.00    +0.000 C 
ATOM     15  C   UNL     1      16.651   9.877  42.858  0.00  0.00    +0.000 A 
ATOM     16  C   UNL     1      16.916   9.068  41.771  0.00  0.00    +0.000 A 
BRANCH  10  18
ATOM     17  C   UNL     1      17.941   5.846  40.936  0.00  0.00    +0.000 C 
ATOM     18  O   UNL     1      16.974   6.851  40.858  0.00  0.00    +0.000 OA
ENDBRANCH  10  18
ENDBRANCH   1  16
BRANCH   9  19
ATOM     19  C   UNL     1      18.598  10.352  38.166  0.00  0.00    +0.000 C 
ATOM     20  N   UNL     1      19.484  11.393  38.547  0.00  0.00    +0.000 NA
ATOM     21  O   UNL     1      19.112   9.319  37.668  0.00  0.00    +0.000 OA
ENDBRANCH   9  19
TORSDOF 3
ENDMDL
MODEL 2
REMARK VINA RESULT:      -5.8      2.875      5.927
REMARK  Name = 
REMARK  3 active torsions:
REMARK  status: ('A' for Active; 'I' for Inactive)
REMARK    1  A    between atoms: O_2  and  C_3
REMARK    2  A    between atoms: C_9  and  N_10
REMARK    3  A    between atoms: C_18  and  C_19
REMARK                            x       y       z     vdW  Elec       q    Type
REMARK                         _______ _______ _______ _____ _____    ______ ____
ROOT
ATOM      1  N   UNL     1      18.754  10.967  37.553  0.00  0.00    +0.000 NA
ATOM      2  C   UNL     1      19.692  11.938  37.984  0.00  0.00    +0.000 A 
ATOM      3  N   UNL     1      19.374  13.181  38.332  0.00  0.00    +0.000 NA
ATOM      4  C   UNL     1      20.315  14.064  38.735  0.00  0.00    +0.000 A 
ATOM      5  C   UNL     1      19.939  15.462  39.123  0.00  0.00    +0.000 C 
ATOM      6  C   UNL     1      21.642  13.703  38.800  0.00  0.00    +0.000 A 
ATOM      7  C   UNL     1      22.006  12.421  38.446  0.00  0.00    +0.000 A 
ATOM      8  C   UNL     1      23.445  11.997  38.507  0.00  0.00    +0.000 C 
ATOM      9  C   UNL     1      21.018  11.538  38.037  0.00  0.00    +0.000 A 
ENDROOT
BRANCH   1  16
ATOM     10  C   UNL     1      16.528  10.632  38.375  0.00  0.00    +0.000 A 
ATOM     11  C   UNL     1      15.161  10.797  38.349  0.00  0.00    +0.000 A 
ATOM     12  C   UNL     1      14.583  11.552  37.360  0.00  0.00    +0.000 A 
ATOM     13  C   UNL     1      15.397  12.125  36.416  0.00  0.00    +0.000 A 
ATOM     14  C   UNL     1      14.759  12.941  35.349  0.00  0.00    +0.000 C 
ATOM     15  C   UNL     1      16.781  11.954  36.448  0.00  0.00    +0.000 A 
ATOM     16  C   UNL     1      17.371  11.196  37.439  0.00  0.00    +0.000 A 
BRANCH  10  18
ATOM     17  C   UNL     1      16.372   9.551  40.567  0.00  0.00    +0.000 C 
ATOM     18  O   UNL     1      17.087   9.851  39.405  0.00  0.00    +0.000 OA
ENDBRANCH  10  18
ENDBRANCH   1  16
BRANCH   9  19
ATOM     19  C   UNL     1      21.420  10.182  37.665  0.00  0.00    +0.000 C 
ATOM     20  N   UNL     1      21.818   9.867  36.339  0.00  0.00    +0.000 NA
ATOM     21  O   UNL     1      21.431   9.244  38.501  0.00  0.00    +0.000 OA
ENDBRANCH   9  19
TORSDOF 3
ENDMDL
MODEL 3
REMARK VINA RESULT:      -5.7     21.197     23.171
REMARK  Name = 
REMARK  3 active torsions:
REMARK  status: ('A' for Active; 'I' for Inactive)
REMARK    1  A    between atoms: O_2  and  C_3
REMARK    2  A    between atoms: C_9  and  N_10
REMARK    3  A    between atoms: C_18  and  C_19
REMARK                            x       y       z     vdW  Elec       q    Type
REMARK                         _______ _______ _______ _____ _____    ______ ____
ROOT
ATOM      1  N   UNL     1      19.730  -9.639  26.898  0.00  0.00    +0.000 NA
ATOM      2  C   UNL     1      19.992  -8.323  26.442  0.00  0.00    +0.000 A 
ATOM      3  N   UNL     1      19.214  -7.276  26.696  0.00  0.00    +0.000 NA
ATOM      4  C   UNL     1      19.516  -6.043  26.233  0.00  0.00    +0.000 A 
ATOM      5  C   UNL     1      18.627  -4.873  26.528  0.00  0.00    +0.000 C 
ATOM      6  C   UNL     1      20.648  -5.828  25.479  0.00  0.00    +0.000 A 
ATOM      7  C   UNL     1      21.478  -6.893  25.198  0.00  0.00    +0.000 A 
ATOM      8  C   UNL     1      22.720  -6.692  24.379  0.00  0.00    +0.000 C 
ATOM      9  C   UNL     1      21.141  -8.146  25.687  0.00  0.00    +0.000 A 
ENDROOT
BRANCH   1  16
ATOM     10  C   UNL     1      17.526 -10.568  27.042  0.00  0.00    +0.000 A 
ATOM     11  C   UNL     1      16.388 -10.956  27.713  0.00  0.00    +0.000 A 
ATOM     12  C   UNL     1      16.305 -10.788  29.073  0.00  0.00    +0.000 A 
ATOM     13  C   UNL     1      17.374 -10.230  29.727  0.00  0.00    +0.000 A 
ATOM     14  C   UNL     1      17.273 -10.052  31.200  0.00  0.00    +0.000 C 
ATOM     15  C   UNL     1      18.524  -9.837  29.041  0.00  0.00    +0.000 A 
ATOM     16  C   UNL     1      18.615 -10.003  27.674  0.00  0.00    +0.000 A 
BRANCH  10  18
ATOM     17  C   UNL     1      16.906  -9.900  24.769  0.00  0.00    +0.000 C 
ATOM     18  O   UNL     1      17.576 -10.755  25.647  0.00  0.00    +0.000 OA
ENDBRANCH  10  18
ENDBRANCH   1  16
BRANCH   9  19
ATOM     19  C   UNL     1      22.030  -9.266  25.380  0.00  0.00    +0.000 C 
ATOM     20  N   UNL     1      21.857 -10.047  24.207  0.00  0.00    +0.000 NA
ATOM     21  O   UNL     1      22.982  -9.579  26.138  0.00  0.00    +0.000 OA
ENDBRANCH   9  19
TORSDOF 3
ENDMDL
MODEL 4
REMARK VINA RESULT:      -5.7      2.440      6.480
REMARK  Name = 
REMARK  3 active torsions:
REMARK  status: ('A' for Active; 'I' for Inactive)
REMARK    1  A    between atoms: O_2  and  C_3
REMARK    2  A    between atoms: C_9  and  N_10
REMARK    3  A    between atoms: C_18  and  C_19
REMARK                            x       y       z     vdW  Elec       q    Type
REMARK                         _______ _______ _______ _____ _____    ______ ____
ROOT
ATOM      1  N   UNL     1      18.539   9.337  39.548  0.00  0.00    +0.000 NA
ATOM      2  C   UNL     1      18.262   8.094  40.168  0.00  0.00    +0.000 A 
ATOM      3  N   UNL     1      18.930   6.971  39.923  0.00  0.00    +0.000 NA
ATOM      4  C   UNL     1      18.618   5.813  40.547  0.00  0.00    +0.000 A 
ATOM      5  C   UNL     1      19.382   4.556  40.258  0.00  0.00    +0.000 C 
ATOM      6  C   UNL     1      17.594   5.758  41.465  0.00  0.00    +0.000 A 
ATOM      7  C   UNL     1      16.881   6.905  41.743  0.00  0.00    +0.000 A 
ATOM      8  C   UNL     1      15.758   6.878  42.739  0.00  0.00    +0.000 C 
ATOM      9  C   UNL     1      17.224   8.078  41.086  0.00  0.00    +0.000 A 
ENDROOT
BRANCH   1  16
ATOM     10  C   UNL     1      19.211   9.558  37.258  0.00  0.00    +0.000 A 
ATOM     11  C   UNL     1      20.129   9.748  36.250  0.00  0.00    +0.000 A 
ATOM     12  C   UNL     1      21.454   9.933  36.559  0.00  0.00    +0.000 A 
ATOM     13  C   UNL     1      21.823   9.920  37.880  0.00  0.00    +0.000 A 
ATOM     14  C   UNL     1      23.261  10.120  38.202  0.00  0.00    +0.000 C 
ATOM     15  C   UNL     1      20.887   9.726  38.896  0.00  0.00    +0.000 A 
ATOM     16  C   UNL     1      19.554   9.540  38.594  0.00  0.00    +0.000 A 
BRANCH  10  18
ATOM     17  C   UNL     1      17.427   9.489  35.581  0.00  0.00    +0.000 C 
ATOM     18  O   UNL     1      17.860   9.372  36.904  0.00  0.00    +0.000 OA
ENDBRANCH  10  18
ENDBRANCH   1  16
BRANCH   9  19
ATOM     19  C   UNL     1      16.458   9.285  41.392  0.00  0.00    +0.000 C 
ATOM     20  N   UNL     1      15.337   9.667  40.610  0.00  0.00    +0.000 NA
ATOM     21  O   UNL     1      16.760  10.031  42.358  0.00  0.00    +0.000 OA
ENDBRANCH   9  19
TORSDOF 3
ENDMDL
MODEL 5
REMARK VINA RESULT:      -5.6     22.134     24.476
REMARK  Name = 
REMARK  3 active torsions:
REMARK  status: ('A' for Active; 'I' for Inactive)
REMARK    1  A    between atoms: O_2  and  C_3
REMARK    2  A    between atoms: C_9  and  N_10
REMARK    3  A    between atoms: C_18  and  C_19
REMARK                            x       y       z     vdW  Elec       q    Type
REMARK                         _______ _______ _______ _____ _____    ______ ____
ROOT
ATOM      1  N   UNL     1      21.116  -9.199  25.255  0.00  0.00    +0.000 NA
ATOM      2  C   UNL     1      20.181  -8.428  25.990  0.00  0.00    +0.000 A 
ATOM      3  N   UNL     1      19.974  -7.128  25.802  0.00  0.00    +0.000 NA
ATOM      4  C   UNL     1      19.067  -6.445  26.536  0.00  0.00    +0.000 A 
ATOM      5  C   UNL     1      18.846  -4.980  26.312  0.00  0.00    +0.000 C 
ATOM      6  C   UNL     1      18.322  -7.077  27.506  0.00  0.00    +0.000 A 
ATOM      7  C   UNL     1      18.511  -8.425  27.726  0.00  0.00    +0.000 A 
ATOM      8  C   UNL     1      17.715  -9.142  28.776  0.00  0.00    +0.000 C 
ATOM      9  C   UNL     1      19.450  -9.098  26.957  0.00  0.00    +0.000 A 
ENDROOT
BRANCH   1  16
ATOM     10  C   UNL     1      21.522  -8.794  22.928  0.00  0.00    +0.000 A 
ATOM     11  C   UNL     1      22.258  -8.326  21.863  0.00  0.00    +0.000 A 
ATOM     12  C   UNL     1      23.468  -7.717  22.084  0.00  0.00    +0.000 A 
ATOM     13  C   UNL     1      23.911  -7.596  23.377  0.00  0.00    +0.000 A 
ATOM     14  C   UNL     1      25.224  -6.936  23.604  0.00  0.00    +0.000 C 
ATOM     15  C   UNL     1      23.160  -8.074  24.452  0.00  0.00    +0.000 A 
ATOM     16  C   UNL     1      21.942  -8.687  24.238  0.00  0.00    +0.000 A 
BRANCH  10  18
ATOM     17  C   UNL     1      20.068 -10.150  21.497  0.00  0.00    +0.000 C 
ATOM     18  O   UNL     1      20.284  -9.413  22.664  0.00  0.00    +0.000 OA
ENDBRANCH  10  18
ENDBRANCH   1  16
BRANCH   9  19
ATOM     19  C   UNL     1      19.640 -10.527  27.202  0.00  0.00    +0.000 C 
ATOM     20  N   UNL     1      20.597 -10.995  28.140  0.00  0.00    +0.000 NA
ATOM     21  O   UNL     1      18.965 -11.396  26.595  0.00  0.00    +0.000 OA
ENDBRANCH   9  19
TORSDOF 3
ENDMDL
MODEL 6
REMARK VINA RESULT:      -5.6     24.588     26.450
REMARK  Name = 
REMARK  3 active torsions:
REMARK  status: ('A' for Active; 'I' for Inactive)
REMARK    1  A    between atoms: O_2  and  C_3
REMARK    2  A    between atoms: C_9  and  N_10
REMARK    3  A    between atoms: C_18  and  C_19
REMARK                            x       y       z     vdW  Elec       q    Type
REMARK                         _______ _______ _______ _____ _____    ______ ____
ROOT
ATOM      1  N   UNL     1      24.771   3.997  16.938  0.00  0.00    +0.000 NA
ATOM      2  C   UNL     1      25.116   2.623  16.978  0.00  0.00    +0.000 A 
ATOM      3  N   UNL     1      26.364   2.166  16.964  0.00  0.00    +0.000 NA
ATOM      4  C   UNL     1      26.631   0.841  17.003  0.00  0.00    +0.000 A 
ATOM      5  C   UNL     1      28.045   0.343  16.986  0.00  0.00    +0.000 C 
ATOM      6  C   UNL     1      25.614  -0.084  17.062  0.00  0.00    +0.000 A 
ATOM      7  C   UNL     1      24.307   0.356  17.079  0.00  0.00    +0.000 A 
ATOM      8  C   UNL     1      23.175  -0.627  17.142  0.00  0.00    +0.000 C 
ATOM      9  C   UNL     1      24.065   1.722  17.037  0.00  0.00    +0.000 A 
ENDROOT
BRANCH   1  16
ATOM     10  C   UNL     1      26.016   5.584  15.645  0.00  0.00    +0.000 A 
ATOM     11  C   UNL     1      26.916   6.613  15.481  0.00  0.00    +0.000 A 
ATOM     12  C   UNL     1      27.545   7.152  16.575  0.00  0.00    +0.000 A 
ATOM     13  C   UNL     1      27.253   6.639  17.814  0.00  0.00    +0.000 A 
ATOM     14  C   UNL     1      27.941   7.230  18.992  0.00  0.00    +0.000 C 
ATOM     15  C   UNL     1      26.340   5.595  17.973  0.00  0.00    +0.000 A 
ATOM     16  C   UNL     1      25.704   5.048  16.877  0.00  0.00    +0.000 A 
BRANCH  10  18
ATOM     17  C   UNL     1      25.524   5.660  13.247  0.00  0.00    +0.000 C 
ATOM     18  O   UNL     1      25.389   5.056  14.499  0.00  0.00    +0.000 OA
ENDBRANCH  10  18
ENDBRANCH   1  16
BRANCH   9  19
ATOM     19  C   UNL     1      22.674   2.173  17.055  0.00  0.00    +0.000 C 
ATOM     20  N   UNL     1      21.933   2.331  15.855  0.00  0.00    +0.000 NA
ATOM     21  O   UNL     1      22.081   2.437  18.131  0.00  0.00    +0.000 OA
ENDBRANCH   9  19
TORSDOF 3
ENDMDL
MODEL 7
REMARK VINA RESULT:      -5.6      4.373      6.895
REMARK  Name = 
REMARK  3 active torsions:
REMARK  status: ('A' for Active; 'I' for Inactive)
REMARK    1  A    between atoms: O_2  and  C_3
REMARK    2  A    between atoms: C_9  and  N_10
REMARK    3  A    between atoms: C_18  and  C_19
REMARK                            x       y       z     vdW  Elec       q    Type
REMARK                         _______ _______ _______ _____ _____    ______ ____
ROOT
ATOM      1  N   UNL     1      20.882  12.299  38.931  0.00  0.00    +0.000 NA
ATOM      2  C   UNL     1      22.106  12.037  38.266  0.00  0.00    +0.000 A 
ATOM      3  N   UNL     1      22.339  10.954  37.530  0.00  0.00    +0.000 NA
ATOM      4  C   UNL     1      23.529  10.759  36.920  0.00  0.00    +0.000 A 
ATOM      5  C   UNL     1      23.776   9.532  36.095  0.00  0.00    +0.000 C 
ATOM      6  C   UNL     1      24.544  11.681  37.038  0.00  0.00    +0.000 A 
ATOM      7  C   UNL     1      24.335  12.816  37.793  0.00  0.00    +0.000 A 
ATOM      8  C   UNL     1      25.422  13.840  37.941  0.00  0.00    +0.000 C 
ATOM      9  C   UNL     1      23.104  12.988  38.408  0.00  0.00    +0.000 A 
ENDROOT
BRANCH   1  16
ATOM     10  C   UNL     1      19.637  10.483  39.876  0.00  0.00    +0.000 A 
ATOM     11  C   UNL     1      18.580   9.602  39.930  0.00  0.00    +0.000 A 
ATOM     12  C   UNL     1      17.589   9.665  38.982  0.00  0.00    +0.000 A 
ATOM     13  C   UNL     1      17.688  10.616  37.997  0.00  0.00    +0.000 A 
ATOM     14  C   UNL     1      16.610  10.674  36.975  0.00  0.00    +0.000 C 
ATOM     15  C   UNL     1      18.763  11.504  37.948  0.00  0.00    +0.000 A 
ATOM     16  C   UNL     1      19.763  11.448  38.898  0.00  0.00    +0.000 A 
BRANCH  10  18
ATOM     17  C   UNL     1      21.504   9.297  40.929  0.00  0.00    +0.000 C 
ATOM     18  O   UNL     1      20.635  10.389  40.866  0.00  0.00    +0.000 OA
ENDBRANCH  10  18
ENDBRANCH   1  16
BRANCH   9  19
ATOM     19  C   UNL     1      22.898  14.196  39.205  0.00  0.00    +0.000 C 
ATOM     20  N   UNL     1      23.207  14.229  40.590  0.00  0.00    +0.000 NA
ATOM     21  O   UNL     1      22.440  15.251  38.698  0.00  0.00    +0.000 OA
ENDBRANCH   9  19
TORSDOF 3
ENDMDL
MODEL 8
REMARK VINA RESULT:      -5.6     21.169     23.203
REMARK  Name = 
REMARK  3 active torsions:
REMARK  status: ('A' for Active; 'I' for Inactive)
REMARK    1  A    between atoms: O_2  and  C_3
REMARK    2  A    between atoms: C_9  and  N_10
REMARK    3  A    between atoms: C_18  and  C_19
REMARK                            x       y       z     vdW  Elec       q    Type
REMARK                         _______ _______ _______ _____ _____    ______ ____
ROOT
ATOM      1  N   UNL     1      19.680  -9.705  26.627  0.00  0.00    +0.000 NA
ATOM      2  C   UNL     1      19.978  -8.364  26.277  0.00  0.00    +0.000 A 
ATOM      3  N   UNL     1      19.188  -7.329  26.543  0.00  0.00    +0.000 NA
ATOM      4  C   UNL     1      19.526  -6.071  26.182  0.00  0.00    +0.000 A 
ATOM      5  C   UNL     1      18.622  -4.916  26.490  0.00  0.00    +0.000 C 
ATOM      6  C   UNL     1      20.709  -5.818  25.526  0.00  0.00    +0.000 A 
ATOM      7  C   UNL     1      21.553  -6.869  25.235  0.00  0.00    +0.000 A 
ATOM      8  C   UNL     1      22.850  -6.625  24.520  0.00  0.00    +0.000 C 
ATOM      9  C   UNL     1      21.178  -8.148  25.617  0.00  0.00    +0.000 A 
ENDROOT
BRANCH   1  16
ATOM     10  C   UNL     1      18.573 -10.330  28.658  0.00  0.00    +0.000 A 
ATOM     11  C   UNL     1      17.486 -10.727  29.404  0.00  0.00    +0.000 A 
ATOM     12  C   UNL     1      16.272 -10.918  28.793  0.00  0.00    +0.000 A 
ATOM     13  C   UNL     1      16.181 -10.705  27.441  0.00  0.00    +0.000 A 
ATOM     14  C   UNL     1      14.861 -10.915  26.790  0.00  0.00    +0.000 C 
ATOM     15  C   UNL     1      17.287 -10.303  26.691  0.00  0.00    +0.000 A 
ATOM     16  C   UNL     1      18.512 -10.109  27.298  0.00  0.00    +0.000 A 
BRANCH  10  18
ATOM     17  C   UNL     1      19.864  -9.781  30.666  0.00  0.00    +0.000 C 
ATOM     18  O   UNL     1      19.804 -10.144  29.318  0.00  0.00    +0.000 OA
ENDBRANCH  10  18
ENDBRANCH   1  16
BRANCH   9  19
ATOM     19  C   UNL     1      22.083  -9.253  25.301  0.00  0.00    +0.000 C 
ATOM     20  N   UNL     1      21.957  -9.989  24.094  0.00  0.00    +0.000 NA
ATOM     21  O   UNL     1      23.007  -9.592  26.082  0.00  0.00    +0.000 OA
ENDBRANCH   9  19
TORSDOF 3
ENDMDL
MODEL 9
REMARK VINA RESULT:      -5.5      3.553      6.096
REMARK  Name = 
REMARK  3 active torsions:
REMARK  status: ('A' for Active; 'I' for Inactive)
REMARK    1  A    between atoms: O_2  and  C_3
REMARK    2  A    between atoms: C_9  and  N_10
REMARK    3  A    between atoms: C_18  and  C_19
REMARK                            x       y       z     vdW  Elec       q    Type
REMARK                         _______ _______ _______ _____ _____    ______ ____
ROOT
ATOM      1  N   UNL     1      20.334  10.508  37.710  0.00  0.00    +0.000 NA
ATOM      2  C   UNL     1      21.200  11.564  38.087  0.00  0.00    +0.000 A 
ATOM      3  N   UNL     1      20.817  12.635  38.776  0.00  0.00    +0.000 NA
ATOM      4  C   UNL     1      21.691  13.612  39.106  0.00  0.00    +0.000 A 
ATOM      5  C   UNL     1      21.242  14.812  39.883  0.00  0.00    +0.000 C 
ATOM      6  C   UNL     1      23.015  13.529  38.739  0.00  0.00    +0.000 A 
ATOM      7  C   UNL     1      23.446  12.432  38.024  0.00  0.00    +0.000 A 
ATOM      8  C   UNL     1      24.883  12.313  37.609  0.00  0.00    +0.000 C 
ATOM      9  C   UNL     1      22.525  11.446  37.700  0.00  0.00    +0.000 A 
ENDROOT
BRANCH   1  16
ATOM     10  C   UNL     1      18.564   9.821  39.172  0.00  0.00    +0.000 A 
ATOM     11  C   UNL     1      17.246   9.719  39.559  0.00  0.00    +0.000 A 
ATOM     12  C   UNL     1      16.261  10.272  38.779  0.00  0.00    +0.000 A 
ATOM     13  C   UNL     1      16.628  10.914  37.623  0.00  0.00    +0.000 A 
ATOM     14  C   UNL     1      15.552  11.507  36.786  0.00  0.00    +0.000 C 
ATOM     15  C   UNL     1      17.965  11.012  37.237  0.00  0.00    +0.000 A 
ATOM     16  C   UNL     1      18.961  10.460  38.016  0.00  0.00    +0.000 A 
BRANCH  10  18
ATOM     17  C   UNL     1      19.696   9.619  41.335  0.00  0.00    +0.000 C 
ATOM     18  O   UNL     1      19.548   9.243  39.998  0.00  0.00    +0.000 OA
ENDBRANCH  10  18
ENDBRANCH   1  16
BRANCH   9  19
ATOM     19  C   UNL     1      22.998  10.289  36.941  0.00  0.00    +0.000 C 
ATOM     20  N   UNL     1      23.480   9.125  37.593  0.00  0.00    +0.000 NA
ATOM     21  O   UNL     1      22.995  10.279  35.684  0.00  0.00    +0.000 OA
ENDBRANCH   9  19
TORSDOF 3
ENDMDL
MODEL 10
REMARK VINA RESULT:      -5.4     19.826     23.352
REMARK  Name = 
REMARK  3 active torsions:
REMARK  status: ('A' for Active; 'I' for Inactive)
REMARK    1  A    between atoms: O_2  and  C_3
REMARK    2  A    between atoms: C_9  and  N_10
REMARK    3  A    between atoms: C_18  and  C_19
REMARK                            x       y       z     vdW  Elec       q    Type
REMARK                         _______ _______ _______ _____ _____    ______ ____
ROOT
ATOM      1  N   UNL     1      26.834  24.136  26.187  0.00  0.00    +0.000 NA
ATOM      2  C   UNL     1      28.113  24.034  25.586  0.00  0.00    +0.000 A 
ATOM      3  N   UNL     1      29.243  23.846  26.261  0.00  0.00    +0.000 NA
ATOM      4  C   UNL     1      30.435  23.757  25.630  0.00  0.00    +0.000 A 
ATOM      5  C   UNL     1      31.700  23.546  26.407  0.00  0.00    +0.000 C 
ATOM      6  C   UNL     1      30.520  23.858  24.260  0.00  0.00    +0.000 A 
ATOM      7  C   UNL     1      29.367  24.053  23.529  0.00  0.00    +0.000 A 
ATOM      8  C   UNL     1      29.426  24.167  22.034  0.00  0.00    +0.000 C 
ATOM      9  C   UNL     1      28.159  24.140  24.205  0.00  0.00    +0.000 A 
ENDROOT
BRANCH   1  16
ATOM     10  C   UNL     1      26.302  25.209  28.263  0.00  0.00    +0.000 A 
ATOM     11  C   UNL     1      26.057  25.231  29.618  0.00  0.00    +0.000 A 
ATOM     12  C   UNL     1      26.101  24.065  30.340  0.00  0.00    +0.000 A 
ATOM     13  C   UNL     1      26.393  22.899  29.677  0.00  0.00    +0.000 A 
ATOM     14  C   UNL     1      26.439  21.641  30.469  0.00  0.00    +0.000 C 
ATOM     15  C   UNL     1      26.641  22.884  28.304  0.00  0.00    +0.000 A 
ATOM     16  C   UNL     1      26.599  24.052  27.572  0.00  0.00    +0.000 A 
BRANCH  10  18
ATOM     17  C   UNL     1      25.665  27.568  28.106  0.00  0.00    +0.000 C 
ATOM     18  O   UNL     1      26.248  26.425  27.555  0.00  0.00    +0.000 OA
ENDBRANCH  10  18
ENDBRANCH   1  16
BRANCH   9  19
ATOM     19  C   UNL     1      26.945  24.347  23.416  0.00  0.00    +0.000 C 
ATOM     20  N   UNL     1      26.189  23.253  22.922  0.00  0.00    +0.000 NA
ATOM     21  O   UNL     1      26.523  25.500  23.146  0.00  0.00    +0.000 OA
ENDBRANCH   9  19
TORSDOF 3
ENDMDL
