MODEL 1
REMARK VINA RESULT:      -6.2      0.000      0.000
REMARK  Name = 
REMARK  4 active torsions:
REMARK  status: ('A' for Active; 'I' for Inactive)
REMARK    1  A    between atoms: C_2  and  C_3
REMARK    2  A    between atoms: C_3  and  C_5
REMARK    3  A    between atoms: C_8  and  C_9
REMARK    4  A    between atoms: C_15  and  C_16
REMARK                            x       y       z     vdW  Elec       q    Type
REMARK                         _______ _______ _______ _____ _____    ______ ____
ROOT
ATOM      1  C   UNL     1      32.613  24.731  25.203  0.00  0.00    +0.000 A 
ATOM      2  C   UNL     1      31.649  25.670  25.255  0.00  0.00    +0.000 A 
ATOM      3  C   UNL     1      30.353  25.355  24.904  0.00  0.00    +0.000 A 
ATOM      4  C   UNL     1      30.062  24.078  24.505  0.00  0.00    +0.000 A 
ATOM      5  C   UNL     1      31.042  23.097  24.442  0.00  0.00    +0.000 A 
ATOM      6  C   UNL     1      32.336  23.451  24.803  0.00  0.00    +0.000 A 
ENDROOT
BRANCH   4   7
ATOM      7  C   UNL     1      28.649  23.774  24.163  0.00  0.00    +0.000 A 
ATOM      8  C   UNL     1      27.801  23.393  25.168  0.00  0.00    +0.000 A 
ATOM      9  C   UNL     1      28.065  23.222  26.641  0.00  0.00    +0.000 C 
ATOM     10  S   UNL     1      26.334  23.140  24.355  0.00  0.00    +0.000 S 
ATOM     11  C   UNL     1      26.821  23.521  22.765  0.00  0.00    +0.000 A 
ATOM     12  N   UNL     1      26.057  23.515  21.539  0.00  0.00    +0.000 NA
ATOM     13  C   UNL     1      28.145  23.840  22.920  0.00  0.00    +0.000 A 
BRANCH  13  14
ATOM     14  C   UNL     1      28.952  24.226  21.756  0.00  0.00    +0.000 C 
ATOM     15  N   UNL     1      29.596  24.537  20.819  0.00  0.00    +0.000 NA
ENDBRANCH  13  14
ENDBRANCH   4   7
BRANCH   1  16
ATOM     16  C   UNL     1      34.106  25.053  25.608  0.00  0.00    +0.000 C 
ATOM     17  C   UNL     1      34.197  26.526  24.903  0.00  0.00    +0.000 C 
BRANCH  16  19
ATOM     18  C   UNL     1      36.126  24.837  24.079  0.00  0.00    +0.000 C 
ATOM     19  C   UNL     1      34.787  24.259  24.326  0.00  0.00    +0.000 C 
ENDBRANCH  16  19
ENDBRANCH   1  16
TORSDOF 4
ENDMDL
MODEL 2
REMARK VINA RESULT:      -5.5     21.537     23.184
REMARK  Name = 
REMARK  4 active torsions:
REMARK  status: ('A' for Active; 'I' for Inactive)
REMARK    1  A    between atoms: C_2  and  C_3
REMARK    2  A    between atoms: C_3  and  C_5
REMARK    3  A    between atoms: C_8  and  C_9
REMARK    4  A    between atoms: C_15  and  C_16
REMARK                            x       y       z     vdW  Elec       q    Type
REMARK                         _______ _______ _______ _____ _____    ______ ____
ROOT
ATOM      1  C   UNL     1      16.874  11.283  34.658  0.00  0.00    +0.000 A 
ATOM      2  C   UNL     1      17.094  12.141  35.672  0.00  0.00    +0.000 A 
ATOM      3  C   UNL     1      17.637  11.690  36.858  0.00  0.00    +0.000 A 
ATOM      4  C   UNL     1      17.949  10.363  36.986  0.00  0.00    +0.000 A 
ATOM      5  C   UNL     1      17.728   9.463  35.953  0.00  0.00    +0.000 A 
ATOM      6  C   UNL     1      17.179   9.953  34.774  0.00  0.00    +0.000 A 
ENDROOT
BRANCH   4   7
ATOM      7  C   UNL     1      18.559   9.926  38.268  0.00  0.00    +0.000 A 
ATOM      8  C   UNL     1      17.745   9.760  39.356  0.00  0.00    +0.000 A 
ATOM      9  C   UNL     1      16.257   9.951  39.486  0.00  0.00    +0.000 C 
ATOM     10  S   UNL     1      18.826   9.281  40.573  0.00  0.00    +0.000 S 
ATOM     11  C   UNL     1      20.282   9.300  39.683  0.00  0.00    +0.000 A 
ATOM     12  N   UNL     1      21.628   8.992  40.107  0.00  0.00    +0.000 NA
ATOM     13  C   UNL     1      19.870   9.689  38.434  0.00  0.00    +0.000 A 
BRANCH  13  14
ATOM     14  C   UNL     1      20.848   9.841  37.349  0.00  0.00    +0.000 C 
ATOM     15  N   UNL     1      21.632   9.957  36.477  0.00  0.00    +0.000 NA
ENDBRANCH  13  14
ENDBRANCH   4   7
BRANCH   1  16
ATOM     16  C   UNL     1      16.263  11.765  33.282  0.00  0.00    +0.000 C 
ATOM     17  C   UNL     1      14.831  12.294  33.869  0.00  0.00    +0.000 C 
BRANCH  16  19
ATOM     18  C   UNL     1      14.567  10.480  31.892  0.00  0.00    +0.000 C 
ATOM     19  C   UNL     1      15.678  10.280  32.847  0.00  0.00    +0.000 C 
ENDBRANCH  16  19
ENDBRANCH   1  16
TORSDOF 4
ENDMDL
MODEL 3
REMARK VINA RESULT:      -5.5      1.728      2.561
REMARK  Name = 
REMARK  4 active torsions:
REMARK  status: ('A' for Active; 'I' for Inactive)
REMARK    1  A    between atoms: C_2  and  C_3
REMARK    2  A    between atoms: C_3  and  C_5
REMARK    3  A    between atoms: C_8  and  C_9
REMARK    4  A    between atoms: C_15  and  C_16
REMARK                            x       y       z     vdW  Elec       q    Type
REMARK                         _______ _______ _______ _____ _____    ______ ____
ROOT
ATOM      1  C   UNL     1      32.836  24.851  25.023  0.00  0.00    +0.000 A 
ATOM      2  C   UNL     1      31.930  25.844  24.940  0.00  0.00    +0.000 A 
ATOM      3  C   UNL     1      30.649  25.580  24.501  0.00  0.00    +0.000 A 
ATOM      4  C   UNL     1      30.315  24.300  24.153  0.00  0.00    +0.000 A 
ATOM      5  C   UNL     1      31.235  23.263  24.229  0.00  0.00    +0.000 A 
ATOM      6  C   UNL     1      32.515  23.567  24.675  0.00  0.00    +0.000 A 
ENDROOT
BRANCH   4   7
ATOM      7  C   UNL     1      28.917  24.054  23.713  0.00  0.00    +0.000 A 
ATOM      8  C   UNL     1      28.570  24.376  22.429  0.00  0.00    +0.000 A 
ATOM      9  C   UNL     1      29.405  24.964  21.322  0.00  0.00    +0.000 C 
ATOM     10  S   UNL     1      26.928  23.956  22.360  0.00  0.00    +0.000 S 
ATOM     11  C   UNL     1      26.714  23.383  23.953  0.00  0.00    +0.000 A 
ATOM     12  N   UNL     1      25.531  22.859  24.595  0.00  0.00    +0.000 NA
ATOM     13  C   UNL     1      27.960  23.542  24.503  0.00  0.00    +0.000 A 
BRANCH  13  14
ATOM     14  C   UNL     1      28.202  23.166  25.902  0.00  0.00    +0.000 C 
ATOM     15  N   UNL     1      28.392  22.861  27.024  0.00  0.00    +0.000 NA
ENDBRANCH  13  14
ENDBRANCH   4   7
BRANCH   1  16
ATOM     16  C   UNL     1      34.310  25.114  25.532  0.00  0.00    +0.000 C 
ATOM     17  C   UNL     1      34.474  26.620  24.915  0.00  0.00    +0.000 C 
BRANCH  16  19
ATOM     18  C   UNL     1      36.400  24.952  24.094  0.00  0.00    +0.000 C 
ATOM     19  C   UNL     1      35.048  24.373  24.250  0.00  0.00    +0.000 C 
ENDBRANCH  16  19
ENDBRANCH   1  16
TORSDOF 4
ENDMDL
MODEL 4
REMARK VINA RESULT:      -5.3     21.979     23.686
REMARK  Name = 
REMARK  4 active torsions:
REMARK  status: ('A' for Active; 'I' for Inactive)
REMARK    1  A    between atoms: C_2  and  C_3
REMARK    2  A    between atoms: C_3  and  C_5
REMARK    3  A    between atoms: C_8  and  C_9
REMARK    4  A    between atoms: C_15  and  C_16
REMARK                            x       y       z     vdW  Elec       q    Type
REMARK                         _______ _______ _______ _____ _____    ______ ____
ROOT
ATOM      1  C   UNL     1      16.937  11.455  35.570  0.00  0.00    +0.000 A 
ATOM      2  C   UNL     1      17.416  12.240  36.553  0.00  0.00    +0.000 A 
ATOM      3  C   UNL     1      18.177  11.695  37.567  0.00  0.00    +0.000 A 
ATOM      4  C   UNL     1      18.437  10.351  37.557  0.00  0.00    +0.000 A 
ATOM      5  C   UNL     1      17.950   9.526  36.553  0.00  0.00    +0.000 A 
ATOM      6  C   UNL     1      17.187  10.109  35.549  0.00  0.00    +0.000 A 
ENDROOT
BRANCH   4   7
ATOM      7  C   UNL     1      19.285   9.812  38.651  0.00  0.00    +0.000 A 
ATOM      8  C   UNL     1      20.631   9.693  38.437  0.00  0.00    +0.000 A 
ATOM      9  C   UNL     1      21.449  10.036  37.220  0.00  0.00    +0.000 C 
ATOM     10  S   UNL     1      21.196   9.042  39.898  0.00  0.00    +0.000 S 
ATOM     11  C   UNL     1      19.720   8.934  40.749  0.00  0.00    +0.000 A 
ATOM     12  N   UNL     1      19.458   8.454  42.086  0.00  0.00    +0.000 NA
ATOM     13  C   UNL     1      18.811   9.420  39.845  0.00  0.00    +0.000 A 
BRANCH  13  14
ATOM     14  C   UNL     1      17.387   9.487  40.194  0.00  0.00    +0.000 C 
ATOM     15  N   UNL     1      16.242   9.542  40.471  0.00  0.00    +0.000 NA
ENDBRANCH  13  14
ENDBRANCH   4   7
BRANCH   1  16
ATOM     16  C   UNL     1      16.070  12.045  34.387  0.00  0.00    +0.000 C 
ATOM     17  C   UNL     1      14.609  11.888  35.105  0.00  0.00    +0.000 C 
BRANCH  16  19
ATOM     18  C   UNL     1      16.057  10.915  32.110  0.00  0.00    +0.000 C 
ATOM     19  C   UNL     1      15.955  10.620  33.556  0.00  0.00    +0.000 C 
ENDBRANCH  16  19
ENDBRANCH   1  16
TORSDOF 4
ENDMDL
MODEL 5
REMARK VINA RESULT:      -5.2     19.580     22.312
REMARK  Name = 
REMARK  4 active torsions:
REMARK  status: ('A' for Active; 'I' for Inactive)
REMARK    1  A    between atoms: C_2  and  C_3
REMARK    2  A    between atoms: C_3  and  C_5
REMARK    3  A    between atoms: C_8  and  C_9
REMARK    4  A    between atoms: C_15  and  C_16
REMARK                            x       y       z     vdW  Elec       q    Type
REMARK                         _______ _______ _______ _____ _____    ______ ____
ROOT
ATOM      1  C   UNL     1      21.840  10.608  36.994  0.00  0.00    +0.000 A 
ATOM      2  C   UNL     1      20.984   9.665  36.558  0.00  0.00    +0.000 A 
ATOM      3  C   UNL     1      19.715   9.578  37.094  0.00  0.00    +0.000 A 
ATOM      4  C   UNL     1      19.342  10.463  38.069  0.00  0.00    +0.000 A 
ATOM      5  C   UNL     1      20.211  11.441  38.533  0.00  0.00    +0.000 A 
ATOM      6  C   UNL     1      21.480  11.497  37.970  0.00  0.00    +0.000 A 
ENDROOT
BRANCH   4   7
ATOM      7  C   UNL     1      17.958  10.353  38.597  0.00  0.00    +0.000 A 
ATOM      8  C   UNL     1      17.754   9.655  39.757  0.00  0.00    +0.000 A 
ATOM      9  C   UNL     1      18.743   8.943  40.642  0.00  0.00    +0.000 C 
ATOM     10  S   UNL     1      16.076   9.768  39.982  0.00  0.00    +0.000 S 
ATOM     11  C   UNL     1      15.667  10.694  38.608  0.00  0.00    +0.000 A 
ATOM     12  N   UNL     1      14.377  11.167  38.164  0.00  0.00    +0.000 NA
ATOM     13  C   UNL     1      16.881  10.890  38.001  0.00  0.00    +0.000 A 
BRANCH  13  14
ATOM     14  C   UNL     1      16.965  11.652  36.749  0.00  0.00    +0.000 C 
ATOM     15  N   UNL     1      17.035  12.267  35.746  0.00  0.00    +0.000 NA
ENDBRANCH  13  14
ENDBRANCH   4   7
BRANCH   1  16
ATOM     16  C   UNL     1      23.297  10.744  36.396  0.00  0.00    +0.000 C 
ATOM     17  C   UNL     1      23.706   9.164  36.493  0.00  0.00    +0.000 C 
BRANCH  16  19
ATOM     18  C   UNL     1      24.917  12.294  37.595  0.00  0.00    +0.000 C 
ATOM     19  C   UNL     1      24.014  11.147  37.832  0.00  0.00    +0.000 C 
ENDBRANCH  16  19
ENDBRANCH   1  16
TORSDOF 4
ENDMDL
MODEL 6
REMARK VINA RESULT:      -5.1     15.879     19.401
REMARK  Name = 
REMARK  4 active torsions:
REMARK  status: ('A' for Active; 'I' for Inactive)
REMARK    1  A    between atoms: C_2  and  C_3
REMARK    2  A    between atoms: C_3  and  C_5
REMARK    3  A    between atoms: C_8  and  C_9
REMARK    4  A    between atoms: C_15  and  C_16
REMARK                            x       y       z     vdW  Elec       q    Type
REMARK                         _______ _______ _______ _____ _____    ______ ____
ROOT
ATOM      1  C   UNL     1      10.973  21.018  21.326  0.00  0.00    +0.000 A 
ATOM      2  C   UNL     1      10.624  21.947  22.236  0.00  0.00    +0.000 A 
ATOM      3  C   UNL     1      11.261  23.171  22.256  0.00  0.00    +0.000 A 
ATOM      4  C   UNL     1      12.246  23.426  21.341  0.00  0.00    +0.000 A 
ATOM      5  C   UNL     1      12.621  22.480  20.396  0.00  0.00    +0.000 A 
ATOM      6  C   UNL     1      11.958  21.258  20.407  0.00  0.00    +0.000 A 
ENDROOT
BRANCH   4   7
ATOM      7  C   UNL     1      12.884  24.766  21.379  0.00  0.00    +0.000 A 
ATOM      8  C   UNL     1      12.129  25.859  21.048  0.00  0.00    +0.000 A 
ATOM      9  C   UNL     1      10.685  25.945  20.631  0.00  0.00    +0.000 C 
ATOM     10  S   UNL     1      13.225  27.144  21.210  0.00  0.00    +0.000 S 
ATOM     11  C   UNL     1      14.613  26.275  21.693  0.00  0.00    +0.000 A 
ATOM     12  N   UNL     1      15.939  26.753  22.006  0.00  0.00    +0.000 NA
ATOM     13  C   UNL     1      14.167  24.978  21.712  0.00  0.00    +0.000 A 
BRANCH  13  14
ATOM     14  C   UNL     1      15.083  23.890  22.078  0.00  0.00    +0.000 C 
ATOM     15  N   UNL     1      15.818  23.015  22.366  0.00  0.00    +0.000 NA
ENDBRANCH  13  14
ENDBRANCH   4   7
BRANCH   1  16
ATOM     16  C   UNL     1      10.259  19.608  21.266  0.00  0.00    +0.000 C 
ATOM     17  C   UNL     1      10.637  19.254  19.715  0.00  0.00    +0.000 C 
BRANCH  16  19
ATOM     18  C   UNL     1       8.522  19.998  19.452  0.00  0.00    +0.000 C 
ATOM     19  C   UNL     1       8.764  20.210  20.895  0.00  0.00    +0.000 C 
ENDBRANCH  16  19
ENDBRANCH   1  16
TORSDOF 4
ENDMDL
MODEL 7
REMARK VINA RESULT:      -5.1     20.449     21.946
REMARK  Name = 
REMARK  4 active torsions:
REMARK  status: ('A' for Active; 'I' for Inactive)
REMARK    1  A    between atoms: C_2  and  C_3
REMARK    2  A    between atoms: C_3  and  C_5
REMARK    3  A    between atoms: C_8  and  C_9
REMARK    4  A    between atoms: C_15  and  C_16
REMARK                            x       y       z     vdW  Elec       q    Type
REMARK                         _______ _______ _______ _____ _____    ______ ____
ROOT
ATOM      1  C   UNL     1      34.269   6.262  35.848  0.00  0.00    +0.000 A 
ATOM      2  C   UNL     1      33.962   7.177  36.786  0.00  0.00    +0.000 A 
ATOM      3  C   UNL     1      34.786   8.265  36.991  0.00  0.00    +0.000 A 
ATOM      4  C   UNL     1      35.915   8.398  36.229  0.00  0.00    +0.000 A 
ATOM      5  C   UNL     1      36.250   7.464  35.259  0.00  0.00    +0.000 A 
ATOM      6  C   UNL     1      35.397   6.382  35.081  0.00  0.00    +0.000 A 
ENDROOT
BRANCH   4   7
ATOM      7  C   UNL     1      36.759   9.598  36.463  0.00  0.00    +0.000 A 
ATOM      8  C   UNL     1      36.487  10.737  35.755  0.00  0.00    +0.000 A 
ATOM      9  C   UNL     1      35.420  11.001  34.725  0.00  0.00    +0.000 C 
ATOM     10  S   UNL     1      37.666  11.824  36.308  0.00  0.00    +0.000 S 
ATOM     11  C   UNL     1      38.478  10.818  37.423  0.00  0.00    +0.000 A 
ATOM     12  N   UNL     1      39.611  11.105  38.270  0.00  0.00    +0.000 NA
ATOM     13  C   UNL     1      37.788   9.637  37.326  0.00  0.00    +0.000 A 
BRANCH  13  14
ATOM     14  C   UNL     1      38.188   8.480  38.137  0.00  0.00    +0.000 C 
ATOM     15  N   UNL     1      38.510   7.549  38.784  0.00  0.00    +0.000 NA
ENDBRANCH  13  14
ENDBRANCH   4   7
BRANCH   1  16
ATOM     16  C   UNL     1      33.343   5.010  35.577  0.00  0.00    +0.000 C 
ATOM     17  C   UNL     1      34.080   3.983  36.616  0.00  0.00    +0.000 C 
BRANCH  16  19
ATOM     18  C   UNL     1      33.306   3.589  33.469  0.00  0.00    +0.000 C 
ATOM     19  C   UNL     1      34.187   4.478  34.257  0.00  0.00    +0.000 C 
ENDBRANCH  16  19
ENDBRANCH   1  16
TORSDOF 4
ENDMDL
MODEL 8
REMARK VINA RESULT:      -5.1      3.636      4.504
REMARK  Name = 
REMARK  4 active torsions:
REMARK  status: ('A' for Active; 'I' for Inactive)
REMARK    1  A    between atoms: C_2  and  C_3
REMARK    2  A    between atoms: C_3  and  C_5
REMARK    3  A    between atoms: C_8  and  C_9
REMARK    4  A    between atoms: C_15  and  C_16
REMARK                            x       y       z     vdW  Elec       q    Type
REMARK                         _______ _______ _______ _____ _____    ______ ____
ROOT
ATOM      1  C   UNL     1      31.762  22.856  29.440  0.00  0.00    +0.000 A 
ATOM      2  C   UNL     1      30.971  23.936  29.300  0.00  0.00    +0.000 A 
ATOM      3  C   UNL     1      30.028  23.981  28.294  0.00  0.00    +0.000 A 
ATOM      4  C   UNL     1      29.910  22.914  27.444  0.00  0.00    +0.000 A 
ATOM      5  C   UNL     1      30.717  21.792  27.570  0.00  0.00    +0.000 A 
ATOM      6  C   UNL     1      31.656  21.783  28.595  0.00  0.00    +0.000 A 
ENDROOT
BRANCH   4   7
ATOM      7  C   UNL     1      28.863  22.992  26.393  0.00  0.00    +0.000 A 
ATOM      8  C   UNL     1      27.549  22.948  26.775  0.00  0.00    +0.000 A 
ATOM      9  C   UNL     1      26.947  22.832  28.150  0.00  0.00    +0.000 C 
ATOM     10  S   UNL     1      26.718  23.050  25.299  0.00  0.00    +0.000 S 
ATOM     11  C   UNL     1      28.046  23.146  24.232  0.00  0.00    +0.000 A 
ATOM     12  N   UNL     1      28.068  23.253  22.792  0.00  0.00    +0.000 NA
ATOM     13  C   UNL     1      29.122  23.093  25.080  0.00  0.00    +0.000 A 
BRANCH  13  14
ATOM     14  C   UNL     1      30.488  23.140  24.542  0.00  0.00    +0.000 C 
ATOM     15  N   UNL     1      31.584  23.172  24.109  0.00  0.00    +0.000 NA
ENDBRANCH  13  14
ENDBRANCH   4   7
BRANCH   1  16
ATOM     16  C   UNL     1      32.846  22.765  30.587  0.00  0.00    +0.000 C 
ATOM     17  C   UNL     1      34.070  22.192  29.667  0.00  0.00    +0.000 C 
BRANCH  16  19
ATOM     18  C   UNL     1      31.393  21.448  32.205  0.00  0.00    +0.000 C 
ATOM     19  C   UNL     1      32.380  21.269  31.119  0.00  0.00    +0.000 C 
ENDBRANCH  16  19
ENDBRANCH   1  16
TORSDOF 4
ENDMDL
MODEL 9
REMARK VINA RESULT:      -5.0     23.427     26.391
REMARK  Name = 
REMARK  4 active torsions:
REMARK  status: ('A' for Active; 'I' for Inactive)
REMARK    1  A    between atoms: C_2  and  C_3
REMARK    2  A    between atoms: C_3  and  C_5
REMARK    3  A    between atoms: C_8  and  C_9
REMARK    4  A    between atoms: C_15  and  C_16
REMARK                            x       y       z     vdW  Elec       q    Type
REMARK                         _______ _______ _______ _____ _____    ______ ____
ROOT
ATOM      1  C   UNL     1      18.651  10.382  39.180  0.00  0.00    +0.000 A 
ATOM      2  C   UNL     1      17.383   9.929  39.178  0.00  0.00    +0.000 A 
ATOM      3  C   UNL     1      16.910   9.185  40.239  0.00  0.00    +0.000 A 
ATOM      4  C   UNL     1      17.746   8.916  41.289  0.00  0.00    +0.000 A 
ATOM      5  C   UNL     1      19.057   9.372  41.309  0.00  0.00    +0.000 A 
ATOM      6  C   UNL     1      19.498  10.118  40.222  0.00  0.00    +0.000 A 
ENDROOT
BRANCH   4   7
ATOM      7  C   UNL     1      17.188   8.137  42.424  0.00  0.00    +0.000 A 
ATOM      8  C   UNL     1      16.553   8.812  43.431  0.00  0.00    +0.000 A 
ATOM      9  C   UNL     1      16.306  10.288  43.597  0.00  0.00    +0.000 C 
ATOM     10  S   UNL     1      16.096   7.572  44.495  0.00  0.00    +0.000 S 
ATOM     11  C   UNL     1      16.716   6.227  43.646  0.00  0.00    +0.000 A 
ATOM     12  N   UNL     1      16.681   4.824  43.986  0.00  0.00    +0.000 NA
ATOM     13  C   UNL     1      17.274   6.801  42.533  0.00  0.00    +0.000 A 
BRANCH  13  14
ATOM     14  C   UNL     1      17.938   5.964  41.525  0.00  0.00    +0.000 C 
ATOM     15  N   UNL     1      18.474   5.295  40.717  0.00  0.00    +0.000 NA
ENDBRANCH  13  14
ENDBRANCH   4   7
BRANCH   1  16
ATOM     16  C   UNL     1      19.224  11.246  37.987  0.00  0.00    +0.000 C 
ATOM     17  C   UNL     1      17.800  11.524  37.233  0.00  0.00    +0.000 C 
BRANCH  16  19
ATOM     18  C   UNL     1      21.086   9.934  36.858  0.00  0.00    +0.000 C 
ATOM     19  C   UNL     1      19.618   9.951  37.035  0.00  0.00    +0.000 C 
ENDBRANCH  16  19
ENDBRANCH   1  16
TORSDOF 4
ENDMDL
MODEL 10
REMARK VINA RESULT:      -5.0     21.069     22.928
REMARK  Name = 
REMARK  4 active torsions:
REMARK  status: ('A' for Active; 'I' for Inactive)
REMARK    1  A    between atoms: C_2  and  C_3
REMARK    2  A    between atoms: C_3  and  C_5
REMARK    3  A    between atoms: C_8  and  C_9
REMARK    4  A    between atoms: C_15  and  C_16
REMARK                            x       y       z     vdW  Elec       q    Type
REMARK                         _______ _______ _______ _____ _____    ______ ____
ROOT
ATOM      1  C   UNL     1      17.941  11.688  37.224  0.00  0.00    +0.000 A 
ATOM      2  C   UNL     1      18.895  12.356  37.900  0.00  0.00    +0.000 A 
ATOM      3  C   UNL     1      19.950  11.673  38.468  0.00  0.00    +0.000 A 
ATOM      4  C   UNL     1      20.013  10.312  38.334  0.00  0.00    +0.000 A 
ATOM      5  C   UNL     1      19.039   9.605  37.642  0.00  0.00    +0.000 A 
ATOM      6  C   UNL     1      17.990  10.327  37.084  0.00  0.00    +0.000 A 
ENDROOT
BRANCH   4   7
ATOM      7  C   UNL     1      21.181   9.620  38.936  0.00  0.00    +0.000 A 
ATOM      8  C   UNL     1      21.068   9.135  40.211  0.00  0.00    +0.000 A 
ATOM      9  C   UNL     1      19.901   9.181  41.161  0.00  0.00    +0.000 C 
ATOM     10  S   UNL     1      22.595   8.452  40.497  0.00  0.00    +0.000 S 
ATOM     11  C   UNL     1      23.343   8.792  39.001  0.00  0.00    +0.000 A 
ATOM     12  N   UNL     1      24.680   8.487  38.547  0.00  0.00    +0.000 NA
ATOM     13  C   UNL     1      22.356   9.444  38.309  0.00  0.00    +0.000 A 
BRANCH  13  14
ATOM     14  C   UNL     1      22.607   9.926  36.944  0.00  0.00    +0.000 C 
ATOM     15  N   UNL     1      22.805  10.310  35.848  0.00  0.00    +0.000 NA
ENDBRANCH  13  14
ENDBRANCH   4   7
BRANCH   1  16
ATOM     16  C   UNL     1      16.723  12.438  36.551  0.00  0.00    +0.000 C 
ATOM     17  C   UNL     1      15.531  11.596  37.289  0.00  0.00    +0.000 C 
BRANCH  16  19
ATOM     18  C   UNL     1      15.469  11.807  34.432  0.00  0.00    +0.000 C 
ATOM     19  C   UNL     1      16.706  11.506  35.184  0.00  0.00    +0.000 C 
ENDBRANCH  16  19
ENDBRANCH   1  16
TORSDOF 4
ENDMDL
