MODEL 1
REMARK VINA RESULT:      -7.4      0.000      0.000
REMARK  Name = 
REMARK  3 active torsions:
REMARK  status: ('A' for Active; 'I' for Inactive)
REMARK    1  A    between atoms: N_10  and  C_11
REMARK    2  A    between atoms: C_11  and  N_13
REMARK    3  A    between atoms: N_13  and  C_14
REMARK                            x       y       z     vdW  Elec       q    Type
REMARK                         _______ _______ _______ _____ _____    ______ ____
ROOT
ATOM      1  O   UNL     1      13.594  14.258  34.185  0.00  0.00    +0.000 OA
ATOM      2  C   UNL     1      14.435  13.161  33.602  0.00  0.00    +0.000 C 
ATOM      3  C   UNL     1      15.366  12.265  34.363  0.00  0.00    +0.000 C 
ATOM      4  C   UNL     1      14.827  12.576  32.999  0.00  0.00    +0.000 C 
ATOM      5  C   UNL     1      13.896  13.473  32.237  0.00  0.00    +0.000 C 
ATOM      6  C   UNL     1      13.954  13.080  30.791  0.00  0.00    +0.000 C 
ATOM      7  C   UNL     1      14.921  11.940  30.658  0.00  0.00    +0.000 C 
ATOM      8  C   UNL     1      15.460  11.629  32.023  0.00  0.00    +0.000 C 
ATOM      9  C   UNL     1      16.390  10.733  32.784  0.00  0.00    +0.000 C 
ATOM     10  N   UNL     1      16.333  11.125  34.231  0.00  0.00    +0.000 N 
ENDROOT
BRANCH  10  11
ATOM     11  C   UNL     1      17.105  10.490  35.349  0.00  0.00    +0.000 C 
ATOM     12  S   UNL     1      17.714   9.132  35.162  0.00  0.00    +0.000 S 
BRANCH  11  13
ATOM     13  N   UNL     1      17.270  11.213  36.652  0.00  0.00    +0.000 NA
BRANCH  13  14
ATOM     14  C   UNL     1      16.489  10.776  37.856  0.00  0.00    +0.000 A 
ATOM     15  C   UNL     1      17.168  10.013  38.954  0.00  0.00    +0.000 A 
ATOM     16  C   UNL     1      16.387   9.575  40.158  0.00  0.00    +0.000 A 
ATOM     17  C   UNL     1      14.927   9.902  40.263  0.00  0.00    +0.000 A 
ATOM     18  C   UNL     1      14.248  10.665  39.166  0.00  0.00    +0.000 A 
ATOM     19  C   UNL     1      15.029  11.103  37.962  0.00  0.00    +0.000 A 
ENDBRANCH  13  14
ENDBRANCH  11  13
ENDBRANCH  10  11
TORSDOF 3
ENDMDL
MODEL 2
REMARK VINA RESULT:      -6.9      2.417      3.300
REMARK  Name = 
REMARK  3 active torsions:
REMARK  status: ('A' for Active; 'I' for Inactive)
REMARK    1  A    between atoms: N_10  and  C_11
REMARK    2  A    between atoms: C_11  and  N_13
REMARK    3  A    between atoms: N_13  and  C_14
REMARK                            x       y       z     vdW  Elec       q    Type
REMARK                         _______ _______ _______ _____ _____    ______ ____
ROOT
ATOM      1  O   UNL     1      13.524  14.059  33.811  0.00  0.00    +0.000 OA
ATOM      2  C   UNL     1      14.494  12.919  33.711  0.00  0.00    +0.000 C 
ATOM      3  C   UNL     1      15.116  12.187  34.863  0.00  0.00    +0.000 C 
ATOM      4  C   UNL     1      15.051  12.263  33.367  0.00  0.00    +0.000 C 
ATOM      5  C   UNL     1      14.429  12.994  32.214  0.00  0.00    +0.000 C 
ATOM      6  C   UNL     1      14.946  12.385  30.945  0.00  0.00    +0.000 C 
ATOM      7  C   UNL     1      15.888  11.278  31.312  0.00  0.00    +0.000 C 
ATOM      8  C   UNL     1      15.953  11.202  32.809  0.00  0.00    +0.000 C 
ATOM      9  C   UNL     1      16.576  10.470  33.961  0.00  0.00    +0.000 C 
ATOM     10  N   UNL     1      16.059  11.079  35.231  0.00  0.00    +0.000 N 
ENDROOT
BRANCH  10  11
ATOM     11  C   UNL     1      16.420  10.655  36.623  0.00  0.00    +0.000 C 
ATOM     12  S   UNL     1      15.571  11.086  37.782  0.00  0.00    +0.000 S 
BRANCH  11  13
ATOM     13  N   UNL     1      17.630   9.801  36.856  0.00  0.00    +0.000 NA
BRANCH  13  14
ATOM     14  C   UNL     1      18.937  10.437  37.230  0.00  0.00    +0.000 A 
ATOM     15  C   UNL     1      18.951  11.749  37.956  0.00  0.00    +0.000 A 
ATOM     16  C   UNL     1      20.257  12.385  38.331  0.00  0.00    +0.000 A 
ATOM     17  C   UNL     1      21.549  11.708  37.979  0.00  0.00    +0.000 A 
ATOM     18  C   UNL     1      21.534  10.396  37.253  0.00  0.00    +0.000 A 
ATOM     19  C   UNL     1      20.227   9.760  36.879  0.00  0.00    +0.000 A 
ENDBRANCH  13  14
ENDBRANCH  11  13
ENDBRANCH  10  11
TORSDOF 3
ENDMDL
MODEL 3
REMARK VINA RESULT:      -6.2      4.101      5.616
REMARK  Name = 
REMARK  3 active torsions:
REMARK  status: ('A' for Active; 'I' for Inactive)
REMARK    1  A    between atoms: N_10  and  C_11
REMARK    2  A    between atoms: C_11  and  N_13
REMARK    3  A    between atoms: N_13  and  C_14
REMARK                            x       y       z     vdW  Elec       q    Type
REMARK                         _______ _______ _______ _____ _____    ______ ____
ROOT
ATOM      1  O   UNL     1      15.061  12.579  36.834  0.00  0.00    +0.000 OA
ATOM      2  C   UNL     1      16.156  11.695  36.316  0.00  0.00    +0.000 C 
ATOM      3  C   UNL     1      17.355  11.232  37.089  0.00  0.00    +0.000 C 
ATOM      4  C   UNL     1      16.669  11.162  35.758  0.00  0.00    +0.000 C 
ATOM      5  C   UNL     1      15.470  11.625  34.984  0.00  0.00    +0.000 C 
ATOM      6  C   UNL     1      15.558  11.048  33.602  0.00  0.00    +0.000 C 
ATOM      7  C   UNL     1      16.812  10.229  33.521  0.00  0.00    +0.000 C 
ATOM      8  C   UNL     1      17.499  10.299  34.853  0.00  0.00    +0.000 C 
ATOM      9  C   UNL     1      18.697   9.836  35.626  0.00  0.00    +0.000 C 
ATOM     10  N   UNL     1      18.609  10.412  37.008  0.00  0.00    +0.000 N 
ENDROOT
BRANCH  10  11
ATOM     11  C   UNL     1      19.600  10.206  38.115  0.00  0.00    +0.000 C 
ATOM     12  S   UNL     1      19.480   9.012  39.015  0.00  0.00    +0.000 S 
BRANCH  11  13
ATOM     13  N   UNL     1      20.710  11.192  38.321  0.00  0.00    +0.000 NA
BRANCH  13  14
ATOM     14  C   UNL     1      22.025  10.999  37.624  0.00  0.00    +0.000 A 
ATOM     15  C   UNL     1      22.174   9.922  36.590  0.00  0.00    +0.000 A 
ATOM     16  C   UNL     1      23.489   9.729  35.893  0.00  0.00    +0.000 A 
ATOM     17  C   UNL     1      24.653  10.612  36.231  0.00  0.00    +0.000 A 
ATOM     18  C   UNL     1      24.504  11.688  37.265  0.00  0.00    +0.000 A 
ATOM     19  C   UNL     1      23.189  11.882  37.962  0.00  0.00    +0.000 A 
ENDBRANCH  13  14
ENDBRANCH  11  13
ENDBRANCH  10  11
TORSDOF 3
ENDMDL
MODEL 4
REMARK VINA RESULT:      -6.1      2.538      3.631
REMARK  Name = 
REMARK  3 active torsions:
REMARK  status: ('A' for Active; 'I' for Inactive)
REMARK    1  A    between atoms: N_10  and  C_11
REMARK    2  A    between atoms: C_11  and  N_13
REMARK    3  A    between atoms: N_13  and  C_14
REMARK                            x       y       z     vdW  Elec       q    Type
REMARK                         _______ _______ _______ _____ _____    ______ ____
ROOT
ATOM      1  O   UNL     1      15.453  12.951  36.256  0.00  0.00    +0.000 OA
ATOM      2  C   UNL     1      16.463  11.881  35.961  0.00  0.00    +0.000 C 
ATOM      3  C   UNL     1      17.517  11.381  36.902  0.00  0.00    +0.000 C 
ATOM      4  C   UNL     1      16.947  11.223  35.524  0.00  0.00    +0.000 C 
ATOM      5  C   UNL     1      15.892  11.723  34.582  0.00  0.00    +0.000 C 
ATOM      6  C   UNL     1      16.024  10.967  33.294  0.00  0.00    +0.000 C 
ATOM      7  C   UNL     1      17.161   9.999  33.439  0.00  0.00    +0.000 C 
ATOM      8  C   UNL     1      17.731  10.157  34.817  0.00  0.00    +0.000 C 
ATOM      9  C   UNL     1      18.786   9.656  35.758  0.00  0.00    +0.000 C 
ATOM     10  N   UNL     1      18.654  10.413  37.047  0.00  0.00    +0.000 N 
ENDROOT
BRANCH  10  11
ATOM     11  C   UNL     1      19.508  10.233  38.267  0.00  0.00    +0.000 C 
ATOM     12  S   UNL     1      20.975   9.954  38.120  0.00  0.00    +0.000 S 
BRANCH  11  13
ATOM     13  N   UNL     1      18.896  10.331  39.632  0.00  0.00    +0.000 NA
BRANCH  13  14
ATOM     14  C   UNL     1      18.098   9.184  40.180  0.00  0.00    +0.000 A 
ATOM     15  C   UNL     1      18.640   7.788  40.102  0.00  0.00    +0.000 A 
ATOM     16  C   UNL     1      17.842   6.642  40.651  0.00  0.00    +0.000 A 
ATOM     17  C   UNL     1      16.502   6.893  41.276  0.00  0.00    +0.000 A 
ATOM     18  C   UNL     1      15.960   8.289  41.354  0.00  0.00    +0.000 A 
ATOM     19  C   UNL     1      16.759   9.435  40.806  0.00  0.00    +0.000 A 
ENDBRANCH  13  14
ENDBRANCH  11  13
ENDBRANCH  10  11
TORSDOF 3
ENDMDL
MODEL 5
REMARK VINA RESULT:      -5.9     20.201     21.703
REMARK  Name = 
REMARK  3 active torsions:
REMARK  status: ('A' for Active; 'I' for Inactive)
REMARK    1  A    between atoms: N_10  and  C_11
REMARK    2  A    between atoms: C_11  and  N_13
REMARK    3  A    between atoms: N_13  and  C_14
REMARK                            x       y       z     vdW  Elec       q    Type
REMARK                         _______ _______ _______ _____ _____    ______ ____
ROOT
ATOM      1  O   UNL     1      33.636   3.247  32.157  0.00  0.00    +0.000 OA
ATOM      2  C   UNL     1      33.756   2.965  33.625  0.00  0.00    +0.000 C 
ATOM      3  C   UNL     1      33.664   1.616  34.273  0.00  0.00    +0.000 C 
ATOM      4  C   UNL     1      33.864   3.078  34.538  0.00  0.00    +0.000 C 
ATOM      5  C   UNL     1      33.956   4.428  33.890  0.00  0.00    +0.000 C 
ATOM      6  C   UNL     1      34.189   5.444  34.968  0.00  0.00    +0.000 C 
ATOM      7  C   UNL     1      34.241   4.723  36.283  0.00  0.00    +0.000 C 
ATOM      8  C   UNL     1      34.041   3.260  36.017  0.00  0.00    +0.000 C 
ATOM      9  C   UNL     1      33.949   1.911  36.665  0.00  0.00    +0.000 C 
ATOM     10  N   UNL     1      33.716   0.894  35.587  0.00  0.00    +0.000 N 
ENDROOT
BRANCH  10  11
ATOM     11  C   UNL     1      33.562  -0.584  35.789  0.00  0.00    +0.000 C 
ATOM     12  S   UNL     1      34.541  -1.330  36.647  0.00  0.00    +0.000 S 
BRANCH  11  13
ATOM     13  N   UNL     1      32.430  -1.316  35.132  0.00  0.00    +0.000 NA
BRANCH  13  14
ATOM     14  C   UNL     1      32.653  -2.686  34.562  0.00  0.00    +0.000 A 
ATOM     15  C   UNL     1      33.463  -2.855  33.311  0.00  0.00    +0.000 A 
ATOM     16  C   UNL     1      33.686  -4.225  32.740  0.00  0.00    +0.000 A 
ATOM     17  C   UNL     1      33.098  -5.425  33.422  0.00  0.00    +0.000 A 
ATOM     18  C   UNL     1      32.289  -5.256  34.673  0.00  0.00    +0.000 A 
ATOM     19  C   UNL     1      32.066  -3.886  35.243  0.00  0.00    +0.000 A 
ENDBRANCH  13  14
ENDBRANCH  11  13
ENDBRANCH  10  11
TORSDOF 3
ENDMDL
MODEL 6
REMARK VINA RESULT:      -5.9     18.750     20.532
REMARK  Name = 
REMARK  3 active torsions:
REMARK  status: ('A' for Active; 'I' for Inactive)
REMARK    1  A    between atoms: N_10  and  C_11
REMARK    2  A    between atoms: C_11  and  N_13
REMARK    3  A    between atoms: N_13  and  C_14
REMARK                            x       y       z     vdW  Elec       q    Type
REMARK                         _______ _______ _______ _____ _____    ______ ____
ROOT
ATOM      1  O   UNL     1      24.680  25.343  28.361  0.00  0.00    +0.000 OA
ATOM      2  C   UNL     1      25.723  24.333  27.981  0.00  0.00    +0.000 C 
ATOM      3  C   UNL     1      26.179  24.019  26.587  0.00  0.00    +0.000 C 
ATOM      4  C   UNL     1      26.373  23.675  28.034  0.00  0.00    +0.000 C 
ATOM      5  C   UNL     1      25.918  23.989  29.428  0.00  0.00    +0.000 C 
ATOM      6  C   UNL     1      26.688  23.117  30.375  0.00  0.00    +0.000 C 
ATOM      7  C   UNL     1      27.620  22.264  29.567  0.00  0.00    +0.000 C 
ATOM      8  C   UNL     1      27.425  22.609  28.119  0.00  0.00    +0.000 C 
ATOM      9  C   UNL     1      27.881  22.294  26.726  0.00  0.00    +0.000 C 
ATOM     10  N   UNL     1      27.110  23.166  25.778  0.00  0.00    +0.000 N 
ENDROOT
BRANCH  10  11
ATOM     11  C   UNL     1      27.248  23.182  24.285  0.00  0.00    +0.000 C 
ATOM     12  S   UNL     1      26.043  23.420  23.424  0.00  0.00    +0.000 S 
BRANCH  11  13
ATOM     13  N   UNL     1      28.589  22.960  23.653  0.00  0.00    +0.000 NA
BRANCH  13  14
ATOM     14  C   UNL     1      29.765  23.790  24.078  0.00  0.00    +0.000 A 
ATOM     15  C   UNL     1      31.050  23.123  24.470  0.00  0.00    +0.000 A 
ATOM     16  C   UNL     1      32.226  23.953  24.895  0.00  0.00    +0.000 A 
ATOM     17  C   UNL     1      32.115  25.449  24.926  0.00  0.00    +0.000 A 
ATOM     18  C   UNL     1      30.831  26.115  24.534  0.00  0.00    +0.000 A 
ATOM     19  C   UNL     1      29.655  25.285  24.110  0.00  0.00    +0.000 A 
ENDBRANCH  13  14
ENDBRANCH  11  13
ENDBRANCH  10  11
TORSDOF 3
ENDMDL
MODEL 7
REMARK VINA RESULT:      -5.8     17.934     19.691
REMARK  Name = 
REMARK  3 active torsions:
REMARK  status: ('A' for Active; 'I' for Inactive)
REMARK    1  A    between atoms: N_10  and  C_11
REMARK    2  A    between atoms: C_11  and  N_13
REMARK    3  A    between atoms: N_13  and  C_14
REMARK                            x       y       z     vdW  Elec       q    Type
REMARK                         _______ _______ _______ _____ _____    ______ ____
ROOT
ATOM      1  O   UNL     1      26.569  23.664  30.896  0.00  0.00    +0.000 OA
ATOM      2  C   UNL     1      25.953  24.245  29.657  0.00  0.00    +0.000 C 
ATOM      3  C   UNL     1      26.163  23.755  28.256  0.00  0.00    +0.000 C 
ATOM      4  C   UNL     1      25.457  24.782  29.089  0.00  0.00    +0.000 C 
ATOM      5  C   UNL     1      25.247  25.273  30.491  0.00  0.00    +0.000 C 
ATOM      6  C   UNL     1      24.314  26.447  30.436  0.00  0.00    +0.000 C 
ATOM      7  C   UNL     1      23.947  26.681  29.001  0.00  0.00    +0.000 C 
ATOM      8  C   UNL     1      24.653  25.653  28.168  0.00  0.00    +0.000 C 
ATOM      9  C   UNL     1      24.863  25.163  26.766  0.00  0.00    +0.000 C 
ATOM     10  N   UNL     1      25.796  23.989  26.820  0.00  0.00    +0.000 N 
ENDROOT
BRANCH  10  11
ATOM     11  C   UNL     1      26.277  23.190  25.645  0.00  0.00    +0.000 C 
ATOM     12  S   UNL     1      25.628  23.365  24.304  0.00  0.00    +0.000 S 
BRANCH  11  13
ATOM     13  N   UNL     1      27.407  22.219  25.812  0.00  0.00    +0.000 NA
BRANCH  13  14
ATOM     14  C   UNL     1      28.820  22.663  25.572  0.00  0.00    +0.000 A 
ATOM     15  C   UNL     1      29.199  23.280  24.258  0.00  0.00    +0.000 A 
ATOM     16  C   UNL     1      30.613  23.724  24.019  0.00  0.00    +0.000 A 
ATOM     17  C   UNL     1      31.645  23.550  25.093  0.00  0.00    +0.000 A 
ATOM     18  C   UNL     1      31.265  22.933  26.406  0.00  0.00    +0.000 A 
ATOM     19  C   UNL     1      29.852  22.489  26.645  0.00  0.00    +0.000 A 
ENDBRANCH  13  14
ENDBRANCH  11  13
ENDBRANCH  10  11
TORSDOF 3
ENDMDL
MODEL 8
REMARK VINA RESULT:      -5.7     21.815     23.862
REMARK  Name = 
REMARK  3 active torsions:
REMARK  status: ('A' for Active; 'I' for Inactive)
REMARK    1  A    between atoms: N_10  and  C_11
REMARK    2  A    between atoms: C_11  and  N_13
REMARK    3  A    between atoms: N_13  and  C_14
REMARK                            x       y       z     vdW  Elec       q    Type
REMARK                         _______ _______ _______ _____ _____    ______ ____
ROOT
ATOM      1  O   UNL     1      18.682  -9.583  27.538  0.00  0.00    +0.000 OA
ATOM      2  C   UNL     1      19.491  -8.550  26.812  0.00  0.00    +0.000 C 
ATOM      3  C   UNL     1      20.807  -8.779  26.131  0.00  0.00    +0.000 C 
ATOM      4  C   UNL     1      19.768  -7.745  26.445  0.00  0.00    +0.000 C 
ATOM      5  C   UNL     1      18.451  -7.515  27.127  0.00  0.00    +0.000 C 
ATOM      6  C   UNL     1      18.087  -6.070  26.954  0.00  0.00    +0.000 C 
ATOM      7  C   UNL     1      19.177  -5.407  26.167  0.00  0.00    +0.000 C 
ATOM      8  C   UNL     1      20.217  -6.442  25.852  0.00  0.00    +0.000 C 
ATOM      9  C   UNL     1      21.533  -6.671  25.171  0.00  0.00    +0.000 C 
ATOM     10  N   UNL     1      21.898  -8.116  25.343  0.00  0.00    +0.000 N 
ENDROOT
BRANCH  10  11
ATOM     11  C   UNL     1      23.137  -8.781  24.820  0.00  0.00    +0.000 C 
ATOM     12  S   UNL     1      23.542 -10.128  25.341  0.00  0.00    +0.000 S 
BRANCH  11  13
ATOM     13  N   UNL     1      23.969  -8.099  23.776  0.00  0.00    +0.000 NA
BRANCH  13  14
ATOM     14  C   UNL     1      23.686  -8.332  22.321  0.00  0.00    +0.000 A 
ATOM     15  C   UNL     1      22.551  -7.613  21.653  0.00  0.00    +0.000 A 
ATOM     16  C   UNL     1      22.268  -7.846  20.198  0.00  0.00    +0.000 A 
ATOM     17  C   UNL     1      23.121  -8.797  19.412  0.00  0.00    +0.000 A 
ATOM     18  C   UNL     1      24.255  -9.515  20.079  0.00  0.00    +0.000 A 
ATOM     19  C   UNL     1      24.538  -9.282  21.534  0.00  0.00    +0.000 A 
ENDBRANCH  13  14
ENDBRANCH  11  13
ENDBRANCH  10  11
TORSDOF 3
ENDMDL
MODEL 9
REMARK VINA RESULT:      -5.7      4.140      6.673
REMARK  Name = 
REMARK  3 active torsions:
REMARK  status: ('A' for Active; 'I' for Inactive)
REMARK    1  A    between atoms: N_10  and  C_11
REMARK    2  A    between atoms: C_11  and  N_13
REMARK    3  A    between atoms: N_13  and  C_14
REMARK                            x       y       z     vdW  Elec       q    Type
REMARK                         _______ _______ _______ _____ _____    ______ ____
ROOT
ATOM      1  O   UNL     1      20.768  14.075  39.277  0.00  0.00    +0.000 OA
ATOM      2  C   UNL     1      20.886  12.766  38.554  0.00  0.00    +0.000 C 
ATOM      3  C   UNL     1      19.747  11.914  38.081  0.00  0.00    +0.000 C 
ATOM      4  C   UNL     1      21.241  12.016  38.141  0.00  0.00    +0.000 C 
ATOM      5  C   UNL     1      22.382  12.868  38.614  0.00  0.00    +0.000 C 
ATOM      6  C   UNL     1      23.661  12.181  38.237  0.00  0.00    +0.000 C 
ATOM      7  C   UNL     1      23.312  10.905  37.531  0.00  0.00    +0.000 C 
ATOM      8  C   UNL     1      21.816  10.802  37.471  0.00  0.00    +0.000 C 
ATOM      9  C   UNL     1      20.677   9.951  36.998  0.00  0.00    +0.000 C 
ATOM     10  N   UNL     1      19.397  10.637  37.375  0.00  0.00    +0.000 N 
ENDROOT
BRANCH  10  11
ATOM     11  C   UNL     1      18.011  10.135  37.095  0.00  0.00    +0.000 C 
ATOM     12  S   UNL     1      17.773   9.189  35.955  0.00  0.00    +0.000 S 
BRANCH  11  13
ATOM     13  N   UNL     1      16.865  10.580  37.953  0.00  0.00    +0.000 NA
BRANCH  13  14
ATOM     14  C   UNL     1      15.714  11.323  37.341  0.00  0.00    +0.000 A 
ATOM     15  C   UNL     1      15.952  12.262  36.196  0.00  0.00    +0.000 A 
ATOM     16  C   UNL     1      14.800  13.005  35.584  0.00  0.00    +0.000 A 
ATOM     17  C   UNL     1      13.413  12.809  36.119  0.00  0.00    +0.000 A 
ATOM     18  C   UNL     1      13.176  11.871  37.264  0.00  0.00    +0.000 A 
ATOM     19  C   UNL     1      14.327  11.127  37.876  0.00  0.00    +0.000 A 
ENDBRANCH  13  14
ENDBRANCH  11  13
ENDBRANCH  10  11
TORSDOF 3
ENDMDL
MODEL 10
REMARK VINA RESULT:      -5.7     21.704     23.577
REMARK  Name = 
REMARK  3 active torsions:
REMARK  status: ('A' for Active; 'I' for Inactive)
REMARK    1  A    between atoms: N_10  and  C_11
REMARK    2  A    between atoms: C_11  and  N_13
REMARK    3  A    between atoms: N_13  and  C_14
REMARK                            x       y       z     vdW  Elec       q    Type
REMARK                         _______ _______ _______ _____ _____    ______ ____
ROOT
ATOM      1  O   UNL     1      18.030  -9.056  28.185  0.00  0.00    +0.000 OA
ATOM      2  C   UNL     1      18.989  -8.349  27.272  0.00  0.00    +0.000 C 
ATOM      3  C   UNL     1      20.220  -8.942  26.657  0.00  0.00    +0.000 C 
ATOM      4  C   UNL     1      19.394  -7.695  26.755  0.00  0.00    +0.000 C 
ATOM      5  C   UNL     1      18.161  -7.101  27.370  0.00  0.00    +0.000 C 
ATOM      6  C   UNL     1      18.056  -5.676  26.913  0.00  0.00    +0.000 C 
ATOM      7  C   UNL     1      19.222  -5.389  26.016  0.00  0.00    +0.000 C 
ATOM      8  C   UNL     1      20.050  -6.637  25.918  0.00  0.00    +0.000 C 
ATOM      9  C   UNL     1      21.282  -7.230  25.303  0.00  0.00    +0.000 C 
ATOM     10  N   UNL     1      21.388  -8.656  25.760  0.00  0.00    +0.000 N 
ENDROOT
BRANCH  10  11
ATOM     11  C   UNL     1      22.471  -9.624  25.385  0.00  0.00    +0.000 C 
ATOM     12  S   UNL     1      23.126 -10.461  26.443  0.00  0.00    +0.000 S 
BRANCH  11  13
ATOM     13  N   UNL     1      22.897  -9.754  23.953  0.00  0.00    +0.000 NA
BRANCH  13  14
ATOM     14  C   UNL     1      24.206  -9.174  23.504  0.00  0.00    +0.000 A 
ATOM     15  C   UNL     1      24.475  -7.708  23.677  0.00  0.00    +0.000 A 
ATOM     16  C   UNL     1      25.784  -7.128  23.228  0.00  0.00    +0.000 A 
ATOM     17  C   UNL     1      26.823  -8.014  22.607  0.00  0.00    +0.000 A 
ATOM     18  C   UNL     1      26.554  -9.479  22.435  0.00  0.00    +0.000 A 
ATOM     19  C   UNL     1      25.245 -10.059  22.884  0.00  0.00    +0.000 A 
ENDBRANCH  13  14
ENDBRANCH  11  13
ENDBRANCH  10  11
TORSDOF 3
ENDMDL
