MODEL 1
REMARK VINA RESULT:      -7.6      0.000      0.000
REMARK  Name = 
REMARK  8 active torsions:
REMARK  status: ('A' for Active; 'I' for Inactive)
REMARK    1  A    between atoms: C_2  and  C_3
REMARK    2  A    between atoms: C_3  and  C_4
REMARK    3  A    between atoms: C_4  and  N_5
REMARK    4  A    between atoms: C_6  and  C_8
REMARK    5  A    between atoms: C_9  and  C_10
REMARK    6  A    between atoms: C_15  and  O_16
REMARK    7  A    between atoms: O_16  and  C_17
REMARK    8  A    between atoms: C_21  and  C_22
REMARK                            x       y       z     vdW  Elec       q    Type
REMARK                         _______ _______ _______ _____ _____    ______ ____
ROOT
ATOM      1  C   UNL     1      39.467  -1.716  15.269  0.00  0.00    +0.000 C 
ATOM      2  C   UNL     1      40.251  -2.537  14.715  0.00  0.00    +0.000 C 
ATOM      3  N   UNL     1      40.462  -3.562  15.636  0.00  0.00    +0.000 NA
ATOM      4  O   UNL     1      39.596  -3.637  16.521  0.00  0.00    +0.000 OA
ATOM      5  C   UNL     1      38.970  -2.272  16.677  0.00  0.00    +0.000 C 
ENDROOT
BRANCH   5   6
ATOM      6  C   UNL     1      37.524  -2.697  16.260  0.00  0.00    +0.000 A 
ATOM      7  C   UNL     1      37.280  -3.647  15.344  0.00  0.00    +0.000 A 
ATOM      8  C   UNL     1      35.971  -3.980  15.018  0.00  0.00    +0.000 A 
ATOM      9  C   UNL     1      34.944  -3.331  15.641  0.00  0.00    +0.000 A 
ATOM     10  C   UNL     1      35.165  -2.348  16.588  0.00  0.00    +0.000 A 
ATOM     11  C   UNL     1      34.140  -1.686  17.221  0.00  0.00    +0.000 A 
ATOM     12  C   UNL     1      34.428  -0.713  18.156  0.00  0.00    +0.000 A 
ATOM     13  C   UNL     1      35.738  -0.388  18.475  0.00  0.00    +0.000 A 
ATOM     14  C   UNL     1      36.755  -1.069  17.824  0.00  0.00    +0.000 A 
ATOM     15  C   UNL     1      36.512  -2.048  16.883  0.00  0.00    +0.000 A 
ENDBRANCH   5   6
BRANCH   2  16
ATOM     16  C   UNL     1      40.906  -2.434  13.369  0.00  0.00    +0.000 A 
ATOM     17  C   UNL     1      40.144  -2.765  12.287  0.00  0.00    +0.000 A 
ATOM     18  C   UNL     1      40.660  -2.718  10.984  0.00  0.00    +0.000 A 
ATOM     19  C   UNL     1      41.963  -2.324  10.820  0.00  0.00    +0.000 A 
ATOM     20  C   UNL     1      42.701  -1.998  11.932  0.00  0.00    +0.000 A 
ATOM     21  C   UNL     1      42.195  -2.044  13.225  0.00  0.00    +0.000 A 
BRANCH  21  22
ATOM     22  O   UNL     1      42.959  -1.707  14.331  0.00  0.00    +0.000 OA
BRANCH  22  23
ATOM     23  C   UNL     1      43.487  -0.397  14.430  0.00  0.00    +0.000 C 
ATOM     24  C   UNL     1      44.637  -0.288  15.379  0.00  0.00    +0.000 C 
ENDBRANCH  22  23
ENDBRANCH  21  22
ENDBRANCH   2  16
BRANCH   1  26
ATOM     25  N   UNL     1      37.790  -0.296  14.011  0.00  0.00    +0.000 NA
ATOM     26  C   UNL     1      38.954  -0.443  14.815  0.00  0.00    +0.000 C 
ATOM     27  O   UNL     1      39.551   0.645  15.126  0.00  0.00    +0.000 OA
BRANCH  25  28
ATOM     28  C   UNL     1      37.352   1.021  13.600  0.00  0.00    +0.000 C 
BRANCH  28  29
ATOM     29  C   UNL     1      36.006   1.289  14.208  0.00  0.00    +0.000 C 
BRANCH  29  31
ATOM     30  C   UNL     1      34.836   2.376  16.121  0.00  0.00    +0.000 C 
ATOM     31  C   UNL     1      36.168   1.903  15.570  0.00  0.00    +0.000 C 
ENDBRANCH  29  31
ENDBRANCH  28  29
ENDBRANCH  25  28
ENDBRANCH   1  26
TORSDOF 8
ENDMDL
MODEL 2
REMARK VINA RESULT:      -7.5      2.767      6.532
REMARK  Name = 
REMARK  8 active torsions:
REMARK  status: ('A' for Active; 'I' for Inactive)
REMARK    1  A    between atoms: C_2  and  C_3
REMARK    2  A    between atoms: C_3  and  C_4
REMARK    3  A    between atoms: C_4  and  N_5
REMARK    4  A    between atoms: C_6  and  C_8
REMARK    5  A    between atoms: C_9  and  C_10
REMARK    6  A    between atoms: C_15  and  O_16
REMARK    7  A    between atoms: O_16  and  C_17
REMARK    8  A    between atoms: C_21  and  C_22
REMARK                            x       y       z     vdW  Elec       q    Type
REMARK                         _______ _______ _______ _____ _____    ______ ____
ROOT
ATOM      1  C   UNL     1      36.393   1.402  15.555  0.00  0.00    +0.000 C 
ATOM      2  C   UNL     1      36.175   2.490  16.158  0.00  0.00    +0.000 C 
ATOM      3  N   UNL     1      34.921   2.364  16.754  0.00  0.00    +0.000 NA
ATOM      4  O   UNL     1      34.539   1.192  16.892  0.00  0.00    +0.000 OA
ATOM      5  C   UNL     1      35.235   0.349  15.851  0.00  0.00    +0.000 C 
ENDROOT
BRANCH   5   6
ATOM      6  C   UNL     1      36.007  -0.565  16.859  0.00  0.00    +0.000 A 
ATOM      7  C   UNL     1      36.403  -0.142  18.069  0.00  0.00    +0.000 A 
ATOM      8  C   UNL     1      37.085  -1.005  18.919  0.00  0.00    +0.000 A 
ATOM      9  C   UNL     1      37.342  -2.281  18.508  0.00  0.00    +0.000 A 
ATOM     10  C   UNL     1      36.946  -2.744  17.266  0.00  0.00    +0.000 A 
ATOM     11  C   UNL     1      37.200  -4.025  16.839  0.00  0.00    +0.000 A 
ATOM     12  C   UNL     1      36.780  -4.426  15.587  0.00  0.00    +0.000 A 
ATOM     13  C   UNL     1      36.100  -3.557  14.745  0.00  0.00    +0.000 A 
ATOM     14  C   UNL     1      35.855  -2.270  15.197  0.00  0.00    +0.000 A 
ATOM     15  C   UNL     1      36.257  -1.829  16.441  0.00  0.00    +0.000 A 
ENDBRANCH   5   6
BRANCH   2  16
ATOM     16  C   UNL     1      37.032   3.721  16.195  0.00  0.00    +0.000 A 
ATOM     17  C   UNL     1      37.809   3.899  17.302  0.00  0.00    +0.000 A 
ATOM     18  C   UNL     1      38.636   5.021  17.445  0.00  0.00    +0.000 A 
ATOM     19  C   UNL     1      38.648   5.947  16.434  0.00  0.00    +0.000 A 
ATOM     20  C   UNL     1      37.852   5.737  15.334  0.00  0.00    +0.000 A 
ATOM     21  C   UNL     1      37.030   4.627  15.187  0.00  0.00    +0.000 A 
BRANCH  21  22
ATOM     22  O   UNL     1      36.239   4.436  14.066  0.00  0.00    +0.000 OA
BRANCH  22  23
ATOM     23  C   UNL     1      35.248   5.397  13.749  0.00  0.00    +0.000 C 
ATOM     24  C   UNL     1      35.477   6.078  12.438  0.00  0.00    +0.000 C 
ENDBRANCH  22  23
ENDBRANCH  21  22
ENDBRANCH   2  16
BRANCH   1  26
ATOM     25  N   UNL     1      38.853   0.952  15.154  0.00  0.00    +0.000 NA
ATOM     26  C   UNL     1      37.499   0.988  14.720  0.00  0.00    +0.000 C 
ATOM     27  O   UNL     1      37.297   0.627  13.509  0.00  0.00    +0.000 OA
BRANCH  25  28
ATOM     28  C   UNL     1      39.896   0.526  14.245  0.00  0.00    +0.000 C 
BRANCH  28  29
ATOM     29  C   UNL     1      40.598  -0.658  14.844  0.00  0.00    +0.000 C 
BRANCH  29  31
ATOM     30  C   UNL     1      40.363  -3.068  15.433  0.00  0.00    +0.000 C 
ATOM     31  C   UNL     1      39.646  -1.815  14.967  0.00  0.00    +0.000 C 
ENDBRANCH  29  31
ENDBRANCH  28  29
ENDBRANCH  25  28
ENDBRANCH   1  26
TORSDOF 8
ENDMDL
MODEL 3
REMARK VINA RESULT:      -7.0      3.198      6.410
REMARK  Name = 
REMARK  8 active torsions:
REMARK  status: ('A' for Active; 'I' for Inactive)
REMARK    1  A    between atoms: C_2  and  C_3
REMARK    2  A    between atoms: C_3  and  C_4
REMARK    3  A    between atoms: C_4  and  N_5
REMARK    4  A    between atoms: C_6  and  C_8
REMARK    5  A    between atoms: C_9  and  C_10
REMARK    6  A    between atoms: C_15  and  O_16
REMARK    7  A    between atoms: O_16  and  C_17
REMARK    8  A    between atoms: C_21  and  C_22
REMARK                            x       y       z     vdW  Elec       q    Type
REMARK                         _______ _______ _______ _____ _____    ______ ____
ROOT
ATOM      1  C   UNL     1      36.681   0.010  14.511  0.00  0.00    +0.000 C 
ATOM      2  C   UNL     1      37.317  -1.041  14.217  0.00  0.00    +0.000 C 
ATOM      3  N   UNL     1      37.605  -0.959  12.856  0.00  0.00    +0.000 NA
ATOM      4  O   UNL     1      37.549   0.191  12.392  0.00  0.00    +0.000 OA
ATOM      5  C   UNL     1      36.617   0.998  13.263  0.00  0.00    +0.000 C 
ENDROOT
BRANCH   5   6
ATOM      6  C   UNL     1      37.684   2.039  13.738  0.00  0.00    +0.000 A 
ATOM      7  C   UNL     1      38.976   1.724  13.921  0.00  0.00    +0.000 A 
ATOM      8  C   UNL     1      39.875   2.696  14.343  0.00  0.00    +0.000 A 
ATOM      9  C   UNL     1      39.429   3.966  14.565  0.00  0.00    +0.000 A 
ATOM     10  C   UNL     1      38.104   4.319  14.385  0.00  0.00    +0.000 A 
ATOM     11  C   UNL     1      37.640   5.593  14.607  0.00  0.00    +0.000 A 
ATOM     12  C   UNL     1      36.305   5.881  14.411  0.00  0.00    +0.000 A 
ATOM     13  C   UNL     1      35.414   4.904  13.989  0.00  0.00    +0.000 A 
ATOM     14  C   UNL     1      35.904   3.626  13.771  0.00  0.00    +0.000 A 
ATOM     15  C   UNL     1      37.231   3.296  13.955  0.00  0.00    +0.000 A 
ENDBRANCH   5   6
BRANCH   2  16
ATOM     16  C   UNL     1      37.654  -2.203  15.105  0.00  0.00    +0.000 A 
ATOM     17  C   UNL     1      38.885  -2.193  15.693  0.00  0.00    +0.000 A 
ATOM     18  C   UNL     1      39.307  -3.236  16.529  0.00  0.00    +0.000 A 
ATOM     19  C   UNL     1      38.443  -4.277  16.747  0.00  0.00    +0.000 A 
ATOM     20  C   UNL     1      37.211  -4.255  16.139  0.00  0.00    +0.000 A 
ATOM     21  C   UNL     1      36.788  -3.226  15.309  0.00  0.00    +0.000 A 
BRANCH  21  22
ATOM     22  O   UNL     1      35.539  -3.224  14.709  0.00  0.00    +0.000 OA
BRANCH  22  23
ATOM     23  C   UNL     1      34.416  -3.658  15.454  0.00  0.00    +0.000 C 
ATOM     24  C   UNL     1      33.563  -4.647  14.726  0.00  0.00    +0.000 C 
ENDBRANCH  22  23
ENDBRANCH  21  22
ENDBRANCH   2  16
BRANCH   1  26
ATOM     25  N   UNL     1      36.707   0.311  17.025  0.00  0.00    +0.000 NA
ATOM     26  C   UNL     1      36.080   0.436  15.755  0.00  0.00    +0.000 C 
ATOM     27  O   UNL     1      34.912   0.959  15.764  0.00  0.00    +0.000 OA
BRANCH  25  28
ATOM     28  C   UNL     1      36.024   0.763  18.219  0.00  0.00    +0.000 C 
BRANCH  28  29
ATOM     29  C   UNL     1      36.223  -0.262  19.298  0.00  0.00    +0.000 C 
BRANCH  29  31
ATOM     30  C   UNL     1      37.598  -2.297  19.720  0.00  0.00    +0.000 C 
ATOM     31  C   UNL     1      36.762  -1.535  18.709  0.00  0.00    +0.000 C 
ENDBRANCH  29  31
ENDBRANCH  28  29
ENDBRANCH  25  28
ENDBRANCH   1  26
TORSDOF 8
ENDMDL
MODEL 4
REMARK VINA RESULT:      -6.8      2.361      5.625
REMARK  Name = 
REMARK  8 active torsions:
REMARK  status: ('A' for Active; 'I' for Inactive)
REMARK    1  A    between atoms: C_2  and  C_3
REMARK    2  A    between atoms: C_3  and  C_4
REMARK    3  A    between atoms: C_4  and  N_5
REMARK    4  A    between atoms: C_6  and  C_8
REMARK    5  A    between atoms: C_9  and  C_10
REMARK    6  A    between atoms: C_15  and  O_16
REMARK    7  A    between atoms: O_16  and  C_17
REMARK    8  A    between atoms: C_21  and  C_22
REMARK                            x       y       z     vdW  Elec       q    Type
REMARK                         _______ _______ _______ _____ _____    ______ ____
ROOT
ATOM      1  C   UNL     1      36.751  -0.096  14.470  0.00  0.00    +0.000 C 
ATOM      2  C   UNL     1      37.371  -1.161  14.194  0.00  0.00    +0.000 C 
ATOM      3  N   UNL     1      37.672  -1.100  12.835  0.00  0.00    +0.000 NA
ATOM      4  O   UNL     1      37.639   0.044  12.357  0.00  0.00    +0.000 OA
ATOM      5  C   UNL     1      36.714   0.878  13.210  0.00  0.00    +0.000 C 
ENDROOT
BRANCH   5   6
ATOM      6  C   UNL     1      37.795   1.906  13.681  0.00  0.00    +0.000 A 
ATOM      7  C   UNL     1      39.088   1.581  13.840  0.00  0.00    +0.000 A 
ATOM      8  C   UNL     1      39.999   2.542  14.260  0.00  0.00    +0.000 A 
ATOM      9  C   UNL     1      39.564   3.812  14.506  0.00  0.00    +0.000 A 
ATOM     10  C   UNL     1      38.239   4.175  14.351  0.00  0.00    +0.000 A 
ATOM     11  C   UNL     1      37.787   5.449  14.596  0.00  0.00    +0.000 A 
ATOM     12  C   UNL     1      36.450   5.747  14.424  0.00  0.00    +0.000 A 
ATOM     13  C   UNL     1      35.547   4.781  14.004  0.00  0.00    +0.000 A 
ATOM     14  C   UNL     1      36.026   3.503  13.763  0.00  0.00    +0.000 A 
ATOM     15  C   UNL     1      37.353   3.163  13.922  0.00  0.00    +0.000 A 
ENDBRANCH   5   6
BRANCH   2  16
ATOM     16  C   UNL     1      37.680  -2.318  15.099  0.00  0.00    +0.000 A 
ATOM     17  C   UNL     1      36.677  -3.216  15.316  0.00  0.00    +0.000 A 
ATOM     18  C   UNL     1      36.853  -4.325  16.155  0.00  0.00    +0.000 A 
ATOM     19  C   UNL     1      38.073  -4.490  16.758  0.00  0.00    +0.000 A 
ATOM     20  C   UNL     1      39.061  -3.566  16.517  0.00  0.00    +0.000 A 
ATOM     21  C   UNL     1      38.891  -2.465  15.688  0.00  0.00    +0.000 A 
BRANCH  21  22
ATOM     22  O   UNL     1      39.905  -1.548  15.459  0.00  0.00    +0.000 OA
BRANCH  22  23
ATOM     23  C   UNL     1      41.047  -1.953  14.725  0.00  0.00    +0.000 C 
ATOM     24  C   UNL     1      41.847  -0.809  14.190  0.00  0.00    +0.000 C 
ENDBRANCH  22  23
ENDBRANCH  21  22
ENDBRANCH   2  16
BRANCH   1  26
ATOM     25  N   UNL     1      36.755   0.225  16.982  0.00  0.00    +0.000 NA
ATOM     26  C   UNL     1      36.146   0.356  15.703  0.00  0.00    +0.000 C 
ATOM     27  O   UNL     1      34.993   0.909  15.694  0.00  0.00    +0.000 OA
BRANCH  25  28
ATOM     28  C   UNL     1      36.071   0.703  18.165  0.00  0.00    +0.000 C 
BRANCH  28  29
ATOM     29  C   UNL     1      36.306  -0.273  19.280  0.00  0.00    +0.000 C 
BRANCH  29  31
ATOM     30  C   UNL     1      37.654  -2.317  19.744  0.00  0.00    +0.000 C 
ATOM     31  C   UNL     1      36.804  -1.579  18.727  0.00  0.00    +0.000 C 
ENDBRANCH  29  31
ENDBRANCH  28  29
ENDBRANCH  25  28
ENDBRANCH   1  26
TORSDOF 8
ENDMDL
MODEL 5
REMARK VINA RESULT:      -6.8      2.003      6.217
REMARK  Name = 
REMARK  8 active torsions:
REMARK  status: ('A' for Active; 'I' for Inactive)
REMARK    1  A    between atoms: C_2  and  C_3
REMARK    2  A    between atoms: C_3  and  C_4
REMARK    3  A    between atoms: C_4  and  N_5
REMARK    4  A    between atoms: C_6  and  C_8
REMARK    5  A    between atoms: C_9  and  C_10
REMARK    6  A    between atoms: C_15  and  O_16
REMARK    7  A    between atoms: O_16  and  C_17
REMARK    8  A    between atoms: C_21  and  C_22
REMARK                            x       y       z     vdW  Elec       q    Type
REMARK                         _______ _______ _______ _____ _____    ______ ____
ROOT
ATOM      1  C   UNL     1      37.507  -0.838  14.415  0.00  0.00    +0.000 C 
ATOM      2  C   UNL     1      36.975  -1.563  15.301  0.00  0.00    +0.000 C 
ATOM      3  N   UNL     1      36.815  -2.826  14.733  0.00  0.00    +0.000 NA
ATOM      4  O   UNL     1      37.538  -3.035  13.747  0.00  0.00    +0.000 OA
ATOM      5  C   UNL     1      37.879  -1.701  13.128  0.00  0.00    +0.000 C 
ENDROOT
BRANCH   5   6
ATOM      6  C   UNL     1      39.424  -1.797  13.353  0.00  0.00    +0.000 A 
ATOM      7  C   UNL     1      39.967  -2.356  14.446  0.00  0.00    +0.000 A 
ATOM      8  C   UNL     1      41.348  -2.412  14.585  0.00  0.00    +0.000 A 
ATOM      9  C   UNL     1      42.139  -1.895  13.600  0.00  0.00    +0.000 A 
ATOM     10  C   UNL     1      41.608  -1.313  12.464  0.00  0.00    +0.000 A 
ATOM     11  C   UNL     1      42.392  -0.787  11.466  0.00  0.00    +0.000 A 
ATOM     12  C   UNL     1      41.800  -0.218  10.356  0.00  0.00    +0.000 A 
ATOM     13  C   UNL     1      40.419  -0.167  10.226  0.00  0.00    +0.000 A 
ATOM     14  C   UNL     1      39.648  -0.704  11.245  0.00  0.00    +0.000 A 
ATOM     15  C   UNL     1      40.200  -1.282  12.370  0.00  0.00    +0.000 A 
ENDBRANCH   5   6
BRANCH   2  16
ATOM     16  C   UNL     1      36.522  -1.169  16.677  0.00  0.00    +0.000 A 
ATOM     17  C   UNL     1      35.322  -0.527  16.770  0.00  0.00    +0.000 A 
ATOM     18  C   UNL     1      34.811  -0.103  18.005  0.00  0.00    +0.000 A 
ATOM     19  C   UNL     1      35.553  -0.353  19.130  0.00  0.00    +0.000 A 
ATOM     20  C   UNL     1      36.757  -1.001  18.999  0.00  0.00    +0.000 A 
ATOM     21  C   UNL     1      37.268  -1.423  17.779  0.00  0.00    +0.000 A 
BRANCH  21  22
ATOM     22  O   UNL     1      38.484  -2.079  17.673  0.00  0.00    +0.000 OA
BRANCH  22  23
ATOM     23  C   UNL     1      38.641  -3.343  18.290  0.00  0.00    +0.000 C 
ATOM     24  C   UNL     1      38.469  -4.491  17.348  0.00  0.00    +0.000 C 
ENDBRANCH  22  23
ENDBRANCH  21  22
ENDBRANCH   2  16
BRANCH   1  26
ATOM     25  N   UNL     1      37.133   1.561  13.695  0.00  0.00    +0.000 NA
ATOM     26  C   UNL     1      37.848   0.567  14.420  0.00  0.00    +0.000 C 
ATOM     27  O   UNL     1      38.846   0.990  15.100  0.00  0.00    +0.000 OA
BRANCH  25  28
ATOM     28  C   UNL     1      37.550   2.945  13.757  0.00  0.00    +0.000 C 
BRANCH  28  29
ATOM     29  C   UNL     1      36.384   3.776  14.209  0.00  0.00    +0.000 C 
BRANCH  29  31
ATOM     30  C   UNL     1      34.375   3.094  15.515  0.00  0.00    +0.000 C 
ATOM     31  C   UNL     1      35.880   3.280  15.535  0.00  0.00    +0.000 C 
ENDBRANCH  29  31
ENDBRANCH  28  29
ENDBRANCH  25  28
ENDBRANCH   1  26
TORSDOF 8
ENDMDL
MODEL 6
REMARK VINA RESULT:      -6.7      1.668      4.137
REMARK  Name = 
REMARK  8 active torsions:
REMARK  status: ('A' for Active; 'I' for Inactive)
REMARK    1  A    between atoms: C_2  and  C_3
REMARK    2  A    between atoms: C_3  and  C_4
REMARK    3  A    between atoms: C_4  and  N_5
REMARK    4  A    between atoms: C_6  and  C_8
REMARK    5  A    between atoms: C_9  and  C_10
REMARK    6  A    between atoms: C_15  and  O_16
REMARK    7  A    between atoms: O_16  and  C_17
REMARK    8  A    between atoms: C_21  and  C_22
REMARK                            x       y       z     vdW  Elec       q    Type
REMARK                         _______ _______ _______ _____ _____    ______ ____
ROOT
ATOM      1  C   UNL     1      38.822  -1.614  13.758  0.00  0.00    +0.000 C 
ATOM      2  C   UNL     1      39.769  -1.023  13.170  0.00  0.00    +0.000 C 
ATOM      3  N   UNL     1      39.187  -0.244  12.172  0.00  0.00    +0.000 NA
ATOM      4  O   UNL     1      37.981  -0.010  12.347  0.00  0.00    +0.000 OA
ATOM      5  C   UNL     1      37.414  -1.113  13.206  0.00  0.00    +0.000 C 
ENDROOT
BRANCH   5   6
ATOM      6  C   UNL     1      37.006  -0.200  14.410  0.00  0.00    +0.000 A 
ATOM      7  C   UNL     1      37.462   1.053  14.560  0.00  0.00    +0.000 A 
ATOM      8  C   UNL     1      37.060   1.813  15.651  0.00  0.00    +0.000 A 
ATOM      9  C   UNL     1      36.200   1.271  16.561  0.00  0.00    +0.000 A 
ATOM     10  C   UNL     1      35.714  -0.018  16.433  0.00  0.00    +0.000 A 
ATOM     11  C   UNL     1      34.850  -0.577  17.343  0.00  0.00    +0.000 A 
ATOM     12  C   UNL     1      34.403  -1.870  17.158  0.00  0.00    +0.000 A 
ATOM     13  C   UNL     1      34.809  -2.622  16.065  0.00  0.00    +0.000 A 
ATOM     14  C   UNL     1      35.682  -2.037  15.161  0.00  0.00    +0.000 A 
ATOM     15  C   UNL     1      36.152  -0.748  15.307  0.00  0.00    +0.000 A 
ENDBRANCH   5   6
BRANCH   2  16
ATOM     16  C   UNL     1      41.244  -1.156  13.415  0.00  0.00    +0.000 A 
ATOM     17  C   UNL     1      41.831  -0.192  14.179  0.00  0.00    +0.000 A 
ATOM     18  C   UNL     1      43.205  -0.212  14.459  0.00  0.00    +0.000 A 
ATOM     19  C   UNL     1      43.953  -1.238  13.942  0.00  0.00    +0.000 A 
ATOM     20  C   UNL     1      43.329  -2.192  13.176  0.00  0.00    +0.000 A 
ATOM     21  C   UNL     1      41.969  -2.176  12.895  0.00  0.00    +0.000 A 
BRANCH  21  22
ATOM     22  O   UNL     1      41.361  -3.153  12.122  0.00  0.00    +0.000 OA
BRANCH  22  23
ATOM     23  C   UNL     1      41.649  -3.213  10.737  0.00  0.00    +0.000 C 
ATOM     24  C   UNL     1      40.443  -3.039   9.871  0.00  0.00    +0.000 C 
ENDBRANCH  22  23
ENDBRANCH  21  22
ENDBRANCH   2  16
BRANCH   1  26
ATOM     25  N   UNL     1      39.276  -2.315  16.149  0.00  0.00    +0.000 NA
ATOM     26  C   UNL     1      38.831  -2.589  14.826  0.00  0.00    +0.000 C 
ATOM     27  O   UNL     1      38.428  -3.785  14.616  0.00  0.00    +0.000 OA
BRANCH  25  28
ATOM     28  C   UNL     1      39.254  -3.357  17.154  0.00  0.00    +0.000 C 
BRANCH  28  29
ATOM     29  C   UNL     1      38.023  -3.183  17.995  0.00  0.00    +0.000 C 
BRANCH  29  31
ATOM     30  C   UNL     1      37.168  -1.870  19.933  0.00  0.00    +0.000 C 
ATOM     31  C   UNL     1      38.071  -1.864  18.714  0.00  0.00    +0.000 C 
ENDBRANCH  29  31
ENDBRANCH  28  29
ENDBRANCH  25  28
ENDBRANCH   1  26
TORSDOF 8
ENDMDL
MODEL 7
REMARK VINA RESULT:      -6.7      2.863      5.913
REMARK  Name = 
REMARK  8 active torsions:
REMARK  status: ('A' for Active; 'I' for Inactive)
REMARK    1  A    between atoms: C_2  and  C_3
REMARK    2  A    between atoms: C_3  and  C_4
REMARK    3  A    between atoms: C_4  and  N_5
REMARK    4  A    between atoms: C_6  and  C_8
REMARK    5  A    between atoms: C_9  and  C_10
REMARK    6  A    between atoms: C_15  and  O_16
REMARK    7  A    between atoms: O_16  and  C_17
REMARK    8  A    between atoms: C_21  and  C_22
REMARK                            x       y       z     vdW  Elec       q    Type
REMARK                         _______ _______ _______ _____ _____    ______ ____
ROOT
ATOM      1  C   UNL     1      37.120   1.726  14.302  0.00  0.00    +0.000 C 
ATOM      2  C   UNL     1      37.137   2.987  14.379  0.00  0.00    +0.000 C 
ATOM      3  N   UNL     1      35.812   3.388  14.544  0.00  0.00    +0.000 NA
ATOM      4  O   UNL     1      35.057   2.494  14.956  0.00  0.00    +0.000 OA
ATOM      5  C   UNL     1      35.652   1.164  14.562  0.00  0.00    +0.000 C 
ENDROOT
BRANCH   5   6
ATOM      6  C   UNL     1      35.863   0.632  16.018  0.00  0.00    +0.000 A 
ATOM      7  C   UNL     1      35.920   1.442  17.087  0.00  0.00    +0.000 A 
ATOM      8  C   UNL     1      36.108   0.906  18.356  0.00  0.00    +0.000 A 
ATOM      9  C   UNL     1      36.232  -0.446  18.497  0.00  0.00    +0.000 A 
ATOM     10  C   UNL     1      36.179  -1.303  17.414  0.00  0.00    +0.000 A 
ATOM     11  C   UNL     1      36.305  -2.666  17.542  0.00  0.00    +0.000 A 
ATOM     12  C   UNL     1      36.244  -3.468  16.420  0.00  0.00    +0.000 A 
ATOM     13  C   UNL     1      36.056  -2.924  15.157  0.00  0.00    +0.000 A 
ATOM     14  C   UNL     1      35.931  -1.547  15.053  0.00  0.00    +0.000 A 
ATOM     15  C   UNL     1      35.986  -0.710  16.148  0.00  0.00    +0.000 A 
ENDBRANCH   5   6
BRANCH   2  16
ATOM     16  C   UNL     1      38.312   3.911  14.252  0.00  0.00    +0.000 A 
ATOM     17  C   UNL     1      38.648   4.310  12.992  0.00  0.00    +0.000 A 
ATOM     18  C   UNL     1      39.737   5.161  12.758  0.00  0.00    +0.000 A 
ATOM     19  C   UNL     1      40.465   5.590  13.838  0.00  0.00    +0.000 A 
ATOM     20  C   UNL     1      40.098   5.167  15.093  0.00  0.00    +0.000 A 
ATOM     21  C   UNL     1      39.021   4.324  15.330  0.00  0.00    +0.000 A 
BRANCH  21  22
ATOM     22  O   UNL     1      38.669   3.914  16.607  0.00  0.00    +0.000 OA
BRANCH  22  23
ATOM     23  C   UNL     1      38.179   4.872  17.527  0.00  0.00    +0.000 C 
ATOM     24  C   UNL     1      39.149   5.202  18.616  0.00  0.00    +0.000 C 
ENDBRANCH  22  23
ENDBRANCH  21  22
ENDBRANCH   2  16
BRANCH   1  26
ATOM     25  N   UNL     1      39.216   0.493  15.009  0.00  0.00    +0.000 NA
ATOM     26  C   UNL     1      38.186   0.777  14.070  0.00  0.00    +0.000 C 
ATOM     27  O   UNL     1      38.251   0.133  12.967  0.00  0.00    +0.000 OA
BRANCH  25  28
ATOM     28  C   UNL     1      40.247  -0.471  14.687  0.00  0.00    +0.000 C 
BRANCH  28  29
ATOM     29  C   UNL     1      39.946  -1.751  15.410  0.00  0.00    +0.000 C 
BRANCH  29  31
ATOM     30  C   UNL     1      40.521  -2.780  13.215  0.00  0.00    +0.000 C 
ATOM     31  C   UNL     1      40.622  -2.904  14.723  0.00  0.00    +0.000 C 
ENDBRANCH  29  31
ENDBRANCH  28  29
ENDBRANCH  25  28
ENDBRANCH   1  26
TORSDOF 8
ENDMDL
MODEL 8
REMARK VINA RESULT:      -6.2      8.938     11.819
REMARK  Name = 
REMARK  8 active torsions:
REMARK  status: ('A' for Active; 'I' for Inactive)
REMARK    1  A    between atoms: C_2  and  C_3
REMARK    2  A    between atoms: C_3  and  C_4
REMARK    3  A    between atoms: C_4  and  N_5
REMARK    4  A    between atoms: C_6  and  C_8
REMARK    5  A    between atoms: C_9  and  C_10
REMARK    6  A    between atoms: C_15  and  O_16
REMARK    7  A    between atoms: O_16  and  C_17
REMARK    8  A    between atoms: C_21  and  C_22
REMARK                            x       y       z     vdW  Elec       q    Type
REMARK                         _______ _______ _______ _____ _____    ______ ____
ROOT
ATOM      1  C   UNL     1      39.712   7.770  16.549  0.00  0.00    +0.000 C 
ATOM      2  C   UNL     1      38.481   7.493  16.613  0.00  0.00    +0.000 C 
ATOM      3  N   UNL     1      38.381   6.111  16.463  0.00  0.00    +0.000 NA
ATOM      4  O   UNL     1      39.432   5.496  16.701  0.00  0.00    +0.000 OA
ATOM      5  C   UNL     1      40.587   6.441  16.471  0.00  0.00    +0.000 C 
ENDROOT
BRANCH   5   6
ATOM      6  C   UNL     1      41.116   6.426  17.943  0.00  0.00    +0.000 A 
ATOM      7  C   UNL     1      40.315   6.239  19.003  0.00  0.00    +0.000 A 
ATOM      8  C   UNL     1      40.849   6.235  20.286  0.00  0.00    +0.000 A 
ATOM      9  C   UNL     1      42.190   6.423  20.451  0.00  0.00    +0.000 A 
ATOM     10  C   UNL     1      43.040   6.619  19.377  0.00  0.00    +0.000 A 
ATOM     11  C   UNL     1      44.392   6.811  19.529  0.00  0.00    +0.000 A 
ATOM     12  C   UNL     1      45.186   7.003  18.416  0.00  0.00    +0.000 A 
ATOM     13  C   UNL     1      44.644   7.005  17.138  0.00  0.00    +0.000 A 
ATOM     14  C   UNL     1      43.278   6.809  17.010  0.00  0.00    +0.000 A 
ATOM     15  C   UNL     1      42.449   6.613  18.095  0.00  0.00    +0.000 A 
ENDBRANCH   5   6
BRANCH   2  16
ATOM     16  C   UNL     1      37.322   8.436  16.748  0.00  0.00    +0.000 A 
ATOM     17  C   UNL     1      36.759   8.892  15.592  0.00  0.00    +0.000 A 
ATOM     18  C   UNL     1      35.680   9.787  15.604  0.00  0.00    +0.000 A 
ATOM     19  C   UNL     1      35.196  10.197  16.819  0.00  0.00    +0.000 A 
ATOM     20  C   UNL     1      35.787   9.718  17.963  0.00  0.00    +0.000 A 
ATOM     21  C   UNL     1      36.856   8.832  17.957  0.00  0.00    +0.000 A 
BRANCH  21  22
ATOM     22  O   UNL     1      37.433   8.361  19.126  0.00  0.00    +0.000 OA
BRANCH  22  23
ATOM     23  C   UNL     1      37.522   9.223  20.246  0.00  0.00    +0.000 C 
ATOM     24  C   UNL     1      38.893   9.289  20.839  0.00  0.00    +0.000 C 
ENDBRANCH  22  23
ENDBRANCH  21  22
ENDBRANCH   2  16
BRANCH   1  26
ATOM     25  N   UNL     1      40.478   9.876  17.730  0.00  0.00    +0.000 NA
ATOM     26  C   UNL     1      40.399   9.042  16.580  0.00  0.00    +0.000 C 
ATOM     27  O   UNL     1      40.984   9.489  15.533  0.00  0.00    +0.000 OA
BRANCH  25  28
ATOM     28  C   UNL     1      41.185  11.137  17.666  0.00  0.00    +0.000 C 
BRANCH  28  29
ATOM     29  C   UNL     1      41.828  11.392  18.998  0.00  0.00    +0.000 C 
BRANCH  29  31
ATOM     30  C   UNL     1      42.618  10.030  20.930  0.00  0.00    +0.000 C 
ATOM     31  C   UNL     1      42.631  10.193  19.422  0.00  0.00    +0.000 C 
ENDBRANCH  29  31
ENDBRANCH  28  29
ENDBRANCH  25  28
ENDBRANCH   1  26
TORSDOF 8
ENDMDL
MODEL 9
REMARK VINA RESULT:      -6.1      7.066     10.026
REMARK  Name = 
REMARK  8 active torsions:
REMARK  status: ('A' for Active; 'I' for Inactive)
REMARK    1  A    between atoms: C_2  and  C_3
REMARK    2  A    between atoms: C_3  and  C_4
REMARK    3  A    between atoms: C_4  and  N_5
REMARK    4  A    between atoms: C_6  and  C_8
REMARK    5  A    between atoms: C_9  and  C_10
REMARK    6  A    between atoms: C_15  and  O_16
REMARK    7  A    between atoms: O_16  and  C_17
REMARK    8  A    between atoms: C_21  and  C_22
REMARK                            x       y       z     vdW  Elec       q    Type
REMARK                         _______ _______ _______ _____ _____    ______ ____
ROOT
ATOM      1  C   UNL     1      38.423   7.609  14.651  0.00  0.00    +0.000 C 
ATOM      2  C   UNL     1      37.898   7.003  13.677  0.00  0.00    +0.000 C 
ATOM      3  N   UNL     1      38.853   6.099  13.215  0.00  0.00    +0.000 NA
ATOM      4  O   UNL     1      39.740   5.831  14.039  0.00  0.00    +0.000 OA
ATOM      5  C   UNL     1      39.850   6.991  14.999  0.00  0.00    +0.000 C 
ENDROOT
BRANCH   5   6
ATOM      6  C   UNL     1      39.448   6.191  16.282  0.00  0.00    +0.000 A 
ATOM      7  C   UNL     1      38.521   5.221  16.274  0.00  0.00    +0.000 A 
ATOM      8  C   UNL     1      38.211   4.546  17.448  0.00  0.00    +0.000 A 
ATOM      9  C   UNL     1      38.859   4.881  18.601  0.00  0.00    +0.000 A 
ATOM     10  C   UNL     1      39.818   5.877  18.639  0.00  0.00    +0.000 A 
ATOM     11  C   UNL     1      40.477   6.226  19.794  0.00  0.00    +0.000 A 
ATOM     12  C   UNL     1      41.423   7.231  19.765  0.00  0.00    +0.000 A 
ATOM     13  C   UNL     1      41.727   7.899  18.588  0.00  0.00    +0.000 A 
ATOM     14  C   UNL     1      41.050   7.530  17.436  0.00  0.00    +0.000 A 
ATOM     15  C   UNL     1      40.097   6.532  17.420  0.00  0.00    +0.000 A 
ENDBRANCH   5   6
BRANCH   2  16
ATOM     16  C   UNL     1      36.548   7.227  13.060  0.00  0.00    +0.000 A 
ATOM     17  C   UNL     1      36.466   8.177  12.085  0.00  0.00    +0.000 A 
ATOM     18  C   UNL     1      35.251   8.477  11.452  0.00  0.00    +0.000 A 
ATOM     19  C   UNL     1      34.134   7.783  11.840  0.00  0.00    +0.000 A 
ATOM     20  C   UNL     1      34.253   6.833  12.825  0.00  0.00    +0.000 A 
ATOM     21  C   UNL     1      35.454   6.533  13.455  0.00  0.00    +0.000 A 
BRANCH  21  22
ATOM     22  O   UNL     1      35.548   5.567  14.445  0.00  0.00    +0.000 OA
BRANCH  22  23
ATOM     23  C   UNL     1      35.446   4.201  14.086  0.00  0.00    +0.000 C 
ATOM     24  C   UNL     1      34.852   3.347  15.160  0.00  0.00    +0.000 C 
ENDBRANCH  22  23
ENDBRANCH  21  22
ENDBRANCH   2  16
BRANCH   1  26
ATOM     25  N   UNL     1      36.932   8.531  16.479  0.00  0.00    +0.000 NA
ATOM     26  C   UNL     1      37.926   8.690  15.474  0.00  0.00    +0.000 C 
ATOM     27  O   UNL     1      38.374   9.878  15.323  0.00  0.00    +0.000 OA
BRANCH  25  28
ATOM     28  C   UNL     1      36.492   9.673  17.252  0.00  0.00    +0.000 C 
BRANCH  28  29
ATOM     29  C   UNL     1      37.368   9.795  18.465  0.00  0.00    +0.000 C 
BRANCH  29  31
ATOM     30  C   UNL     1      38.040   8.673  20.587  0.00  0.00    +0.000 C 
ATOM     31  C   UNL     1      37.355   8.509  19.243  0.00  0.00    +0.000 C 
ENDBRANCH  29  31
ENDBRANCH  28  29
ENDBRANCH  25  28
ENDBRANCH   1  26
TORSDOF 8
ENDMDL
MODEL 10
REMARK VINA RESULT:      -6.1     30.186     33.881
REMARK  Name = 
REMARK  8 active torsions:
REMARK  status: ('A' for Active; 'I' for Inactive)
REMARK    1  A    between atoms: C_2  and  C_3
REMARK    2  A    between atoms: C_3  and  C_4
REMARK    3  A    between atoms: C_4  and  N_5
REMARK    4  A    between atoms: C_6  and  C_8
REMARK    5  A    between atoms: C_9  and  C_10
REMARK    6  A    between atoms: C_15  and  O_16
REMARK    7  A    between atoms: O_16  and  C_17
REMARK    8  A    between atoms: C_21  and  C_22
REMARK                            x       y       z     vdW  Elec       q    Type
REMARK                         _______ _______ _______ _____ _____    ______ ____
ROOT
ATOM      1  C   UNL     1      25.848   8.348  43.651  0.00  0.00    +0.000 C 
ATOM      2  C   UNL     1      26.160   8.377  42.427  0.00  0.00    +0.000 C 
ATOM      3  N   UNL     1      25.068   7.863  41.731  0.00  0.00    +0.000 NA
ATOM      4  O   UNL     1      24.002   7.888  42.365  0.00  0.00    +0.000 OA
ATOM      5  C   UNL     1      24.336   7.883  43.837  0.00  0.00    +0.000 C 
ENDROOT
BRANCH   5   6
ATOM      6  C   UNL     1      23.704   9.276  44.162  0.00  0.00    +0.000 A 
ATOM      7  C   UNL     1      23.886  10.356  43.387  0.00  0.00    +0.000 A 
ATOM      8  C   UNL     1      23.295  11.566  43.730  0.00  0.00    +0.000 A 
ATOM      9  C   UNL     1      22.532  11.639  44.859  0.00  0.00    +0.000 A 
ATOM     10  C   UNL     1      22.327  10.543  45.677  0.00  0.00    +0.000 A 
ATOM     11  C   UNL     1      21.562  10.602  46.817  0.00  0.00    +0.000 A 
ATOM     12  C   UNL     1      21.398   9.472  47.592  0.00  0.00    +0.000 A 
ATOM     13  C   UNL     1      21.992   8.267  47.241  0.00  0.00    +0.000 A 
ATOM     14  C   UNL     1      22.759   8.232  46.087  0.00  0.00    +0.000 A 
ATOM     15  C   UNL     1      22.948   9.337  45.284  0.00  0.00    +0.000 A 
ENDBRANCH   5   6
BRANCH   2  16
ATOM     16  C   UNL     1      27.459   8.803  41.808  0.00  0.00    +0.000 A 
ATOM     17  C   UNL     1      28.550   8.027  42.070  0.00  0.00    +0.000 A 
ATOM     18  C   UNL     1      29.815   8.341  41.554  0.00  0.00    +0.000 A 
ATOM     19  C   UNL     1      29.932   9.459  40.769  0.00  0.00    +0.000 A 
ATOM     20  C   UNL     1      28.812  10.218  40.527  0.00  0.00    +0.000 A 
ATOM     21  C   UNL     1      27.557   9.911  41.036  0.00  0.00    +0.000 A 
BRANCH  21  22
ATOM     22  O   UNL     1      26.442  10.691  40.774  0.00  0.00    +0.000 OA
BRANCH  22  23
ATOM     23  C   UNL     1      26.514  12.090  40.984  0.00  0.00    +0.000 C 
ATOM     24  C   UNL     1      26.706  12.467  42.418  0.00  0.00    +0.000 C 
ENDBRANCH  22  23
ENDBRANCH  21  22
ENDBRANCH   2  16
BRANCH   1  26
ATOM     25  N   UNL     1      27.074  10.011  45.115  0.00  0.00    +0.000 NA
ATOM     26  C   UNL     1      26.608   8.698  44.830  0.00  0.00    +0.000 C 
ATOM     27  O   UNL     1      26.907   7.806  45.697  0.00  0.00    +0.000 OA
BRANCH  25  28
ATOM     28  C   UNL     1      27.832  10.268  46.321  0.00  0.00    +0.000 C 
BRANCH  28  29
ATOM     29  C   UNL     1      27.189  11.407  47.057  0.00  0.00    +0.000 C 
BRANCH  29  31
ATOM     30  C   UNL     1      25.169  10.393  48.106  0.00  0.00    +0.000 C 
ATOM     31  C   UNL     1      25.692  11.283  46.995  0.00  0.00    +0.000 C 
ENDBRANCH  29  31
ENDBRANCH  28  29
ENDBRANCH  25  28
ENDBRANCH   1  26
TORSDOF 8
ENDMDL
