MODEL 1
REMARK VINA RESULT:      -6.7      0.000      0.000
REMARK  Name = 
REMARK  3 active torsions:
REMARK  status: ('A' for Active; 'I' for Inactive)
REMARK    1  A    between atoms: C_2  and  C_5
REMARK    2  A    between atoms: C_8  and  N_9
REMARK    3  A    between atoms: C_10  and  C_11
REMARK                            x       y       z     vdW  Elec       q    Type
REMARK                         _______ _______ _______ _____ _____    ______ ____
ROOT
ATOM      1  N   UNL     1      30.347  21.856  11.429  0.00  0.00    +0.000 N 
ATOM      2  C   UNL     1      31.169  21.638  12.445  0.00  0.00    +0.000 A 
ATOM      3  N   UNL     1      30.677  22.170  13.609  0.00  0.00    +0.000 NA
ATOM      4  C   UNL     1      29.493  22.748  13.322  0.00  0.00    +0.000 A 
ATOM      5  C   UNL     1      28.535  23.443  14.018  0.00  0.00    +0.000 A 
ATOM      6  C   UNL     1      27.407  23.933  13.396  0.00  0.00    +0.000 A 
ATOM      7  C   UNL     1      27.199  23.748  12.051  0.00  0.00    +0.000 A 
ATOM      8  C   UNL     1      28.170  23.038  11.333  0.00  0.00    +0.000 A 
ATOM      9  C   UNL     1      29.283  22.558  11.981  0.00  0.00    +0.000 A 
ENDROOT
BRANCH   1  13
ATOM     10  C   UNL     1      30.649  20.861   7.332  0.00  0.00    +0.000 A 
ATOM     11  C   UNL     1      30.028  20.019   8.211  0.00  0.00    +0.000 A 
ATOM     12  C   UNL     1      29.912  20.373   9.550  0.00  0.00    +0.000 A 
ATOM     13  C   UNL     1      30.401  21.546  10.044  0.00  0.00    +0.000 A 
ATOM     14  C   UNL     1      31.021  22.384   9.140  0.00  0.00    +0.000 A 
ATOM     15  C   UNL     1      31.144  22.046   7.786  0.00  0.00    +0.000 A 
BRANCH  10  17
ATOM     16  C   UNL     1      32.259  20.205   5.548  0.00  0.00    +0.000 C 
ATOM     17  C   UNL     1      30.838  20.506   5.892  0.00  0.00    +0.000 C 
ATOM     18  C   UNL     1      29.962  19.349   5.558  0.00  0.00    +0.000 C 
ATOM     19  C   UNL     1      30.327  21.744   5.130  0.00  0.00    +0.000 C 
ENDBRANCH  10  17
ENDBRANCH   1  13
BRANCH   2  20
ATOM     20  C   UNL     1      32.463  20.912  12.403  0.00  0.00    +0.000 C 
ATOM     21  O   UNL     1      33.384  21.574  11.586  0.00  0.00    +0.000 OA
ENDBRANCH   2  20
TORSDOF 3
ENDMDL
MODEL 2
REMARK VINA RESULT:      -6.5     12.347     15.240
REMARK  Name = 
REMARK  3 active torsions:
REMARK  status: ('A' for Active; 'I' for Inactive)
REMARK    1  A    between atoms: C_2  and  C_5
REMARK    2  A    between atoms: C_8  and  N_9
REMARK    3  A    between atoms: C_10  and  C_11
REMARK                            x       y       z     vdW  Elec       q    Type
REMARK                         _______ _______ _______ _____ _____    ______ ____
ROOT
ATOM      1  N   UNL     1      28.992  24.639  23.443  0.00  0.00    +0.000 N 
ATOM      2  C   UNL     1      28.484  24.994  22.272  0.00  0.00    +0.000 A 
ATOM      3  N   UNL     1      27.165  24.634  22.170  0.00  0.00    +0.000 NA
ATOM      4  C   UNL     1      26.819  24.028  23.324  0.00  0.00    +0.000 A 
ATOM      5  C   UNL     1      25.687  23.444  23.837  0.00  0.00    +0.000 A 
ATOM      6  C   UNL     1      25.675  22.877  25.093  0.00  0.00    +0.000 A 
ATOM      7  C   UNL     1      26.799  22.873  25.882  0.00  0.00    +0.000 A 
ATOM      8  C   UNL     1      27.958  23.469  25.369  0.00  0.00    +0.000 A 
ATOM      9  C   UNL     1      27.940  24.028  24.113  0.00  0.00    +0.000 A 
ENDROOT
BRANCH   1  13
ATOM     10  C   UNL     1      32.896  25.007  25.021  0.00  0.00    +0.000 A 
ATOM     11  C   UNL     1      32.055  26.083  24.981  0.00  0.00    +0.000 A 
ATOM     12  C   UNL     1      30.764  25.940  24.484  0.00  0.00    +0.000 A 
ATOM     13  C   UNL     1      30.284  24.751  24.022  0.00  0.00    +0.000 A 
ATOM     14  C   UNL     1      31.147  23.676  24.075  0.00  0.00    +0.000 A 
ATOM     15  C   UNL     1      32.450  23.800  24.575  0.00  0.00    +0.000 A 
BRANCH  10  17
ATOM     16  C   UNL     1      35.267  24.320  24.689  0.00  0.00    +0.000 C 
ATOM     17  C   UNL     1      34.306  25.120  25.504  0.00  0.00    +0.000 C 
ATOM     18  C   UNL     1      34.702  26.556  25.518  0.00  0.00    +0.000 C 
ATOM     19  C   UNL     1      34.247  24.614  26.957  0.00  0.00    +0.000 C 
ENDBRANCH  10  17
ENDBRANCH   1  13
BRANCH   2  20
ATOM     20  C   UNL     1      29.188  25.699  21.172  0.00  0.00    +0.000 C 
ATOM     21  O   UNL     1      29.826  24.791  20.320  0.00  0.00    +0.000 OA
ENDBRANCH   2  20
TORSDOF 3
ENDMDL
MODEL 3
REMARK VINA RESULT:      -6.4      2.274      6.202
REMARK  Name = 
REMARK  3 active torsions:
REMARK  status: ('A' for Active; 'I' for Inactive)
REMARK    1  A    between atoms: C_2  and  C_5
REMARK    2  A    between atoms: C_8  and  N_9
REMARK    3  A    between atoms: C_10  and  C_11
REMARK                            x       y       z     vdW  Elec       q    Type
REMARK                         _______ _______ _______ _____ _____    ______ ____
ROOT
ATOM      1  N   UNL     1      31.678  21.331   9.889  0.00  0.00    +0.000 N 
ATOM      2  C   UNL     1      31.977  21.240   8.601  0.00  0.00    +0.000 A 
ATOM      3  N   UNL     1      33.218  20.689   8.414  0.00  0.00    +0.000 NA
ATOM      4  C   UNL     1      33.729  20.415   9.632  0.00  0.00    +0.000 A 
ATOM      5  C   UNL     1      34.898  19.887  10.120  0.00  0.00    +0.000 A 
ATOM      6  C   UNL     1      35.118  19.757  11.475  0.00  0.00    +0.000 A 
ATOM      7  C   UNL     1      34.175  20.154  12.390  0.00  0.00    +0.000 A 
ATOM      8  C   UNL     1      32.978  20.692  11.901  0.00  0.00    +0.000 A 
ATOM      9  C   UNL     1      32.785  20.808  10.545  0.00  0.00    +0.000 A 
ENDROOT
BRANCH   1  13
ATOM     10  C   UNL     1      28.308  22.935  11.873  0.00  0.00    +0.000 A 
ATOM     11  C   UNL     1      28.212  21.770  11.164  0.00  0.00    +0.000 A 
ATOM     12  C   UNL     1      29.336  21.241  10.539  0.00  0.00    +0.000 A 
ATOM     13  C   UNL     1      30.559  21.840  10.599  0.00  0.00    +0.000 A 
ATOM     14  C   UNL     1      30.636  23.012  11.323  0.00  0.00    +0.000 A 
ATOM     15  C   UNL     1      29.515  23.559  11.962  0.00  0.00    +0.000 A 
BRANCH  10  17
ATOM     16  C   UNL     1      26.361  24.465  11.605  0.00  0.00    +0.000 C 
ATOM     17  C   UNL     1      27.121  23.567  12.524  0.00  0.00    +0.000 C 
ATOM     18  C   UNL     1      26.233  22.497  13.061  0.00  0.00    +0.000 C 
ATOM     19  C   UNL     1      27.715  24.351  13.709  0.00  0.00    +0.000 C 
ENDBRANCH  10  17
ENDBRANCH   1  13
BRANCH   2  20
ATOM     20  C   UNL     1      31.125  21.652   7.458  0.00  0.00    +0.000 C 
ATOM     21  O   UNL     1      30.511  20.545   6.864  0.00  0.00    +0.000 OA
ENDBRANCH   2  20
TORSDOF 3
ENDMDL
MODEL 4
REMARK VINA RESULT:      -6.4     31.374     33.761
REMARK  Name = 
REMARK  3 active torsions:
REMARK  status: ('A' for Active; 'I' for Inactive)
REMARK    1  A    between atoms: C_2  and  C_5
REMARK    2  A    between atoms: C_8  and  N_9
REMARK    3  A    between atoms: C_10  and  C_11
REMARK                            x       y       z     vdW  Elec       q    Type
REMARK                         _______ _______ _______ _____ _____    ______ ____
ROOT
ATOM      1  N   UNL     1      33.701   0.882  35.940  0.00  0.00    +0.000 N 
ATOM      2  C   UNL     1      33.896   1.332  37.172  0.00  0.00    +0.000 A 
ATOM      3  N   UNL     1      34.011   2.697  37.193  0.00  0.00    +0.000 NA
ATOM      4  C   UNL     1      33.881   3.136  35.924  0.00  0.00    +0.000 A 
ATOM      5  C   UNL     1      33.912   4.351  35.287  0.00  0.00    +0.000 A 
ATOM      6  C   UNL     1      33.759   4.452  33.921  0.00  0.00    +0.000 A 
ATOM      7  C   UNL     1      33.571   3.337  33.142  0.00  0.00    +0.000 A 
ATOM      8  C   UNL     1      33.535   2.092  33.783  0.00  0.00    +0.000 A 
ATOM      9  C   UNL     1      33.689   2.022  35.147  0.00  0.00    +0.000 A 
ENDROOT
BRANCH   1  13
ATOM     10  C   UNL     1      33.271  -3.045  34.438  0.00  0.00    +0.000 A 
ATOM     11  C   UNL     1      32.177  -2.320  34.820  0.00  0.00    +0.000 A 
ATOM     12  C   UNL     1      32.332  -1.020  35.286  0.00  0.00    +0.000 A 
ATOM     13  C   UNL     1      33.550  -0.417  35.386  0.00  0.00    +0.000 A 
ATOM     14  C   UNL     1      34.642  -1.164  34.992  0.00  0.00    +0.000 A 
ATOM     15  C   UNL     1      34.504  -2.475  34.517  0.00  0.00    +0.000 A 
BRANCH  10  17
ATOM     16  C   UNL     1      31.824  -5.065  34.254  0.00  0.00    +0.000 C 
ATOM     17  C   UNL     1      33.160  -4.461  33.973  0.00  0.00    +0.000 C 
ATOM     18  C   UNL     1      33.465  -4.521  32.516  0.00  0.00    +0.000 C 
ATOM     19  C   UNL     1      34.278  -5.196  34.738  0.00  0.00    +0.000 C 
ENDBRANCH  10  17
ENDBRANCH   1  13
BRANCH   2  20
ATOM     20  C   UNL     1      33.979   0.521  38.412  0.00  0.00    +0.000 C 
ATOM     21  O   UNL     1      32.707   0.139  38.849  0.00  0.00    +0.000 OA
ENDBRANCH   2  20
TORSDOF 3
ENDMDL
MODEL 5
REMARK VINA RESULT:      -6.4     29.961     32.305
REMARK  Name = 
REMARK  3 active torsions:
REMARK  status: ('A' for Active; 'I' for Inactive)
REMARK    1  A    between atoms: C_2  and  C_5
REMARK    2  A    between atoms: C_8  and  N_9
REMARK    3  A    between atoms: C_10  and  C_11
REMARK                            x       y       z     vdW  Elec       q    Type
REMARK                         _______ _______ _______ _____ _____    ______ ____
ROOT
ATOM      1  N   UNL     1      17.301  10.648  38.226  0.00  0.00    +0.000 N 
ATOM      2  C   UNL     1      16.592  10.126  39.216  0.00  0.00    +0.000 A 
ATOM      3  N   UNL     1      15.261  10.426  39.089  0.00  0.00    +0.000 NA
ATOM      4  C   UNL     1      15.115  11.166  37.971  0.00  0.00    +0.000 A 
ATOM      5  C   UNL     1      14.075  11.774  37.313  0.00  0.00    +0.000 A 
ATOM      6  C   UNL     1      14.280  12.500  36.159  0.00  0.00    +0.000 A 
ATOM      7  C   UNL     1      15.536  12.645  35.623  0.00  0.00    +0.000 A 
ATOM      8  C   UNL     1      16.603  12.025  36.286  0.00  0.00    +0.000 A 
ATOM      9  C   UNL     1      16.369  11.306  37.434  0.00  0.00    +0.000 A 
ENDROOT
BRANCH   1  13
ATOM     10  C   UNL     1      21.449  10.569  37.419  0.00  0.00    +0.000 A 
ATOM     11  C   UNL     1      20.602   9.691  36.804  0.00  0.00    +0.000 A 
ATOM     12  C   UNL     1      19.236   9.747  37.059  0.00  0.00    +0.000 A 
ATOM     13  C   UNL     1      18.687  10.655  37.914  0.00  0.00    +0.000 A 
ATOM     14  C   UNL     1      19.558  11.536  38.521  0.00  0.00    +0.000 A 
ATOM     15  C   UNL     1      20.937  11.496  38.274  0.00  0.00    +0.000 A 
BRANCH  10  17
ATOM     16  C   UNL     1      23.312  10.328  35.782  0.00  0.00    +0.000 C 
ATOM     17  C   UNL     1      22.929  10.519  37.212  0.00  0.00    +0.000 C 
ATOM     18  C   UNL     1      23.539  11.765  37.754  0.00  0.00    +0.000 C 
ATOM     19  C   UNL     1      23.389   9.331  38.079  0.00  0.00    +0.000 C 
ENDBRANCH  10  17
ENDBRANCH   1  13
BRANCH   2  20
ATOM     20  C   UNL     1      17.105   9.307  40.343  0.00  0.00    +0.000 C 
ATOM     21  O   UNL     1      16.066   8.615  40.974  0.00  0.00    +0.000 OA
ENDBRANCH   2  20
TORSDOF 3
ENDMDL
MODEL 6
REMARK VINA RESULT:      -6.3     11.594     14.001
REMARK  Name = 
REMARK  3 active torsions:
REMARK  status: ('A' for Active; 'I' for Inactive)
REMARK    1  A    between atoms: C_2  and  C_5
REMARK    2  A    between atoms: C_8  and  N_9
REMARK    3  A    between atoms: C_10  and  C_11
REMARK                            x       y       z     vdW  Elec       q    Type
REMARK                         _______ _______ _______ _____ _____    ______ ____
ROOT
ATOM      1  N   UNL     1      28.147  24.130  23.798  0.00  0.00    +0.000 N 
ATOM      2  C   UNL     1      27.068  23.459  24.173  0.00  0.00    +0.000 A 
ATOM      3  N   UNL     1      27.342  22.616  25.219  0.00  0.00    +0.000 NA
ATOM      4  C   UNL     1      28.648  22.759  25.524  0.00  0.00    +0.000 A 
ATOM      5  C   UNL     1      29.520  22.210  26.432  0.00  0.00    +0.000 A 
ATOM      6  C   UNL     1      30.848  22.577  26.466  0.00  0.00    +0.000 A 
ATOM      7  C   UNL     1      31.352  23.506  25.591  0.00  0.00    +0.000 A 
ATOM      8  C   UNL     1      30.470  24.074  24.663  0.00  0.00    +0.000 A 
ATOM      9  C   UNL     1      29.149  23.690  24.653  0.00  0.00    +0.000 A 
ENDROOT
BRANCH   1  13
ATOM     10  C   UNL     1      29.043  26.987  20.815  0.00  0.00    +0.000 A 
ATOM     11  C   UNL     1      29.328  25.664  20.623  0.00  0.00    +0.000 A 
ATOM     12  C   UNL     1      29.002  24.732  21.602  0.00  0.00    +0.000 A 
ATOM     13  C   UNL     1      28.400  25.081  22.774  0.00  0.00    +0.000 A 
ATOM     14  C   UNL     1      28.117  26.420  22.947  0.00  0.00    +0.000 A 
ATOM     15  C   UNL     1      28.435  27.373  21.969  0.00  0.00    +0.000 A 
BRANCH  10  17
ATOM     16  C   UNL     1      30.534  27.610  18.918  0.00  0.00    +0.000 C 
ATOM     17  C   UNL     1      29.414  28.031  19.812  0.00  0.00    +0.000 C 
ATOM     18  C   UNL     1      28.210  28.385  19.010  0.00  0.00    +0.000 C 
ATOM     19  C   UNL     1      29.809  29.250  20.668  0.00  0.00    +0.000 C 
ENDBRANCH  10  17
ENDBRANCH   1  13
BRANCH   2  20
ATOM     20  C   UNL     1      25.707  23.563  23.590  0.00  0.00    +0.000 C 
ATOM     21  O   UNL     1      25.640  22.912  22.353  0.00  0.00    +0.000 OA
ENDBRANCH   2  20
TORSDOF 3
ENDMDL
MODEL 7
REMARK VINA RESULT:      -6.2     29.364     32.197
REMARK  Name = 
REMARK  3 active torsions:
REMARK  status: ('A' for Active; 'I' for Inactive)
REMARK    1  A    between atoms: C_2  and  C_5
REMARK    2  A    between atoms: C_8  and  N_9
REMARK    3  A    between atoms: C_10  and  C_11
REMARK                            x       y       z     vdW  Elec       q    Type
REMARK                         _______ _______ _______ _____ _____    ______ ____
ROOT
ATOM      1  N   UNL     1      18.205  10.730  37.919  0.00  0.00    +0.000 N 
ATOM      2  C   UNL     1      17.148  11.171  37.253  0.00  0.00    +0.000 A 
ATOM      3  N   UNL     1      15.985  10.908  37.929  0.00  0.00    +0.000 NA
ATOM      4  C   UNL     1      16.315  10.276  39.074  0.00  0.00    +0.000 A 
ATOM      5  C   UNL     1      15.638   9.749  40.146  0.00  0.00    +0.000 A 
ATOM      6  C   UNL     1      16.303   9.130  41.183  0.00  0.00    +0.000 A 
ATOM      7  C   UNL     1      17.671   9.013  41.182  0.00  0.00    +0.000 A 
ATOM      8  C   UNL     1      18.370   9.550  40.093  0.00  0.00    +0.000 A 
ATOM      9  C   UNL     1      17.681  10.164  39.075  0.00  0.00    +0.000 A 
ENDROOT
BRANCH   1  13
ATOM     10  C   UNL     1      22.376  10.631  37.248  0.00  0.00    +0.000 A 
ATOM     11  C   UNL     1      21.556   9.697  36.680  0.00  0.00    +0.000 A 
ATOM     12  C   UNL     1      20.182   9.759  36.889  0.00  0.00    +0.000 A 
ATOM     13  C   UNL     1      19.599  10.728  37.650  0.00  0.00    +0.000 A 
ATOM     14  C   UNL     1      20.444  11.664  38.210  0.00  0.00    +0.000 A 
ATOM     15  C   UNL     1      21.830  11.619  38.009  0.00  0.00    +0.000 A 
BRANCH  10  17
ATOM     16  C   UNL     1      24.517   9.635  38.041  0.00  0.00    +0.000 C 
ATOM     17  C   UNL     1      23.862  10.581  37.091  0.00  0.00    +0.000 C 
ATOM     18  C   UNL     1      24.191  10.220  35.683  0.00  0.00    +0.000 C 
ATOM     19  C   UNL     1      24.315  12.032  37.343  0.00  0.00    +0.000 C 
ENDBRANCH  10  17
ENDBRANCH   1  13
BRANCH   2  20
ATOM     20  C   UNL     1      17.149  11.874  35.946  0.00  0.00    +0.000 C 
ATOM     21  O   UNL     1      17.272  10.967  34.887  0.00  0.00    +0.000 OA
ENDBRANCH   2  20
TORSDOF 3
ENDMDL
MODEL 8
REMARK VINA RESULT:      -6.2     13.283     17.252
REMARK  Name = 
REMARK  3 active torsions:
REMARK  status: ('A' for Active; 'I' for Inactive)
REMARK    1  A    between atoms: C_2  and  C_5
REMARK    2  A    between atoms: C_8  and  N_9
REMARK    3  A    between atoms: C_10  and  C_11
REMARK                            x       y       z     vdW  Elec       q    Type
REMARK                         _______ _______ _______ _____ _____    ______ ____
ROOT
ATOM      1  N   UNL     1      27.267  23.924  24.461  0.00  0.00    +0.000 N 
ATOM      2  C   UNL     1      27.387  23.541  23.198  0.00  0.00    +0.000 A 
ATOM      3  N   UNL     1      28.601  22.945  22.969  0.00  0.00    +0.000 NA
ATOM      4  C   UNL     1      29.280  22.946  24.135  0.00  0.00    +0.000 A 
ATOM      5  C   UNL     1      30.515  22.526  24.563  0.00  0.00    +0.000 A 
ATOM      6  C   UNL     1      30.922  22.702  25.868  0.00  0.00    +0.000 A 
ATOM      7  C   UNL     1      30.107  23.308  26.792  0.00  0.00    +0.000 A 
ATOM      8  C   UNL     1      28.843  23.737  26.365  0.00  0.00    +0.000 A 
ATOM      9  C   UNL     1      28.463  23.547  25.058  0.00  0.00    +0.000 A 
ENDROOT
BRANCH   1  13
ATOM     10  C   UNL     1      24.344  25.983  26.715  0.00  0.00    +0.000 A 
ATOM     11  C   UNL     1      24.899  26.554  25.604  0.00  0.00    +0.000 A 
ATOM     12  C   UNL     1      25.840  25.853  24.858  0.00  0.00    +0.000 A 
ATOM     13  C   UNL     1      26.247  24.595  25.186  0.00  0.00    +0.000 A 
ATOM     14  C   UNL     1      25.672  24.034  26.308  0.00  0.00    +0.000 A 
ATOM     15  C   UNL     1      24.720  24.724  27.071  0.00  0.00    +0.000 A 
BRANCH  10  17
ATOM     16  C   UNL     1      21.954  26.274  27.353  0.00  0.00    +0.000 C 
ATOM     17  C   UNL     1      23.364  26.712  27.575  0.00  0.00    +0.000 C 
ATOM     18  C   UNL     1      23.746  26.539  29.004  0.00  0.00    +0.000 C 
ATOM     19  C   UNL     1      23.557  28.192  27.192  0.00  0.00    +0.000 C 
ENDBRANCH  10  17
ENDBRANCH   1  13
BRANCH   2  20
ATOM     20  C   UNL     1      26.378  23.696  22.121  0.00  0.00    +0.000 C 
ATOM     21  O   UNL     1      25.350  22.758  22.257  0.00  0.00    +0.000 OA
ENDBRANCH   2  20
TORSDOF 3
ENDMDL
MODEL 9
REMARK VINA RESULT:      -6.1     14.521     18.290
REMARK  Name = 
REMARK  3 active torsions:
REMARK  status: ('A' for Active; 'I' for Inactive)
REMARK    1  A    between atoms: C_2  and  C_5
REMARK    2  A    between atoms: C_8  and  N_9
REMARK    3  A    between atoms: C_10  and  C_11
REMARK                            x       y       z     vdW  Elec       q    Type
REMARK                         _______ _______ _______ _____ _____    ______ ____
ROOT
ATOM      1  N   UNL     1      28.954  23.033  29.121  0.00  0.00    +0.000 N 
ATOM      2  C   UNL     1      28.333  23.154  30.285  0.00  0.00    +0.000 A 
ATOM      3  N   UNL     1      29.131  22.745  31.322  0.00  0.00    +0.000 NA
ATOM      4  C   UNL     1      30.309  22.350  30.797  0.00  0.00    +0.000 A 
ATOM      5  C   UNL     1      31.488  21.838  31.279  0.00  0.00    +0.000 A 
ATOM      6  C   UNL     1      32.529  21.510  30.437  0.00  0.00    +0.000 A 
ATOM      7  C   UNL     1      32.425  21.681  29.079  0.00  0.00    +0.000 A 
ATOM      8  C   UNL     1      31.227  22.206  28.577  0.00  0.00    +0.000 A 
ATOM      9  C   UNL     1      30.207  22.526  29.441  0.00  0.00    +0.000 A 
ENDROOT
BRANCH   1  13
ATOM     10  C   UNL     1      27.666  23.833  25.175  0.00  0.00    +0.000 A 
ATOM     11  C   UNL     1      28.326  24.784  25.901  0.00  0.00    +0.000 A 
ATOM     12  C   UNL     1      28.767  24.497  27.187  0.00  0.00    +0.000 A 
ATOM     13  C   UNL     1      28.569  23.285  27.777  0.00  0.00    +0.000 A 
ATOM     14  C   UNL     1      27.905  22.336  27.027  0.00  0.00    +0.000 A 
ATOM     15  C   UNL     1      27.456  22.606  25.727  0.00  0.00    +0.000 A 
BRANCH  10  17
ATOM     16  C   UNL     1      26.934  25.562  23.539  0.00  0.00    +0.000 C 
ATOM     17  C   UNL     1      27.133  24.107  23.806  0.00  0.00    +0.000 C 
ATOM     18  C   UNL     1      28.053  23.512  22.797  0.00  0.00    +0.000 C 
ATOM     19  C   UNL     1      25.797  23.342  23.763  0.00  0.00    +0.000 C 
ENDBRANCH  10  17
ENDBRANCH   1  13
BRANCH   2  20
ATOM     20  C   UNL     1      26.958  23.666  30.512  0.00  0.00    +0.000 C 
ATOM     21  O   UNL     1      26.046  22.614  30.647  0.00  0.00    +0.000 OA
ENDBRANCH   2  20
TORSDOF 3
ENDMDL
MODEL 10
REMARK VINA RESULT:      -6.1     28.723     31.296
REMARK  Name = 
REMARK  3 active torsions:
REMARK  status: ('A' for Active; 'I' for Inactive)
REMARK    1  A    between atoms: C_2  and  C_5
REMARK    2  A    between atoms: C_8  and  N_9
REMARK    3  A    between atoms: C_10  and  C_11
REMARK                            x       y       z     vdW  Elec       q    Type
REMARK                         _______ _______ _______ _____ _____    ______ ____
ROOT
ATOM      1  N   UNL     1      34.554   4.368  36.364  0.00  0.00    +0.000 N 
ATOM      2  C   UNL     1      34.564   3.570  37.422  0.00  0.00    +0.000 A 
ATOM      3  N   UNL     1      34.205   2.290  37.086  0.00  0.00    +0.000 NA
ATOM      4  C   UNL     1      33.959   2.272  35.760  0.00  0.00    +0.000 A 
ATOM      5  C   UNL     1      33.559   1.336  34.839  0.00  0.00    +0.000 A 
ATOM      6  C   UNL     1      33.376   1.664  33.512  0.00  0.00    +0.000 A 
ATOM      7  C   UNL     1      33.585   2.944  33.061  0.00  0.00    +0.000 A 
ATOM      8  C   UNL     1      33.996   3.905  33.993  0.00  0.00    +0.000 A 
ATOM      9  C   UNL     1      34.173   3.549  35.309  0.00  0.00    +0.000 A 
ENDROOT
BRANCH   1  13
ATOM     10  C   UNL     1      35.401   8.489  35.961  0.00  0.00    +0.000 A 
ATOM     11  C   UNL     1      36.246   7.549  35.442  0.00  0.00    +0.000 A 
ATOM     12  C   UNL     1      35.940   6.198  35.559  0.00  0.00    +0.000 A 
ATOM     13  C   UNL     1      34.812   5.753  36.181  0.00  0.00    +0.000 A 
ATOM     14  C   UNL     1      33.970   6.717  36.694  0.00  0.00    +0.000 A 
ATOM     15  C   UNL     1      34.261   8.084  36.583  0.00  0.00    +0.000 A 
BRANCH  10  17
ATOM     16  C   UNL     1      36.563  10.414  37.033  0.00  0.00    +0.000 C 
ATOM     17  C   UNL     1      35.709   9.950  35.900  0.00  0.00    +0.000 C 
ATOM     18  C   UNL     1      36.358  10.258  34.595  0.00  0.00    +0.000 C 
ATOM     19  C   UNL     1      34.325  10.627  35.930  0.00  0.00    +0.000 C 
ENDBRANCH  10  17
ENDBRANCH   1  13
BRANCH   2  20
ATOM     20  C   UNL     1      34.917   3.943  38.814  0.00  0.00    +0.000 C 
ATOM     21  O   UNL     1      33.769   4.187  39.575  0.00  0.00    +0.000 OA
ENDBRANCH   2  20
TORSDOF 3
ENDMDL
