MODEL 1
REMARK VINA RESULT:      -8.7      0.000      0.000
REMARK  Name = 
REMARK  7 active torsions:
REMARK  status: ('A' for Active; 'I' for Inactive)
REMARK    1  A    between atoms: C_3  and  C_4
REMARK    2  A    between atoms: C_4  and  O_6
REMARK    3  A    between atoms: O_6  and  C_7
REMARK    4  A    between atoms: C_7  and  C_8
REMARK    5  A    between atoms: N_24  and  C_25
REMARK    6  A    between atoms: C_25  and  C_26
REMARK    7  A    between atoms: C_26  and  C_27
REMARK                            x       y       z     vdW  Elec       q    Type
REMARK                         _______ _______ _______ _____ _____    ______ ____
ROOT
ATOM      1  N   UNL     1      36.120   4.312  15.010  0.00  0.00    +0.000 NA
ATOM      2  C   UNL     1      36.984   3.190  14.941  0.00  0.00    +0.000 A 
ATOM      3  C   UNL     1      38.339   3.203  14.717  0.00  0.00    +0.000 A 
ATOM      4  C   UNL     1      38.771   1.907  14.732  0.00  0.00    +0.000 A 
ATOM      5  N   UNL     1      39.989   1.393  14.560  0.00  0.00    +0.000 NA
ATOM      6  C   UNL     1      40.163   0.050  14.616  0.00  0.00    +0.000 A 
ATOM      7  C   UNL     1      41.436  -0.500  14.438  0.00  0.00    +0.000 A 
ATOM      8  C   UNL     1      41.571  -1.868  14.501  0.00  0.00    +0.000 A 
ATOM      9  C   UNL     1      40.484  -2.677  14.735  0.00  0.00    +0.000 A 
ATOM     10  C   UNL     1      39.238  -2.113  14.907  0.00  0.00    +0.000 A 
ATOM     11  C   UNL     1      39.053  -0.730  14.851  0.00  0.00    +0.000 A 
ATOM     12  N   UNL     1      37.836  -0.188  15.020  0.00  0.00    +0.000 NA
ATOM     13  C   UNL     1      37.640   1.136  14.970  0.00  0.00    +0.000 A 
ATOM     14  N   UNL     1      36.564   1.918  15.096  0.00  0.00    +0.000 N 
ENDROOT
BRANCH   3  15
ATOM     15  C   UNL     1      39.136   4.422  14.504  0.00  0.00    +0.000 C 
ATOM     16  O   UNL     1      39.220   4.851  13.335  0.00  0.00    +0.000 OA
BRANCH  15  17
ATOM     17  O   UNL     1      39.783   5.100  15.512  0.00  0.00    +0.000 OA
BRANCH  17  18
ATOM     18  C   UNL     1      39.096   5.511  16.704  0.00  0.00    +0.000 C 
BRANCH  18  19
ATOM     19  C   UNL     1      40.035   5.908  17.757  0.00  0.00    +0.000 A 
ATOM     20  C   UNL     1      41.321   6.247  17.407  0.00  0.00    +0.000 A 
ATOM     21  C   UNL     1      42.267   6.633  18.348  0.00  0.00    +0.000 A 
ATOM     22  C   UNL     1      41.936   6.688  19.683  0.00  0.00    +0.000 A 
ATOM     23  C   UNL     1      40.648   6.349  20.042  0.00  0.00    +0.000 A 
ATOM     24  C   UNL     1      39.713   5.966  19.097  0.00  0.00    +0.000 A 
ENDBRANCH  18  19
ENDBRANCH  17  18
ENDBRANCH  15  17
ENDBRANCH   3  15
BRANCH  14  25
ATOM     25  C   UNL     1      35.173   1.509  15.361  0.00  0.00    +0.000 C 
BRANCH  25  26
ATOM     26  C   UNL     1      34.971   1.424  16.841  0.00  0.00    +0.000 C 
BRANCH  26  27
ATOM     27  C   UNL     1      35.196   0.067  17.365  0.00  0.00    +0.000 C 
ATOM     28  C   UNL     1      35.026  -1.043  16.656  0.00  0.00    +0.000 C 
ATOM     29  C   UNL     1      35.314  -2.328  17.391  0.00  0.00    +0.000 C 
ATOM     30  C   UNL     1      36.728  -2.200  17.915  0.00  0.00    +0.000 C 
ATOM     31  C   UNL     1      36.880  -0.987  18.799  0.00  0.00    +0.000 C 
ATOM     32  C   UNL     1      35.667  -0.087  18.772  0.00  0.00    +0.000 C 
ENDBRANCH  26  27
ENDBRANCH  25  26
ENDBRANCH  14  25
TORSDOF 7
ENDMDL
MODEL 2
REMARK VINA RESULT:      -8.4      1.646      6.797
REMARK  Name = 
REMARK  7 active torsions:
REMARK  status: ('A' for Active; 'I' for Inactive)
REMARK    1  A    between atoms: C_3  and  C_4
REMARK    2  A    between atoms: C_4  and  O_6
REMARK    3  A    between atoms: O_6  and  C_7
REMARK    4  A    between atoms: C_7  and  C_8
REMARK    5  A    between atoms: N_24  and  C_25
REMARK    6  A    between atoms: C_25  and  C_26
REMARK    7  A    between atoms: C_26  and  C_27
REMARK                            x       y       z     vdW  Elec       q    Type
REMARK                         _______ _______ _______ _____ _____    ______ ____
ROOT
ATOM      1  N   UNL     1      40.074   5.211  14.738  0.00  0.00    +0.000 NA
ATOM      2  C   UNL     1      39.209   4.134  15.061  0.00  0.00    +0.000 A 
ATOM      3  C   UNL     1      39.101   2.935  14.403  0.00  0.00    +0.000 A 
ATOM      4  C   UNL     1      38.151   2.194  15.049  0.00  0.00    +0.000 A 
ATOM      5  N   UNL     1      37.681   0.973  14.799  0.00  0.00    +0.000 NA
ATOM      6  C   UNL     1      36.717   0.450  15.596  0.00  0.00    +0.000 A 
ATOM      7  C   UNL     1      36.217  -0.831  15.344  0.00  0.00    +0.000 A 
ATOM      8  C   UNL     1      35.239  -1.325  16.176  0.00  0.00    +0.000 A 
ATOM      9  C   UNL     1      34.764  -0.582  17.231  0.00  0.00    +0.000 A 
ATOM     10  C   UNL     1      35.272   0.679  17.460  0.00  0.00    +0.000 A 
ATOM     11  C   UNL     1      36.264   1.222  16.642  0.00  0.00    +0.000 A 
ATOM     12  N   UNL     1      36.755   2.451  16.873  0.00  0.00    +0.000 NA
ATOM     13  C   UNL     1      37.707   2.988  16.099  0.00  0.00    +0.000 A 
ATOM     14  N   UNL     1      38.350   4.158  16.101  0.00  0.00    +0.000 N 
ENDROOT
BRANCH   3  15
ATOM     15  C   UNL     1      39.890   2.561  13.217  0.00  0.00    +0.000 C 
ATOM     16  O   UNL     1      39.490   2.982  12.111  0.00  0.00    +0.000 OA
BRANCH  15  17
ATOM     17  O   UNL     1      41.025   1.784  13.265  0.00  0.00    +0.000 OA
BRANCH  17  18
ATOM     18  C   UNL     1      41.144   0.579  12.493  0.00  0.00    +0.000 C 
BRANCH  18  19
ATOM     19  C   UNL     1      40.457  -0.542  13.138  0.00  0.00    +0.000 A 
ATOM     20  C   UNL     1      40.784  -0.865  14.435  0.00  0.00    +0.000 A 
ATOM     21  C   UNL     1      40.176  -1.914  15.113  0.00  0.00    +0.000 A 
ATOM     22  C   UNL     1      39.210  -2.675  14.493  0.00  0.00    +0.000 A 
ATOM     23  C   UNL     1      38.877  -2.357  13.192  0.00  0.00    +0.000 A 
ATOM     24  C   UNL     1      39.488  -1.310  12.526  0.00  0.00    +0.000 A 
ENDBRANCH  18  19
ENDBRANCH  17  18
ENDBRANCH  15  17
ENDBRANCH   3  15
BRANCH  14  25
ATOM     25  C   UNL     1      38.189   5.280  17.044  0.00  0.00    +0.000 C 
BRANCH  25  26
ATOM     26  C   UNL     1      38.929   4.958  18.305  0.00  0.00    +0.000 C 
BRANCH  26  27
ATOM     27  C   UNL     1      39.747   6.085  18.782  0.00  0.00    +0.000 C 
ATOM     28  C   UNL     1      39.436   6.841  19.829  0.00  0.00    +0.000 C 
ATOM     29  C   UNL     1      40.416   7.944  20.142  0.00  0.00    +0.000 C 
ATOM     30  C   UNL     1      41.760   7.269  20.308  0.00  0.00    +0.000 C 
ATOM     31  C   UNL     1      42.145   6.494  19.073  0.00  0.00    +0.000 C 
ATOM     32  C   UNL     1      41.020   6.396  18.069  0.00  0.00    +0.000 C 
ENDBRANCH  26  27
ENDBRANCH  25  26
ENDBRANCH  14  25
TORSDOF 7
ENDMDL
MODEL 3
REMARK VINA RESULT:      -8.4      2.268      6.867
REMARK  Name = 
REMARK  7 active torsions:
REMARK  status: ('A' for Active; 'I' for Inactive)
REMARK    1  A    between atoms: C_3  and  C_4
REMARK    2  A    between atoms: C_4  and  O_6
REMARK    3  A    between atoms: O_6  and  C_7
REMARK    4  A    between atoms: C_7  and  C_8
REMARK    5  A    between atoms: N_24  and  C_25
REMARK    6  A    between atoms: C_25  and  C_26
REMARK    7  A    between atoms: C_26  and  C_27
REMARK                            x       y       z     vdW  Elec       q    Type
REMARK                         _______ _______ _______ _____ _____    ______ ____
ROOT
ATOM      1  N   UNL     1      36.323   0.442  13.816  0.00  0.00    +0.000 NA
ATOM      2  C   UNL     1      36.963   1.481  14.539  0.00  0.00    +0.000 A 
ATOM      3  C   UNL     1      36.648   1.926  15.799  0.00  0.00    +0.000 A 
ATOM      4  C   UNL     1      37.515   2.937  16.107  0.00  0.00    +0.000 A 
ATOM      5  N   UNL     1      37.619   3.691  17.201  0.00  0.00    +0.000 NA
ATOM      6  C   UNL     1      38.575   4.649  17.265  0.00  0.00    +0.000 A 
ATOM      7  C   UNL     1      38.695   5.447  18.408  0.00  0.00    +0.000 A 
ATOM      8  C   UNL     1      39.678   6.408  18.433  0.00  0.00    +0.000 A 
ATOM      9  C   UNL     1      40.525   6.584  17.364  0.00  0.00    +0.000 A 
ATOM     10  C   UNL     1      40.389   5.787  16.248  0.00  0.00    +0.000 A 
ATOM     11  C   UNL     1      39.406   4.798  16.176  0.00  0.00    +0.000 A 
ATOM     12  N   UNL     1      39.280   4.025  15.086  0.00  0.00    +0.000 NA
ATOM     13  C   UNL     1      38.343   3.072  15.000  0.00  0.00    +0.000 A 
ATOM     14  N   UNL     1      38.004   2.189  14.057  0.00  0.00    +0.000 N 
ENDROOT
BRANCH   3  15
ATOM     15  C   UNL     1      35.561   1.380  16.628  0.00  0.00    +0.000 C 
ATOM     16  O   UNL     1      34.479   2.002  16.631  0.00  0.00    +0.000 OA
BRANCH  15  17
ATOM     17  O   UNL     1      35.677   0.237  17.388  0.00  0.00    +0.000 OA
BRANCH  17  18
ATOM     18  C   UNL     1      35.276  -1.045  16.882  0.00  0.00    +0.000 C 
BRANCH  18  19
ATOM     19  C   UNL     1      36.426  -1.934  16.699  0.00  0.00    +0.000 A 
ATOM     20  C   UNL     1      37.555  -1.725  17.457  0.00  0.00    +0.000 A 
ATOM     21  C   UNL     1      38.685  -2.525  17.340  0.00  0.00    +0.000 A 
ATOM     22  C   UNL     1      38.705  -3.572  16.446  0.00  0.00    +0.000 A 
ATOM     23  C   UNL     1      37.576  -3.788  15.683  0.00  0.00    +0.000 A 
ATOM     24  C   UNL     1      36.456  -2.985  15.806  0.00  0.00    +0.000 A 
ENDBRANCH  18  19
ENDBRANCH  17  18
ENDBRANCH  15  17
ENDBRANCH   3  15
BRANCH  14  25
ATOM     25  C   UNL     1      38.628   1.990  12.735  0.00  0.00    +0.000 C 
BRANCH  25  26
ATOM     26  C   UNL     1      39.951   1.317  12.925  0.00  0.00    +0.000 C 
BRANCH  26  27
ATOM     27  C   UNL     1      39.817  -0.122  13.205  0.00  0.00    +0.000 C 
ATOM     28  C   UNL     1      39.391  -1.017  12.320  0.00  0.00    +0.000 C 
ATOM     29  C   UNL     1      39.329  -2.439  12.819  0.00  0.00    +0.000 C 
ATOM     30  C   UNL     1      40.718  -2.760  13.328  0.00  0.00    +0.000 C 
ATOM     31  C   UNL     1      41.149  -1.793  14.403  0.00  0.00    +0.000 C 
ATOM     32  C   UNL     1      40.201  -0.627  14.555  0.00  0.00    +0.000 C 
ENDBRANCH  26  27
ENDBRANCH  25  26
ENDBRANCH  14  25
TORSDOF 7
ENDMDL
MODEL 4
REMARK VINA RESULT:      -8.2      1.274      2.209
REMARK  Name = 
REMARK  7 active torsions:
REMARK  status: ('A' for Active; 'I' for Inactive)
REMARK    1  A    between atoms: C_3  and  C_4
REMARK    2  A    between atoms: C_4  and  O_6
REMARK    3  A    between atoms: O_6  and  C_7
REMARK    4  A    between atoms: C_7  and  C_8
REMARK    5  A    between atoms: N_24  and  C_25
REMARK    6  A    between atoms: C_25  and  C_26
REMARK    7  A    between atoms: C_26  and  C_27
REMARK                            x       y       z     vdW  Elec       q    Type
REMARK                         _______ _______ _______ _____ _____    ______ ____
ROOT
ATOM      1  N   UNL     1      35.825   1.239  15.247  0.00  0.00    +0.000 NA
ATOM      2  C   UNL     1      37.129   0.770  14.948  0.00  0.00    +0.000 A 
ATOM      3  C   UNL     1      38.277   1.518  14.862  0.00  0.00    +0.000 A 
ATOM      4  C   UNL     1      39.301   0.668  14.555  0.00  0.00    +0.000 A 
ATOM      5  N   UNL     1      40.598   0.902  14.360  0.00  0.00    +0.000 NA
ATOM      6  C   UNL     1      41.427  -0.127  14.055  0.00  0.00    +0.000 A 
ATOM      7  C   UNL     1      42.790   0.106  13.849  0.00  0.00    +0.000 A 
ATOM      8  C   UNL     1      43.596  -0.965  13.542  0.00  0.00    +0.000 A 
ATOM      9  C   UNL     1      43.080  -2.234  13.440  0.00  0.00    +0.000 A 
ATOM     10  C   UNL     1      41.733  -2.441  13.647  0.00  0.00    +0.000 A 
ATOM     11  C   UNL     1      40.875  -1.385  13.960  0.00  0.00    +0.000 A 
ATOM     12  N   UNL     1      39.564  -1.595  14.162  0.00  0.00    +0.000 NA
ATOM     13  C   UNL     1      38.727  -0.594  14.464  0.00  0.00    +0.000 A 
ATOM     14  N   UNL     1      37.415  -0.525  14.703  0.00  0.00    +0.000 N 
ENDROOT
BRANCH   3  15
ATOM     15  C   UNL     1      38.339   2.974  15.071  0.00  0.00    +0.000 C 
ATOM     16  O   UNL     1      38.267   3.699  14.057  0.00  0.00    +0.000 OA
BRANCH  15  17
ATOM     17  O   UNL     1      38.472   3.566  16.307  0.00  0.00    +0.000 OA
BRANCH  17  18
ATOM     18  C   UNL     1      38.343   4.986  16.478  0.00  0.00    +0.000 C 
BRANCH  18  19
ATOM     19  C   UNL     1      39.364   5.514  17.386  0.00  0.00    +0.000 A 
ATOM     20  C   UNL     1      40.554   5.961  16.860  0.00  0.00    +0.000 A 
ATOM     21  C   UNL     1      41.570   6.475  17.656  0.00  0.00    +0.000 A 
ATOM     22  C   UNL     1      41.410   6.552  19.022  0.00  0.00    +0.000 A 
ATOM     23  C   UNL     1      40.219   6.105  19.556  0.00  0.00    +0.000 A 
ATOM     24  C   UNL     1      39.213   5.595  18.755  0.00  0.00    +0.000 A 
ENDBRANCH  18  19
ENDBRANCH  17  18
ENDBRANCH  15  17
ENDBRANCH   3  15
BRANCH  14  25
ATOM     25  C   UNL     1      36.437  -1.628  14.715  0.00  0.00    +0.000 C 
BRANCH  25  26
ATOM     26  C   UNL     1      36.870  -2.644  15.724  0.00  0.00    +0.000 C 
BRANCH  26  27
ATOM     27  C   UNL     1      36.626  -2.205  17.108  0.00  0.00    +0.000 C 
ATOM     28  C   UNL     1      37.576  -2.073  18.027  0.00  0.00    +0.000 C 
ATOM     29  C   UNL     1      37.102  -1.610  19.382  0.00  0.00    +0.000 C 
ATOM     30  C   UNL     1      36.360  -0.314  19.142  0.00  0.00    +0.000 C 
ATOM     31  C   UNL     1      35.222  -0.501  18.170  0.00  0.00    +0.000 C 
ATOM     32  C   UNL     1      35.232  -1.861  17.513  0.00  0.00    +0.000 C 
ENDBRANCH  26  27
ENDBRANCH  25  26
ENDBRANCH  14  25
TORSDOF 7
ENDMDL
MODEL 5
REMARK VINA RESULT:      -8.0      3.241      6.521
REMARK  Name = 
REMARK  7 active torsions:
REMARK  status: ('A' for Active; 'I' for Inactive)
REMARK    1  A    between atoms: C_3  and  C_4
REMARK    2  A    between atoms: C_4  and  O_6
REMARK    3  A    between atoms: O_6  and  C_7
REMARK    4  A    between atoms: C_7  and  C_8
REMARK    5  A    between atoms: N_24  and  C_25
REMARK    6  A    between atoms: C_25  and  C_26
REMARK    7  A    between atoms: C_26  and  C_27
REMARK                            x       y       z     vdW  Elec       q    Type
REMARK                         _______ _______ _______ _____ _____    ______ ____
ROOT
ATOM      1  N   UNL     1      38.245   0.658  15.563  0.00  0.00    +0.000 NA
ATOM      2  C   UNL     1      37.637   1.761  14.912  0.00  0.00    +0.000 A 
ATOM      3  C   UNL     1      37.878   2.204  13.635  0.00  0.00    +0.000 A 
ATOM      4  C   UNL     1      37.078   3.290  13.417  0.00  0.00    +0.000 A 
ATOM      5  N   UNL     1      36.945   4.072  12.347  0.00  0.00    +0.000 NA
ATOM      6  C   UNL     1      36.073   5.109  12.379  0.00  0.00    +0.000 A 
ATOM      7  C   UNL     1      35.924   5.937  11.262  0.00  0.00    +0.000 A 
ATOM      8  C   UNL     1      35.029   6.978  11.335  0.00  0.00    +0.000 A 
ATOM      9  C   UNL     1      34.296   7.203  12.477  0.00  0.00    +0.000 A 
ATOM     10  C   UNL     1      34.459   6.376  13.566  0.00  0.00    +0.000 A 
ATOM     11  C   UNL     1      35.356   5.306  13.539  0.00  0.00    +0.000 A 
ATOM     12  N   UNL     1      35.509   4.503  14.604  0.00  0.00    +0.000 NA
ATOM     13  C   UNL     1      36.364   3.473  14.595  0.00  0.00    +0.000 A 
ATOM     14  N   UNL     1      36.706   2.546  15.493  0.00  0.00    +0.000 N 
ENDROOT
BRANCH   3  15
ATOM     15  C   UNL     1      38.837   1.584  12.707  0.00  0.00    +0.000 C 
ATOM     16  O   UNL     1      39.977   2.091  12.642  0.00  0.00    +0.000 OA
BRANCH  15  17
ATOM     17  O   UNL     1      38.547   0.493  11.919  0.00  0.00    +0.000 OA
BRANCH  17  18
ATOM     18  C   UNL     1      39.436  -0.632  11.835  0.00  0.00    +0.000 C 
BRANCH  18  19
ATOM     19  C   UNL     1      39.384  -1.449  13.050  0.00  0.00    +0.000 A 
ATOM     20  C   UNL     1      38.203  -2.071  13.383  0.00  0.00    +0.000 A 
ATOM     21  C   UNL     1      38.077  -2.861  14.518  0.00  0.00    +0.000 A 
ATOM     22  C   UNL     1      39.152  -3.049  15.357  0.00  0.00    +0.000 A 
ATOM     23  C   UNL     1      40.340  -2.428  15.029  0.00  0.00    +0.000 A 
ATOM     24  C   UNL     1      40.456  -1.643  13.897  0.00  0.00    +0.000 A 
ENDBRANCH  18  19
ENDBRANCH  17  18
ENDBRANCH  15  17
ENDBRANCH   3  15
BRANCH  14  25
ATOM     25  C   UNL     1      36.184   2.374  16.862  0.00  0.00    +0.000 C 
BRANCH  25  26
ATOM     26  C   UNL     1      34.962   1.513  16.805  0.00  0.00    +0.000 C 
BRANCH  26  27
ATOM     27  C   UNL     1      35.203   0.155  17.320  0.00  0.00    +0.000 C 
ATOM     28  C   UNL     1      35.171  -0.943  16.572  0.00  0.00    +0.000 C 
ATOM     29  C   UNL     1      35.448  -2.231  17.305  0.00  0.00    +0.000 C 
ATOM     30  C   UNL     1      36.788  -2.045  17.982  0.00  0.00    +0.000 C 
ATOM     31  C   UNL     1      36.779  -0.850  18.904  0.00  0.00    +0.000 C 
ATOM     32  C   UNL     1      35.529  -0.014  18.766  0.00  0.00    +0.000 C 
ENDBRANCH  26  27
ENDBRANCH  25  26
ENDBRANCH  14  25
TORSDOF 7
ENDMDL
MODEL 6
REMARK VINA RESULT:      -8.0      1.868      4.390
REMARK  Name = 
REMARK  7 active torsions:
REMARK  status: ('A' for Active; 'I' for Inactive)
REMARK    1  A    between atoms: C_3  and  C_4
REMARK    2  A    between atoms: C_4  and  O_6
REMARK    3  A    between atoms: O_6  and  C_7
REMARK    4  A    between atoms: C_7  and  C_8
REMARK    5  A    between atoms: N_24  and  C_25
REMARK    6  A    between atoms: C_25  and  C_26
REMARK    7  A    between atoms: C_26  and  C_27
REMARK                            x       y       z     vdW  Elec       q    Type
REMARK                         _______ _______ _______ _____ _____    ______ ____
ROOT
ATOM      1  N   UNL     1      38.059   3.574  12.020  0.00  0.00    +0.000 NA
ATOM      2  C   UNL     1      37.485   2.617  12.895  0.00  0.00    +0.000 A 
ATOM      3  C   UNL     1      36.752   2.867  14.029  0.00  0.00    +0.000 A 
ATOM      4  C   UNL     1      36.396   1.662  14.565  0.00  0.00    +0.000 A 
ATOM      5  N   UNL     1      35.692   1.369  15.657  0.00  0.00    +0.000 NA
ATOM      6  C   UNL     1      35.475   0.072  15.986  0.00  0.00    +0.000 A 
ATOM      7  C   UNL     1      34.736  -0.248  17.130  0.00  0.00    +0.000 A 
ATOM      8  C   UNL     1      34.539  -1.576  17.429  0.00  0.00    +0.000 A 
ATOM      9  C   UNL     1      35.052  -2.567  16.626  0.00  0.00    +0.000 A 
ATOM     10  C   UNL     1      35.777  -2.229  15.504  0.00  0.00    +0.000 A 
ATOM     11  C   UNL     1      36.004  -0.895  15.160  0.00  0.00    +0.000 A 
ATOM     12  N   UNL     1      36.710  -0.573  14.065  0.00  0.00    +0.000 NA
ATOM     13  C   UNL     1      36.937   0.701  13.719  0.00  0.00    +0.000 A 
ATOM     14  N   UNL     1      37.593   1.284  12.713  0.00  0.00    +0.000 N 
ENDROOT
BRANCH   3  15
ATOM     15  C   UNL     1      36.434   4.213  14.534  0.00  0.00    +0.000 C 
ATOM     16  O   UNL     1      35.447   4.792  14.034  0.00  0.00    +0.000 OA
BRANCH  15  17
ATOM     17  O   UNL     1      37.159   4.855  15.512  0.00  0.00    +0.000 OA
BRANCH  17  18
ATOM     18  C   UNL     1      37.848   4.125  16.539  0.00  0.00    +0.000 C 
BRANCH  18  19
ATOM     19  C   UNL     1      38.874   4.946  17.187  0.00  0.00    +0.000 A 
ATOM     20  C   UNL     1      39.851   5.525  16.411  0.00  0.00    +0.000 A 
ATOM     21  C   UNL     1      40.856   6.316  16.953  0.00  0.00    +0.000 A 
ATOM     22  C   UNL     1      40.901   6.549  18.309  0.00  0.00    +0.000 A 
ATOM     23  C   UNL     1      39.924   5.971  19.094  0.00  0.00    +0.000 A 
ATOM     24  C   UNL     1      38.928   5.185  18.545  0.00  0.00    +0.000 A 
ENDBRANCH  18  19
ENDBRANCH  17  18
ENDBRANCH  15  17
ENDBRANCH   3  15
BRANCH  14  25
ATOM     25  C   UNL     1      38.303   0.635  11.596  0.00  0.00    +0.000 C 
BRANCH  25  26
ATOM     26  C   UNL     1      39.762   0.574  11.923  0.00  0.00    +0.000 C 
BRANCH  26  27
ATOM     27  C   UNL     1      40.107  -0.600  12.741  0.00  0.00    +0.000 C 
ATOM     28  C   UNL     1      40.581  -0.533  13.980  0.00  0.00    +0.000 C 
ATOM     29  C   UNL     1      40.869  -1.861  14.634  0.00  0.00    +0.000 C 
ATOM     30  C   UNL     1      39.579  -2.648  14.562  0.00  0.00    +0.000 C 
ATOM     31  C   UNL     1      39.106  -2.801  13.137  0.00  0.00    +0.000 C 
ATOM     32  C   UNL     1      39.898  -1.960  12.164  0.00  0.00    +0.000 C 
ENDBRANCH  26  27
ENDBRANCH  25  26
ENDBRANCH  14  25
TORSDOF 7
ENDMDL
MODEL 7
REMARK VINA RESULT:      -7.7      1.550      5.661
REMARK  Name = 
REMARK  7 active torsions:
REMARK  status: ('A' for Active; 'I' for Inactive)
REMARK    1  A    between atoms: C_3  and  C_4
REMARK    2  A    between atoms: C_4  and  O_6
REMARK    3  A    between atoms: O_6  and  C_7
REMARK    4  A    between atoms: C_7  and  C_8
REMARK    5  A    between atoms: N_24  and  C_25
REMARK    6  A    between atoms: C_25  and  C_26
REMARK    7  A    between atoms: C_26  and  C_27
REMARK                            x       y       z     vdW  Elec       q    Type
REMARK                         _______ _______ _______ _____ _____    ______ ____
ROOT
ATOM      1  N   UNL     1      36.325   1.480  13.333  0.00  0.00    +0.000 NA
ATOM      2  C   UNL     1      37.047   2.336  14.202  0.00  0.00    +0.000 A 
ATOM      3  C   UNL     1      38.142   3.102  13.886  0.00  0.00    +0.000 A 
ATOM      4  C   UNL     1      38.518   3.770  15.017  0.00  0.00    +0.000 A 
ATOM      5  N   UNL     1      39.517   4.627  15.230  0.00  0.00    +0.000 NA
ATOM      6  C   UNL     1      39.689   5.160  16.464  0.00  0.00    +0.000 A 
ATOM      7  C   UNL     1      40.733   6.060  16.700  0.00  0.00    +0.000 A 
ATOM      8  C   UNL     1      40.873   6.579  17.966  0.00  0.00    +0.000 A 
ATOM      9  C   UNL     1      40.011   6.225  18.977  0.00  0.00    +0.000 A 
ATOM     10  C   UNL     1      38.989   5.336  18.722  0.00  0.00    +0.000 A 
ATOM     11  C   UNL     1      38.807   4.783  17.453  0.00  0.00    +0.000 A 
ATOM     12  N   UNL     1      37.809   3.919  17.211  0.00  0.00    +0.000 NA
ATOM     13  C   UNL     1      37.619   3.379  16.001  0.00  0.00    +0.000 A 
ATOM     14  N   UNL     1      36.734   2.513  15.502  0.00  0.00    +0.000 N 
ENDROOT
BRANCH   3  15
ATOM     15  C   UNL     1      38.761   3.158  12.552  0.00  0.00    +0.000 C 
ATOM     16  O   UNL     1      38.707   4.246  11.942  0.00  0.00    +0.000 OA
BRANCH  15  17
ATOM     17  O   UNL     1      39.387   2.088  11.951  0.00  0.00    +0.000 OA
BRANCH  17  18
ATOM     18  C   UNL     1      40.485   1.409  12.581  0.00  0.00    +0.000 C 
BRANCH  18  19
ATOM     19  C   UNL     1      40.073   0.115  13.130  0.00  0.00    +0.000 A 
ATOM     20  C   UNL     1      40.677  -0.342  14.279  0.00  0.00    +0.000 A 
ATOM     21  C   UNL     1      40.341  -1.558  14.859  0.00  0.00    +0.000 A 
ATOM     22  C   UNL     1      39.373  -2.355  14.290  0.00  0.00    +0.000 A 
ATOM     23  C   UNL     1      38.763  -1.903  13.138  0.00  0.00    +0.000 A 
ATOM     24  C   UNL     1      39.105  -0.691  12.567  0.00  0.00    +0.000 A 
ENDBRANCH  18  19
ENDBRANCH  17  18
ENDBRANCH  15  17
ENDBRANCH   3  15
BRANCH  14  25
ATOM     25  C   UNL     1      35.610   1.861  16.201  0.00  0.00    +0.000 C 
BRANCH  25  26
ATOM     26  C   UNL     1      35.551   0.426  15.781  0.00  0.00    +0.000 C 
BRANCH  26  27
ATOM     27  C   UNL     1      36.031  -0.489  16.829  0.00  0.00    +0.000 C 
ATOM     28  C   UNL     1      37.239  -1.043  16.839  0.00  0.00    +0.000 C 
ATOM     29  C   UNL     1      37.522  -1.951  18.010  0.00  0.00    +0.000 C 
ATOM     30  C   UNL     1      37.267  -1.121  19.250  0.00  0.00    +0.000 C 
ATOM     31  C   UNL     1      35.859  -0.580  19.271  0.00  0.00    +0.000 C 
ATOM     32  C   UNL     1      35.125  -0.807  17.971  0.00  0.00    +0.000 C 
ENDBRANCH  26  27
ENDBRANCH  25  26
ENDBRANCH  14  25
TORSDOF 7
ENDMDL
MODEL 8
REMARK VINA RESULT:      -7.6      3.713      6.050
REMARK  Name = 
REMARK  7 active torsions:
REMARK  status: ('A' for Active; 'I' for Inactive)
REMARK    1  A    between atoms: C_3  and  C_4
REMARK    2  A    between atoms: C_4  and  O_6
REMARK    3  A    between atoms: O_6  and  C_7
REMARK    4  A    between atoms: C_7  and  C_8
REMARK    5  A    between atoms: N_24  and  C_25
REMARK    6  A    between atoms: C_25  and  C_26
REMARK    7  A    between atoms: C_26  and  C_27
REMARK                            x       y       z     vdW  Elec       q    Type
REMARK                         _______ _______ _______ _____ _____    ______ ____
ROOT
ATOM      1  N   UNL     1      35.951   4.108  14.256  0.00  0.00    +0.000 NA
ATOM      2  C   UNL     1      36.798   2.971  14.252  0.00  0.00    +0.000 A 
ATOM      3  C   UNL     1      37.608   2.547  13.228  0.00  0.00    +0.000 A 
ATOM      4  C   UNL     1      38.247   1.415  13.649  0.00  0.00    +0.000 A 
ATOM      5  N   UNL     1      39.125   0.629  13.027  0.00  0.00    +0.000 NA
ATOM      6  C   UNL     1      39.620  -0.459  13.666  0.00  0.00    +0.000 A 
ATOM      7  C   UNL     1      40.543  -1.291  13.025  0.00  0.00    +0.000 A 
ATOM      8  C   UNL     1      41.020  -2.385  13.708  0.00  0.00    +0.000 A 
ATOM      9  C   UNL     1      40.604  -2.658  14.989  0.00  0.00    +0.000 A 
ATOM     10  C   UNL     1      39.694  -1.824  15.602  0.00  0.00    +0.000 A 
ATOM     11  C   UNL     1      39.181  -0.702  14.949  0.00  0.00    +0.000 A 
ATOM     12  N   UNL     1      38.295   0.106  15.553  0.00  0.00    +0.000 NA
ATOM     13  C   UNL     1      37.793   1.186  14.941  0.00  0.00    +0.000 A 
ATOM     14  N   UNL     1      36.918   2.130  15.300  0.00  0.00    +0.000 N 
ENDROOT
BRANCH   3  15
ATOM     15  C   UNL     1      37.730   3.227  11.927  0.00  0.00    +0.000 C 
ATOM     16  O   UNL     1      38.447   4.248  11.883  0.00  0.00    +0.000 OA
BRANCH  15  17
ATOM     17  O   UNL     1      37.103   2.801  10.778  0.00  0.00    +0.000 OA
BRANCH  17  18
ATOM     18  C   UNL     1      36.710   3.724   9.751  0.00  0.00    +0.000 C 
BRANCH  18  19
ATOM     19  C   UNL     1      36.510   3.046   8.467  0.00  0.00    +0.000 A 
ATOM     20  C   UNL     1      36.944   1.749   8.326  0.00  0.00    +0.000 A 
ATOM     21  C   UNL     1      36.790   1.041   7.140  0.00  0.00    +0.000 A 
ATOM     22  C   UNL     1      36.187   1.631   6.053  0.00  0.00    +0.000 A 
ATOM     23  C   UNL     1      35.750   2.933   6.187  0.00  0.00    +0.000 A 
ATOM     24  C   UNL     1      35.907   3.629   7.371  0.00  0.00    +0.000 A 
ENDBRANCH  18  19
ENDBRANCH  17  18
ENDBRANCH  15  17
ENDBRANCH   3  15
BRANCH  14  25
ATOM     25  C   UNL     1      36.207   2.267  16.584  0.00  0.00    +0.000 C 
BRANCH  25  26
ATOM     26  C   UNL     1      34.974   1.421  16.544  0.00  0.00    +0.000 C 
BRANCH  26  27
ATOM     27  C   UNL     1      35.174   0.101  17.164  0.00  0.00    +0.000 C 
ATOM     28  C   UNL     1      35.080  -1.052  16.512  0.00  0.00    +0.000 C 
ATOM     29  C   UNL     1      35.323  -2.286  17.344  0.00  0.00    +0.000 C 
ATOM     30  C   UNL     1      36.686  -2.101  17.974  0.00  0.00    +0.000 C 
ATOM     31  C   UNL     1      36.748  -0.835  18.793  0.00  0.00    +0.000 C 
ATOM     32  C   UNL     1      35.529   0.038  18.612  0.00  0.00    +0.000 C 
ENDBRANCH  26  27
ENDBRANCH  25  26
ENDBRANCH  14  25
TORSDOF 7
ENDMDL
MODEL 9
REMARK VINA RESULT:      -7.6      3.765      7.243
REMARK  Name = 
REMARK  7 active torsions:
REMARK  status: ('A' for Active; 'I' for Inactive)
REMARK    1  A    between atoms: C_3  and  C_4
REMARK    2  A    between atoms: C_4  and  O_6
REMARK    3  A    between atoms: O_6  and  C_7
REMARK    4  A    between atoms: C_7  and  C_8
REMARK    5  A    between atoms: N_24  and  C_25
REMARK    6  A    between atoms: C_25  and  C_26
REMARK    7  A    between atoms: C_26  and  C_27
REMARK                            x       y       z     vdW  Elec       q    Type
REMARK                         _______ _______ _______ _____ _____    ______ ____
ROOT
ATOM      1  N   UNL     1      38.068   0.025  15.657  0.00  0.00    +0.000 NA
ATOM      2  C   UNL     1      37.479   1.206  15.138  0.00  0.00    +0.000 A 
ATOM      3  C   UNL     1      36.445   1.924  15.687  0.00  0.00    +0.000 A 
ATOM      4  C   UNL     1      36.196   2.984  14.862  0.00  0.00    +0.000 A 
ATOM      5  N   UNL     1      35.296   3.963  14.950  0.00  0.00    +0.000 NA
ATOM      6  C   UNL     1      35.243   4.913  13.984  0.00  0.00    +0.000 A 
ATOM      7  C   UNL     1      34.303   5.945  14.066  0.00  0.00    +0.000 A 
ATOM      8  C   UNL     1      34.283   6.889  13.066  0.00  0.00    +0.000 A 
ATOM      9  C   UNL     1      35.163   6.825  12.012  0.00  0.00    +0.000 A 
ATOM     10  C   UNL     1      36.081   5.799  11.952  0.00  0.00    +0.000 A 
ATOM     11  C   UNL     1      36.139   4.817  12.943  0.00  0.00    +0.000 A 
ATOM     12  N   UNL     1      37.037   3.821  12.878  0.00  0.00    +0.000 NA
ATOM     13  C   UNL     1      37.108   2.871  13.820  0.00  0.00    +0.000 A 
ATOM     14  N   UNL     1      37.880   1.795  13.993  0.00  0.00    +0.000 N 
ENDROOT
BRANCH   3  15
ATOM     15  C   UNL     1      35.760   1.570  16.941  0.00  0.00    +0.000 C 
ATOM     16  O   UNL     1      34.511   1.565  16.926  0.00  0.00    +0.000 OA
BRANCH  15  17
ATOM     17  O   UNL     1      36.415   1.253  18.109  0.00  0.00    +0.000 OA
BRANCH  17  18
ATOM     18  C   UNL     1      35.993   0.154  18.933  0.00  0.00    +0.000 C 
BRANCH  18  19
ATOM     19  C   UNL     1      36.619  -1.102  18.515  0.00  0.00    +0.000 A 
ATOM     20  C   UNL     1      35.958  -1.910  17.619  0.00  0.00    +0.000 A 
ATOM     21  C   UNL     1      36.487  -3.115  17.177  0.00  0.00    +0.000 A 
ATOM     22  C   UNL     1      37.715  -3.543  17.631  0.00  0.00    +0.000 A 
ATOM     23  C   UNL     1      38.384  -2.738  18.530  0.00  0.00    +0.000 A 
ATOM     24  C   UNL     1      37.848  -1.540  18.965  0.00  0.00    +0.000 A 
ENDBRANCH  18  19
ENDBRANCH  17  18
ENDBRANCH  15  17
ENDBRANCH   3  15
BRANCH  14  25
ATOM     25  C   UNL     1      38.974   1.316  13.129  0.00  0.00    +0.000 C 
BRANCH  25  26
ATOM     26  C   UNL     1      38.385   0.531  11.999  0.00  0.00    +0.000 C 
BRANCH  26  27
ATOM     27  C   UNL     1      38.935  -0.832  11.912  0.00  0.00    +0.000 C 
ATOM     28  C   UNL     1      39.885  -1.200  11.059  0.00  0.00    +0.000 C 
ATOM     29  C   UNL     1      40.299  -2.648  11.141  0.00  0.00    +0.000 C 
ATOM     30  C   UNL     1      40.705  -2.883  12.579  0.00  0.00    +0.000 C 
ATOM     31  C   UNL     1      39.581  -2.554  13.530  0.00  0.00    +0.000 C 
ATOM     32  C   UNL     1      38.418  -1.872  12.848  0.00  0.00    +0.000 C 
ENDBRANCH  26  27
ENDBRANCH  25  26
ENDBRANCH  14  25
TORSDOF 7
ENDMDL
MODEL 10
REMARK VINA RESULT:      -7.6      2.067      6.581
REMARK  Name = 
REMARK  7 active torsions:
REMARK  status: ('A' for Active; 'I' for Inactive)
REMARK    1  A    between atoms: C_3  and  C_4
REMARK    2  A    between atoms: C_4  and  O_6
REMARK    3  A    between atoms: O_6  and  C_7
REMARK    4  A    between atoms: C_7  and  C_8
REMARK    5  A    between atoms: N_24  and  C_25
REMARK    6  A    between atoms: C_25  and  C_26
REMARK    7  A    between atoms: C_26  and  C_27
REMARK                            x       y       z     vdW  Elec       q    Type
REMARK                         _______ _______ _______ _____ _____    ______ ____
ROOT
ATOM      1  N   UNL     1      38.248   3.402  12.277  0.00  0.00    +0.000 NA
ATOM      2  C   UNL     1      37.743   2.582  13.318  0.00  0.00    +0.000 A 
ATOM      3  C   UNL     1      37.371   1.265  13.226  0.00  0.00    +0.000 A 
ATOM      4  C   UNL     1      36.945   0.869  14.463  0.00  0.00    +0.000 A 
ATOM      5  N   UNL     1      36.482  -0.305  14.889  0.00  0.00    +0.000 NA
ATOM      6  C   UNL     1      36.113  -0.449  16.186  0.00  0.00    +0.000 A 
ATOM      7  C   UNL     1      35.626  -1.676  16.646  0.00  0.00    +0.000 A 
ATOM      8  C   UNL     1      35.262  -1.780  17.968  0.00  0.00    +0.000 A 
ATOM      9  C   UNL     1      35.373  -0.707  18.820  0.00  0.00    +0.000 A 
ATOM     10  C   UNL     1      35.856   0.493  18.345  0.00  0.00    +0.000 A 
ATOM     11  C   UNL     1      36.237   0.647  17.011  0.00  0.00    +0.000 A 
ATOM     12  N   UNL     1      36.707   1.819  16.556  0.00  0.00    +0.000 NA
ATOM     13  C   UNL     1      37.078   1.984  15.280  0.00  0.00    +0.000 A 
ATOM     14  N   UNL     1      37.561   3.016  14.583  0.00  0.00    +0.000 N 
ENDROOT
BRANCH   3  15
ATOM     15  C   UNL     1      37.436   0.466  11.991  0.00  0.00    +0.000 C 
ATOM     16  O   UNL     1      36.613   0.737  11.092  0.00  0.00    +0.000 OA
BRANCH  15  17
ATOM     17  O   UNL     1      38.342  -0.549  11.782  0.00  0.00    +0.000 OA
BRANCH  17  18
ATOM     18  C   UNL     1      39.698  -0.278  11.392  0.00  0.00    +0.000 C 
BRANCH  18  19
ATOM     19  C   UNL     1      40.642  -0.621  12.459  0.00  0.00    +0.000 A 
ATOM     20  C   UNL     1      40.240  -1.485  13.451  0.00  0.00    +0.000 A 
ATOM     21  C   UNL     1      41.079  -1.857  14.494  0.00  0.00    +0.000 A 
ATOM     22  C   UNL     1      42.361  -1.361  14.564  0.00  0.00    +0.000 A 
ATOM     23  C   UNL     1      42.771  -0.494  13.573  0.00  0.00    +0.000 A 
ATOM     24  C   UNL     1      41.929  -0.130  12.538  0.00  0.00    +0.000 A 
ENDBRANCH  18  19
ENDBRANCH  17  18
ENDBRANCH  15  17
ENDBRANCH   3  15
BRANCH  14  25
ATOM     25  C   UNL     1      37.859   4.377  15.066  0.00  0.00    +0.000 C 
BRANCH  25  26
ATOM     26  C   UNL     1      39.268   4.410  15.570  0.00  0.00    +0.000 C 
BRANCH  26  27
ATOM     27  C   UNL     1      39.423   5.272  16.753  0.00  0.00    +0.000 C 
ATOM     28  C   UNL     1      38.814   5.062  17.915  0.00  0.00    +0.000 C 
ATOM     29  C   UNL     1      39.115   6.072  18.993  0.00  0.00    +0.000 C 
ATOM     30  C   UNL     1      40.622   6.091  19.136  0.00  0.00    +0.000 C 
ATOM     31  C   UNL     1      41.295   6.429  17.829  0.00  0.00    +0.000 C 
ATOM     32  C   UNL     1      40.335   6.450  16.664  0.00  0.00    +0.000 C 
ENDBRANCH  26  27
ENDBRANCH  25  26
ENDBRANCH  14  25
TORSDOF 7
ENDMDL
