MODEL 1
REMARK VINA RESULT:      -7.8      0.000      0.000
REMARK  Name = 
REMARK  9 active torsions:
REMARK  status: ('A' for Active; 'I' for Inactive)
REMARK    1  A    between atoms: C_2  and  C_3
REMARK    2  A    between atoms: C_3  and  C_5
REMARK    3  A    between atoms: C_5  and  O_6
REMARK    4  A    between atoms: O_6  and  C_7
REMARK    5  A    between atoms: C_7  and  C_9
REMARK    6  A    between atoms: N_12  and  C_13
REMARK    7  A    between atoms: C_13  and  C_14
REMARK    8  A    between atoms: C_14  and  C_15
REMARK    9  A    between atoms: C_18  and  O_19
REMARK                            x       y       z     vdW  Elec       q    Type
REMARK                         _______ _______ _______ _____ _____    ______ ____
ROOT
ATOM      1  C   UNL     1      36.192   0.146  16.407  0.00  0.00    +0.000 A 
ATOM      2  C   UNL     1      35.857   1.457  16.141  0.00  0.00    +0.000 A 
ATOM      3  N   UNL     1      34.637   2.086  16.535  0.00  0.00    +0.000 NA
ATOM      4  N   UNL     1      36.888   2.006  15.453  0.00  0.00    +0.000 N 
ATOM      5  C   UNL     1      37.871   1.103  15.265  0.00  0.00    +0.000 A 
ATOM      6  N   UNL     1      39.078   1.130  14.662  0.00  0.00    +0.000 NA
ATOM      7  C   UNL     1      39.875   0.044  14.626  0.00  0.00    +0.000 A 
ATOM      8  C   UNL     1      41.123   0.073  14.002  0.00  0.00    +0.000 A 
ATOM      9  C   UNL     1      41.926  -1.049  13.974  0.00  0.00    +0.000 A 
ATOM     10  C   UNL     1      41.524  -2.230  14.561  0.00  0.00    +0.000 A 
ATOM     11  C   UNL     1      40.288  -2.237  15.172  0.00  0.00    +0.000 A 
ATOM     12  C   UNL     1      39.466  -1.127  15.212  0.00  0.00    +0.000 A 
ATOM     13  N   UNL     1      38.259  -1.146  15.812  0.00  0.00    +0.000 NA
ATOM     14  C   UNL     1      37.435  -0.085  15.870  0.00  0.00    +0.000 A 
ENDROOT
BRANCH   1  15
ATOM     15  C   UNL     1      35.408  -0.881  17.130  0.00  0.00    +0.000 C 
ATOM     16  O   UNL     1      35.522  -1.068  18.350  0.00  0.00    +0.000 OA
BRANCH  15  17
ATOM     17  O   UNL     1      34.502  -1.711  16.550  0.00  0.00    +0.000 OA
BRANCH  17  18
ATOM     18  C   UNL     1      34.586  -2.953  16.284  0.00  0.00    +0.000 C 
BRANCH  18  19
ATOM     19  C   UNL     1      35.105  -3.658  15.005  0.00  0.00    +0.000 C 
ATOM     20  C   UNL     1      33.633  -4.429  14.806  0.00  0.00    +0.000 C 
BRANCH  19  22
ATOM     21  C   UNL     1      37.014  -4.396  16.376  0.00  0.00    +0.000 C 
ATOM     22  C   UNL     1      35.792  -4.949  15.632  0.00  0.00    +0.000 C 
ENDBRANCH  19  22
ENDBRANCH  18  19
ENDBRANCH  17  18
ENDBRANCH  15  17
ENDBRANCH   1  15
BRANCH   4  23
ATOM     23  C   UNL     1      36.905   3.367  14.999  0.00  0.00    +0.000 C 
BRANCH  23  24
ATOM     24  C   UNL     1      38.260   3.966  14.877  0.00  0.00    +0.000 C 
BRANCH  24  25
ATOM     25  C   UNL     1      38.700   4.527  16.165  0.00  0.00    +0.000 A 
ATOM     26  C   UNL     1      39.743   5.418  16.149  0.00  0.00    +0.000 A 
ATOM     27  C   UNL     1      40.229   6.000  17.304  0.00  0.00    +0.000 A 
ATOM     28  C   UNL     1      39.656   5.682  18.498  0.00  0.00    +0.000 A 
ATOM     29  C   UNL     1      38.610   4.792  18.537  0.00  0.00    +0.000 A 
ATOM     30  C   UNL     1      38.121   4.206  17.366  0.00  0.00    +0.000 A 
BRANCH  28  31
ATOM     31  O   UNL     1      40.099   6.234  19.704  0.00  0.00    +0.000 OA
ATOM     32  C   UNL     1      39.990   7.628  19.876  0.00  0.00    +0.000 C 
ENDBRANCH  28  31
ENDBRANCH  24  25
ENDBRANCH  23  24
ENDBRANCH   4  23
TORSDOF 9
ENDMDL
MODEL 2
REMARK VINA RESULT:      -7.8      1.660      2.597
REMARK  Name = 
REMARK  9 active torsions:
REMARK  status: ('A' for Active; 'I' for Inactive)
REMARK    1  A    between atoms: C_2  and  C_3
REMARK    2  A    between atoms: C_3  and  C_5
REMARK    3  A    between atoms: C_5  and  O_6
REMARK    4  A    between atoms: O_6  and  C_7
REMARK    5  A    between atoms: C_7  and  C_9
REMARK    6  A    between atoms: N_12  and  C_13
REMARK    7  A    between atoms: C_13  and  C_14
REMARK    8  A    between atoms: C_14  and  C_15
REMARK    9  A    between atoms: C_18  and  O_19
REMARK                            x       y       z     vdW  Elec       q    Type
REMARK                         _______ _______ _______ _____ _____    ______ ____
ROOT
ATOM      1  C   UNL     1      36.951  -0.764  15.492  0.00  0.00    +0.000 A 
ATOM      2  C   UNL     1      36.428   0.508  15.598  0.00  0.00    +0.000 A 
ATOM      3  N   UNL     1      35.085   0.811  15.980  0.00  0.00    +0.000 NA
ATOM      4  N   UNL     1      37.416   1.379  15.277  0.00  0.00    +0.000 N 
ATOM      5  C   UNL     1      38.552   0.722  14.969  0.00  0.00    +0.000 A 
ATOM      6  N   UNL     1      39.791   1.099  14.593  0.00  0.00    +0.000 NA
ATOM      7  C   UNL     1      40.760   0.197  14.342  0.00  0.00    +0.000 A 
ATOM      8  C   UNL     1      42.042   0.589  13.953  0.00  0.00    +0.000 A 
ATOM      9  C   UNL     1      43.021  -0.350  13.700  0.00  0.00    +0.000 A 
ATOM     10  C   UNL     1      42.768  -1.698  13.823  0.00  0.00    +0.000 A 
ATOM     11  C   UNL     1      41.495  -2.064  14.209  0.00  0.00    +0.000 A 
ATOM     12  C   UNL     1      40.497  -1.143  14.467  0.00  0.00    +0.000 A 
ATOM     13  N   UNL     1      39.256  -1.514  14.843  0.00  0.00    +0.000 NA
ATOM     14  C   UNL     1      38.264  -0.645  15.103  0.00  0.00    +0.000 A 
ENDROOT
BRANCH   1  15
ATOM     15  C   UNL     1      36.284  -2.062  15.733  0.00  0.00    +0.000 C 
ATOM     16  O   UNL     1      35.587  -2.622  14.874  0.00  0.00    +0.000 OA
BRANCH  15  17
ATOM     17  O   UNL     1      36.358  -2.765  16.893  0.00  0.00    +0.000 OA
BRANCH  17  18
ATOM     18  C   UNL     1      37.362  -3.014  17.634  0.00  0.00    +0.000 C 
BRANCH  18  19
ATOM     19  C   UNL     1      38.146  -2.075  18.587  0.00  0.00    +0.000 C 
ATOM     20  C   UNL     1      38.667  -3.386  19.487  0.00  0.00    +0.000 C 
BRANCH  19  22
ATOM     21  C   UNL     1      36.545  -0.305  19.196  0.00  0.00    +0.000 C 
ATOM     22  C   UNL     1      37.011  -1.698  19.637  0.00  0.00    +0.000 C 
ENDBRANCH  19  22
ENDBRANCH  18  19
ENDBRANCH  17  18
ENDBRANCH  15  17
ENDBRANCH   1  15
BRANCH   4  23
ATOM     23  C   UNL     1      37.248   2.804  15.276  0.00  0.00    +0.000 C 
BRANCH  23  24
ATOM     24  C   UNL     1      37.055   3.410  16.619  0.00  0.00    +0.000 C 
BRANCH  24  25
ATOM     25  C   UNL     1      38.180   4.296  16.960  0.00  0.00    +0.000 A 
ATOM     26  C   UNL     1      38.977   4.737  15.935  0.00  0.00    +0.000 A 
ATOM     27  C   UNL     1      40.058   5.571  16.152  0.00  0.00    +0.000 A 
ATOM     28  C   UNL     1      40.341   5.970  17.423  0.00  0.00    +0.000 A 
ATOM     29  C   UNL     1      39.555   5.541  18.464  0.00  0.00    +0.000 A 
ATOM     30  C   UNL     1      38.463   4.697  18.240  0.00  0.00    +0.000 A 
BRANCH  28  31
ATOM     31  O   UNL     1      41.419   6.813  17.712  0.00  0.00    +0.000 OA
ATOM     32  C   UNL     1      42.610   6.645  16.979  0.00  0.00    +0.000 C 
ENDBRANCH  28  31
ENDBRANCH  24  25
ENDBRANCH  23  24
ENDBRANCH   4  23
TORSDOF 9
ENDMDL
MODEL 3
REMARK VINA RESULT:      -7.7      2.300      5.869
REMARK  Name = 
REMARK  9 active torsions:
REMARK  status: ('A' for Active; 'I' for Inactive)
REMARK    1  A    between atoms: C_2  and  C_3
REMARK    2  A    between atoms: C_3  and  C_5
REMARK    3  A    between atoms: C_5  and  O_6
REMARK    4  A    between atoms: O_6  and  C_7
REMARK    5  A    between atoms: C_7  and  C_9
REMARK    6  A    between atoms: N_12  and  C_13
REMARK    7  A    between atoms: C_13  and  C_14
REMARK    8  A    between atoms: C_14  and  C_15
REMARK    9  A    between atoms: C_18  and  O_19
REMARK                            x       y       z     vdW  Elec       q    Type
REMARK                         _______ _______ _______ _____ _____    ______ ____
ROOT
ATOM      1  C   UNL     1      36.606   2.546  15.836  0.00  0.00    +0.000 A 
ATOM      2  C   UNL     1      36.806   2.332  14.488  0.00  0.00    +0.000 A 
ATOM      3  N   UNL     1      36.028   1.452  13.675  0.00  0.00    +0.000 NA
ATOM      4  N   UNL     1      37.856   3.101  14.108  0.00  0.00    +0.000 N 
ATOM      5  C   UNL     1      38.340   3.800  15.154  0.00  0.00    +0.000 A 
ATOM      6  N   UNL     1      39.345   4.686  15.317  0.00  0.00    +0.000 NA
ATOM      7  C   UNL     1      39.609   5.244  16.514  0.00  0.00    +0.000 A 
ATOM      8  C   UNL     1      40.649   6.159  16.682  0.00  0.00    +0.000 A 
ATOM      9  C   UNL     1      40.905   6.721  17.916  0.00  0.00    +0.000 A 
ATOM     10  C   UNL     1      40.144   6.398  19.019  0.00  0.00    +0.000 A 
ATOM     11  C   UNL     1      39.122   5.492  18.832  0.00  0.00    +0.000 A 
ATOM     12  C   UNL     1      38.846   4.916  17.606  0.00  0.00    +0.000 A 
ATOM     13  N   UNL     1      37.844   4.030  17.437  0.00  0.00    +0.000 NA
ATOM     14  C   UNL     1      37.549   3.452  16.259  0.00  0.00    +0.000 A 
ENDROOT
BRANCH   1  15
ATOM     15  C   UNL     1      35.588   1.947  16.727  0.00  0.00    +0.000 C 
ATOM     16  O   UNL     1      34.372   2.103  16.546  0.00  0.00    +0.000 OA
BRANCH  15  17
ATOM     17  O   UNL     1      35.867   1.181  17.814  0.00  0.00    +0.000 OA
BRANCH  17  18
ATOM     18  C   UNL     1      36.046  -0.075  17.902  0.00  0.00    +0.000 C 
BRANCH  18  19
ATOM     19  C   UNL     1      36.667  -1.061  16.880  0.00  0.00    +0.000 C 
ATOM     20  C   UNL     1      35.166  -1.744  16.592  0.00  0.00    +0.000 C 
BRANCH  19  22
ATOM     21  C   UNL     1      37.108  -1.616  19.239  0.00  0.00    +0.000 C 
ATOM     22  C   UNL     1      37.116  -2.247  17.841  0.00  0.00    +0.000 C 
ENDBRANCH  19  22
ENDBRANCH  18  19
ENDBRANCH  17  18
ENDBRANCH  15  17
ENDBRANCH   1  15
BRANCH   4  23
ATOM     23  C   UNL     1      38.363   3.146  12.766  0.00  0.00    +0.000 C 
BRANCH  23  24
ATOM     24  C   UNL     1      39.700   2.524  12.584  0.00  0.00    +0.000 C 
BRANCH  24  25
ATOM     25  C   UNL     1      39.678   1.109  12.992  0.00  0.00    +0.000 A 
ATOM     26  C   UNL     1      40.320   0.771  14.156  0.00  0.00    +0.000 A 
ATOM     27  C   UNL     1      40.356  -0.529  14.623  0.00  0.00    +0.000 A 
ATOM     28  C   UNL     1      39.734  -1.507  13.908  0.00  0.00    +0.000 A 
ATOM     29  C   UNL     1      39.085  -1.190  12.739  0.00  0.00    +0.000 A 
ATOM     30  C   UNL     1      39.051   0.126  12.270  0.00  0.00    +0.000 A 
BRANCH  28  31
ATOM     31  O   UNL     1      39.732  -2.843  14.324  0.00  0.00    +0.000 OA
ATOM     32  C   UNL     1      40.090  -3.124  15.657  0.00  0.00    +0.000 C 
ENDBRANCH  28  31
ENDBRANCH  24  25
ENDBRANCH  23  24
ENDBRANCH   4  23
TORSDOF 9
ENDMDL
MODEL 4
REMARK VINA RESULT:      -7.7      2.507      5.091
REMARK  Name = 
REMARK  9 active torsions:
REMARK  status: ('A' for Active; 'I' for Inactive)
REMARK    1  A    between atoms: C_2  and  C_3
REMARK    2  A    between atoms: C_3  and  C_5
REMARK    3  A    between atoms: C_5  and  O_6
REMARK    4  A    between atoms: O_6  and  C_7
REMARK    5  A    between atoms: C_7  and  C_9
REMARK    6  A    between atoms: N_12  and  C_13
REMARK    7  A    between atoms: C_13  and  C_14
REMARK    8  A    between atoms: C_14  and  C_15
REMARK    9  A    between atoms: C_18  and  O_19
REMARK                            x       y       z     vdW  Elec       q    Type
REMARK                         _______ _______ _______ _____ _____    ______ ____
ROOT
ATOM      1  C   UNL     1      38.350   2.663  14.041  0.00  0.00    +0.000 A 
ATOM      2  C   UNL     1      38.547   3.860  14.697  0.00  0.00    +0.000 A 
ATOM      3  N   UNL     1      39.306   4.958  14.187  0.00  0.00    +0.000 NA
ATOM      4  N   UNL     1      37.894   3.784  15.883  0.00  0.00    +0.000 N 
ATOM      5  C   UNL     1      37.287   2.588  16.017  0.00  0.00    +0.000 A 
ATOM      6  N   UNL     1      36.529   2.014  16.975  0.00  0.00    +0.000 NA
ATOM      7  C   UNL     1      36.041   0.766  16.837  0.00  0.00    +0.000 A 
ATOM      8  C   UNL     1      35.257   0.173  17.829  0.00  0.00    +0.000 A 
ATOM      9  C   UNL     1      34.766  -1.107  17.670  0.00  0.00    +0.000 A 
ATOM     10  C   UNL     1      35.030  -1.838  16.533  0.00  0.00    +0.000 A 
ATOM     11  C   UNL     1      35.805  -1.233  15.565  0.00  0.00    +0.000 A 
ATOM     12  C   UNL     1      36.310   0.046  15.701  0.00  0.00    +0.000 A 
ATOM     13  N   UNL     1      37.067   0.626  14.748  0.00  0.00    +0.000 NA
ATOM     14  C   UNL     1      37.573   1.868  14.848  0.00  0.00    +0.000 A 
ENDROOT
BRANCH   1  15
ATOM     15  C   UNL     1      38.852   2.241  12.715  0.00  0.00    +0.000 C 
ATOM     16  O   UNL     1      38.525   2.815  11.666  0.00  0.00    +0.000 OA
BRANCH  15  17
ATOM     17  O   UNL     1      39.705   1.204  12.506  0.00  0.00    +0.000 OA
BRANCH  17  18
ATOM     18  C   UNL     1      40.773   0.889  13.122  0.00  0.00    +0.000 C 
BRANCH  18  19
ATOM     19  C   UNL     1      40.957   0.100  14.443  0.00  0.00    +0.000 C 
ATOM     20  C   UNL     1      42.394  -0.550  13.882  0.00  0.00    +0.000 C 
BRANCH  19  22
ATOM     21  C   UNL     1      39.623  -1.687  15.489  0.00  0.00    +0.000 C 
ATOM     22  C   UNL     1      40.135  -1.224  14.119  0.00  0.00    +0.000 C 
ENDBRANCH  19  22
ENDBRANCH  18  19
ENDBRANCH  17  18
ENDBRANCH  15  17
ENDBRANCH   1  15
BRANCH   4  23
ATOM     23  C   UNL     1      37.869   4.847  16.846  0.00  0.00    +0.000 C 
BRANCH  23  24
ATOM     24  C   UNL     1      38.867   4.720  17.940  0.00  0.00    +0.000 C 
BRANCH  24  25
ATOM     25  C   UNL     1      39.030   6.000  18.650  0.00  0.00    +0.000 A 
ATOM     26  C   UNL     1      40.067   6.107  19.540  0.00  0.00    +0.000 A 
ATOM     27  C   UNL     1      40.304   7.266  20.255  0.00  0.00    +0.000 A 
ATOM     28  C   UNL     1      39.483   8.337  20.071  0.00  0.00    +0.000 A 
ATOM     29  C   UNL     1      38.439   8.251  19.183  0.00  0.00    +0.000 A 
ATOM     30  C   UNL     1      38.203   7.077  18.462  0.00  0.00    +0.000 A 
BRANCH  28  31
ATOM     31  O   UNL     1      39.667   9.539  20.762  0.00  0.00    +0.000 OA
ATOM     32  C   UNL     1      38.527  10.299  21.087  0.00  0.00    +0.000 C 
ENDBRANCH  28  31
ENDBRANCH  24  25
ENDBRANCH  23  24
ENDBRANCH   4  23
TORSDOF 9
ENDMDL
MODEL 5
REMARK VINA RESULT:      -7.7      2.392      4.410
REMARK  Name = 
REMARK  9 active torsions:
REMARK  status: ('A' for Active; 'I' for Inactive)
REMARK    1  A    between atoms: C_2  and  C_3
REMARK    2  A    between atoms: C_3  and  C_5
REMARK    3  A    between atoms: C_5  and  O_6
REMARK    4  A    between atoms: O_6  and  C_7
REMARK    5  A    between atoms: C_7  and  C_9
REMARK    6  A    between atoms: N_12  and  C_13
REMARK    7  A    between atoms: C_13  and  C_14
REMARK    8  A    between atoms: C_14  and  C_15
REMARK    9  A    between atoms: C_18  and  O_19
REMARK                            x       y       z     vdW  Elec       q    Type
REMARK                         _______ _______ _______ _____ _____    ______ ____
ROOT
ATOM      1  C   UNL     1      37.284   1.455  13.206  0.00  0.00    +0.000 A 
ATOM      2  C   UNL     1      37.649   2.784  13.263  0.00  0.00    +0.000 A 
ATOM      3  N   UNL     1      38.106   3.556  12.151  0.00  0.00    +0.000 NA
ATOM      4  N   UNL     1      37.491   3.192  14.546  0.00  0.00    +0.000 N 
ATOM      5  C   UNL     1      37.040   2.181  15.316  0.00  0.00    +0.000 A 
ATOM      6  N   UNL     1      36.725   2.055  16.622  0.00  0.00    +0.000 NA
ATOM      7  C   UNL     1      36.285   0.889  17.134  0.00  0.00    +0.000 A 
ATOM      8  C   UNL     1      35.959   0.759  18.485  0.00  0.00    +0.000 A 
ATOM      9  C   UNL     1      35.510  -0.444  18.992  0.00  0.00    +0.000 A 
ATOM     10  C   UNL     1      35.368  -1.551  18.184  0.00  0.00    +0.000 A 
ATOM     11  C   UNL     1      35.695  -1.401  16.852  0.00  0.00    +0.000 A 
ATOM     12  C   UNL     1      36.147  -0.208  16.322  0.00  0.00    +0.000 A 
ATOM     13  N   UNL     1      36.464  -0.074  15.018  0.00  0.00    +0.000 NA
ATOM     14  C   UNL     1      36.906   1.071  14.470  0.00  0.00    +0.000 A 
ENDROOT
BRANCH   1  15
ATOM     15  C   UNL     1      37.277   0.547  12.037  0.00  0.00    +0.000 C 
ATOM     16  O   UNL     1      36.568   0.751  11.041  0.00  0.00    +0.000 OA
BRANCH  15  17
ATOM     17  O   UNL     1      38.026  -0.581  11.931  0.00  0.00    +0.000 OA
BRANCH  17  18
ATOM     18  C   UNL     1      39.154  -0.864  12.447  0.00  0.00    +0.000 C 
BRANCH  18  19
ATOM     19  C   UNL     1      39.827  -2.244  12.660  0.00  0.00    +0.000 C 
ATOM     20  C   UNL     1      38.543  -2.749  13.608  0.00  0.00    +0.000 C 
BRANCH  19  22
ATOM     21  C   UNL     1      39.755  -1.502  15.008  0.00  0.00    +0.000 C 
ATOM     22  C   UNL     1      40.747  -1.938  13.922  0.00  0.00    +0.000 C 
ENDBRANCH  19  22
ENDBRANCH  18  19
ENDBRANCH  17  18
ENDBRANCH  15  17
ENDBRANCH   1  15
BRANCH   4  23
ATOM     23  C   UNL     1      37.772   4.525  14.997  0.00  0.00    +0.000 C 
BRANCH  23  24
ATOM     24  C   UNL     1      39.213   4.888  15.005  0.00  0.00    +0.000 C 
BRANCH  24  25
ATOM     25  C   UNL     1      39.632   5.332  16.345  0.00  0.00    +0.000 A 
ATOM     26  C   UNL     1      38.836   4.989  17.408  0.00  0.00    +0.000 A 
ATOM     27  C   UNL     1      39.143   5.358  18.704  0.00  0.00    +0.000 A 
ATOM     28  C   UNL     1      40.271   6.085  18.936  0.00  0.00    +0.000 A 
ATOM     29  C   UNL     1      41.083   6.439  17.886  0.00  0.00    +0.000 A 
ATOM     30  C   UNL     1      40.769   6.063  16.576  0.00  0.00    +0.000 A 
BRANCH  28  31
ATOM     31  O   UNL     1      40.640   6.490  20.223  0.00  0.00    +0.000 OA
ATOM     32  C   UNL     1      41.993   6.369  20.596  0.00  0.00    +0.000 C 
ENDBRANCH  28  31
ENDBRANCH  24  25
ENDBRANCH  23  24
ENDBRANCH   4  23
TORSDOF 9
ENDMDL
MODEL 6
REMARK VINA RESULT:      -7.5      3.348      6.482
REMARK  Name = 
REMARK  9 active torsions:
REMARK  status: ('A' for Active; 'I' for Inactive)
REMARK    1  A    between atoms: C_2  and  C_3
REMARK    2  A    between atoms: C_3  and  C_5
REMARK    3  A    between atoms: C_5  and  O_6
REMARK    4  A    between atoms: O_6  and  C_7
REMARK    5  A    between atoms: C_7  and  C_9
REMARK    6  A    between atoms: N_12  and  C_13
REMARK    7  A    between atoms: C_13  and  C_14
REMARK    8  A    between atoms: C_14  and  C_15
REMARK    9  A    between atoms: C_18  and  O_19
REMARK                            x       y       z     vdW  Elec       q    Type
REMARK                         _______ _______ _______ _____ _____    ______ ____
ROOT
ATOM      1  C   UNL     1      38.651  -2.003  16.292  0.00  0.00    +0.000 A 
ATOM      2  C   UNL     1      39.744  -2.111  15.458  0.00  0.00    +0.000 A 
ATOM      3  N   UNL     1      40.695  -3.177  15.490  0.00  0.00    +0.000 NA
ATOM      4  N   UNL     1      39.731  -1.037  14.631  0.00  0.00    +0.000 N 
ATOM      5  C   UNL     1      38.675  -0.242  14.899  0.00  0.00    +0.000 A 
ATOM      6  N   UNL     1      38.209   0.917  14.387  0.00  0.00    +0.000 NA
ATOM      7  C   UNL     1      37.096   1.504  14.865  0.00  0.00    +0.000 A 
ATOM      8  C   UNL     1      36.615   2.702  14.335  0.00  0.00    +0.000 A 
ATOM      9  C   UNL     1      35.472   3.290  14.838  0.00  0.00    +0.000 A 
ATOM     10  C   UNL     1      34.770   2.715  15.875  0.00  0.00    +0.000 A 
ATOM     11  C   UNL     1      35.263   1.532  16.385  0.00  0.00    +0.000 A 
ATOM     12  C   UNL     1      36.405   0.924  15.899  0.00  0.00    +0.000 A 
ATOM     13  N   UNL     1      36.876  -0.233  16.406  0.00  0.00    +0.000 NA
ATOM     14  C   UNL     1      37.982  -0.850  15.956  0.00  0.00    +0.000 A 
ENDROOT
BRANCH   1  15
ATOM     15  C   UNL     1      38.216  -2.916  17.371  0.00  0.00    +0.000 C 
ATOM     16  O   UNL     1      38.875  -3.082  18.408  0.00  0.00    +0.000 OA
BRANCH  15  17
ATOM     17  O   UNL     1      37.076  -3.656  17.346  0.00  0.00    +0.000 OA
BRANCH  17  18
ATOM     18  C   UNL     1      36.582  -4.361  16.409  0.00  0.00    +0.000 C 
BRANCH  18  19
ATOM     19  C   UNL     1      35.864  -3.917  15.109  0.00  0.00    +0.000 C 
ATOM     20  C   UNL     1      34.743  -3.047  15.999  0.00  0.00    +0.000 C 
BRANCH  19  22
ATOM     21  C   UNL     1      33.479  -4.481  14.862  0.00  0.00    +0.000 C 
ATOM     22  C   UNL     1      34.866  -5.136  14.886  0.00  0.00    +0.000 C 
ENDBRANCH  19  22
ENDBRANCH  18  19
ENDBRANCH  17  18
ENDBRANCH  15  17
ENDBRANCH   1  15
BRANCH   4  23
ATOM     23  C   UNL     1      40.718  -0.803  13.617  0.00  0.00    +0.000 C 
BRANCH  23  24
ATOM     24  C   UNL     1      41.820   0.109  14.020  0.00  0.00    +0.000 C 
BRANCH  24  25
ATOM     25  C   UNL     1      43.087  -0.629  14.152  0.00  0.00    +0.000 A 
ATOM     26  C   UNL     1      43.266  -1.735  13.361  0.00  0.00    +0.000 A 
ATOM     27  C   UNL     1      44.420  -2.495  13.412  0.00  0.00    +0.000 A 
ATOM     28  C   UNL     1      45.412  -2.134  14.271  0.00  0.00    +0.000 A 
ATOM     29  C   UNL     1      45.254  -1.029  15.072  0.00  0.00    +0.000 A 
ATOM     30  C   UNL     1      44.086  -0.264  15.018  0.00  0.00    +0.000 A 
BRANCH  28  31
ATOM     31  O   UNL     1      46.605  -2.858  14.372  0.00  0.00    +0.000 OA
ATOM     32  C   UNL     1      46.598  -4.209  13.972  0.00  0.00    +0.000 C 
ENDBRANCH  28  31
ENDBRANCH  24  25
ENDBRANCH  23  24
ENDBRANCH   4  23
TORSDOF 9
ENDMDL
MODEL 7
REMARK VINA RESULT:      -7.5      1.973      8.218
REMARK  Name = 
REMARK  9 active torsions:
REMARK  status: ('A' for Active; 'I' for Inactive)
REMARK    1  A    between atoms: C_2  and  C_3
REMARK    2  A    between atoms: C_3  and  C_5
REMARK    3  A    between atoms: C_5  and  O_6
REMARK    4  A    between atoms: O_6  and  C_7
REMARK    5  A    between atoms: C_7  and  C_9
REMARK    6  A    between atoms: N_12  and  C_13
REMARK    7  A    between atoms: C_13  and  C_14
REMARK    8  A    between atoms: C_14  and  C_15
REMARK    9  A    between atoms: C_18  and  O_19
REMARK                            x       y       z     vdW  Elec       q    Type
REMARK                         _______ _______ _______ _____ _____    ______ ____
ROOT
ATOM      1  C   UNL     1      36.899   1.996  15.803  0.00  0.00    +0.000 A 
ATOM      2  C   UNL     1      35.765   1.318  16.198  0.00  0.00    +0.000 A 
ATOM      3  N   UNL     1      34.564   1.934  16.666  0.00  0.00    +0.000 NA
ATOM      4  N   UNL     1      36.017  -0.007  16.056  0.00  0.00    +0.000 N 
ATOM      5  C   UNL     1      37.264  -0.209  15.587  0.00  0.00    +0.000 A 
ATOM      6  N   UNL     1      37.993  -1.301  15.276  0.00  0.00    +0.000 NA
ATOM      7  C   UNL     1      39.254  -1.201  14.813  0.00  0.00    +0.000 A 
ATOM      8  C   UNL     1      40.007  -2.331  14.492  0.00  0.00    +0.000 A 
ATOM      9  C   UNL     1      41.298  -2.210  14.019  0.00  0.00    +0.000 A 
ATOM     10  C   UNL     1      41.883  -0.974  13.847  0.00  0.00    +0.000 A 
ATOM     11  C   UNL     1      41.121   0.129  14.170  0.00  0.00    +0.000 A 
ATOM     12  C   UNL     1      39.828   0.034  14.646  0.00  0.00    +0.000 A 
ATOM     13  N   UNL     1      39.094   1.121  14.958  0.00  0.00    +0.000 NA
ATOM     14  C   UNL     1      37.833   1.063  15.423  0.00  0.00    +0.000 A 
ENDROOT
BRANCH   1  15
ATOM     15  C   UNL     1      37.139   3.456  15.768  0.00  0.00    +0.000 C 
ATOM     16  O   UNL     1      37.080   4.115  14.720  0.00  0.00    +0.000 OA
BRANCH  15  17
ATOM     17  O   UNL     1      37.445   4.215  16.853  0.00  0.00    +0.000 OA
BRANCH  17  18
ATOM     18  C   UNL     1      38.549   4.749  17.191  0.00  0.00    +0.000 C 
BRANCH  18  19
ATOM     19  C   UNL     1      38.833   6.170  17.741  0.00  0.00    +0.000 C 
ATOM     20  C   UNL     1      40.296   6.217  16.929  0.00  0.00    +0.000 C 
BRANCH  19  22
ATOM     21  C   UNL     1      39.399   7.117  19.944  0.00  0.00    +0.000 C 
ATOM     22  C   UNL     1      39.521   5.820  19.133  0.00  0.00    +0.000 C 
ENDBRANCH  19  22
ENDBRANCH  18  19
ENDBRANCH  17  18
ENDBRANCH  15  17
ENDBRANCH   1  15
BRANCH   4  23
ATOM     23  C   UNL     1      35.065  -1.034  16.370  0.00  0.00    +0.000 C 
BRANCH  23  24
ATOM     24  C   UNL     1      35.647  -2.254  16.987  0.00  0.00    +0.000 C 
BRANCH  24  25
ATOM     25  C   UNL     1      35.221  -3.462  16.260  0.00  0.00    +0.000 A 
ATOM     26  C   UNL     1      36.011  -4.578  16.361  0.00  0.00    +0.000 A 
ATOM     27  C   UNL     1      35.696  -5.760  15.717  0.00  0.00    +0.000 A 
ATOM     28  C   UNL     1      34.567  -5.821  14.959  0.00  0.00    +0.000 A 
ATOM     29  C   UNL     1      33.761  -4.714  14.845  0.00  0.00    +0.000 A 
ATOM     30  C   UNL     1      34.082  -3.521  15.498  0.00  0.00    +0.000 A 
BRANCH  28  31
ATOM     31  O   UNL     1      34.190  -6.985  14.281  0.00  0.00    +0.000 OA
ATOM     32  C   UNL     1      33.476  -7.968  14.994  0.00  0.00    +0.000 C 
ENDBRANCH  28  31
ENDBRANCH  24  25
ENDBRANCH  23  24
ENDBRANCH   4  23
TORSDOF 9
ENDMDL
MODEL 8
REMARK VINA RESULT:      -7.2      3.375      7.332
REMARK  Name = 
REMARK  9 active torsions:
REMARK  status: ('A' for Active; 'I' for Inactive)
REMARK    1  A    between atoms: C_2  and  C_3
REMARK    2  A    between atoms: C_3  and  C_5
REMARK    3  A    between atoms: C_5  and  O_6
REMARK    4  A    between atoms: O_6  and  C_7
REMARK    5  A    between atoms: C_7  and  C_9
REMARK    6  A    between atoms: N_12  and  C_13
REMARK    7  A    between atoms: C_13  and  C_14
REMARK    8  A    between atoms: C_14  and  C_15
REMARK    9  A    between atoms: C_18  and  O_19
REMARK                            x       y       z     vdW  Elec       q    Type
REMARK                         _______ _______ _______ _____ _____    ______ ____
ROOT
ATOM      1  C   UNL     1      38.496  -1.474  16.045  0.00  0.00    +0.000 A 
ATOM      2  C   UNL     1      39.570  -1.580  15.186  0.00  0.00    +0.000 A 
ATOM      3  N   UNL     1      40.551  -2.617  15.227  0.00  0.00    +0.000 NA
ATOM      4  N   UNL     1      39.505  -0.533  14.326  0.00  0.00    +0.000 N 
ATOM      5  C   UNL     1      38.434   0.241  14.596  0.00  0.00    +0.000 A 
ATOM      6  N   UNL     1      37.922   1.368  14.060  0.00  0.00    +0.000 NA
ATOM      7  C   UNL     1      36.805   1.940  14.549  0.00  0.00    +0.000 A 
ATOM      8  C   UNL     1      36.277   3.106  13.993  0.00  0.00    +0.000 A 
ATOM      9  C   UNL     1      35.132   3.679  14.508  0.00  0.00    +0.000 A 
ATOM     10  C   UNL     1      34.474   3.119  15.581  0.00  0.00    +0.000 A 
ATOM     11  C   UNL     1      35.012   1.967  16.115  0.00  0.00    +0.000 A 
ATOM     12  C   UNL     1      36.158   1.376  15.618  0.00  0.00    +0.000 A 
ATOM     13  N   UNL     1      36.675   0.250  16.149  0.00  0.00    +0.000 NA
ATOM     14  C   UNL     1      37.786  -0.351  15.690  0.00  0.00    +0.000 A 
ENDROOT
BRANCH   1  15
ATOM     15  C   UNL     1      38.115  -2.363  17.165  0.00  0.00    +0.000 C 
ATOM     16  O   UNL     1      38.374  -2.092  18.346  0.00  0.00    +0.000 OA
BRANCH  15  17
ATOM     17  O   UNL     1      37.458  -3.544  17.025  0.00  0.00    +0.000 OA
BRANCH  17  18
ATOM     18  C   UNL     1      36.224  -3.771  16.810  0.00  0.00    +0.000 C 
BRANCH  18  19
ATOM     19  C   UNL     1      35.558  -4.749  15.809  0.00  0.00    +0.000 C 
ATOM     20  C   UNL     1      36.596  -4.249  14.594  0.00  0.00    +0.000 C 
BRANCH  19  22
ATOM     21  C   UNL     1      33.653  -4.757  14.248  0.00  0.00    +0.000 C 
ATOM     22  C   UNL     1      34.359  -3.855  15.268  0.00  0.00    +0.000 C 
ENDBRANCH  19  22
ENDBRANCH  18  19
ENDBRANCH  17  18
ENDBRANCH  15  17
ENDBRANCH   1  15
BRANCH   4  23
ATOM     23  C   UNL     1      40.458  -0.306  13.279  0.00  0.00    +0.000 C 
BRANCH  23  24
ATOM     24  C   UNL     1      39.948  -0.558  11.906  0.00  0.00    +0.000 C 
BRANCH  24  25
ATOM     25  C   UNL     1      40.635  -1.709  11.296  0.00  0.00    +0.000 A 
ATOM     26  C   UNL     1      41.719  -2.227  11.958  0.00  0.00    +0.000 A 
ATOM     27  C   UNL     1      42.431  -3.306  11.468  0.00  0.00    +0.000 A 
ATOM     28  C   UNL     1      42.045  -3.874  10.292  0.00  0.00    +0.000 A 
ATOM     29  C   UNL     1      40.962  -3.371   9.613  0.00  0.00    +0.000 A 
ATOM     30  C   UNL     1      40.245  -2.280  10.113  0.00  0.00    +0.000 A 
BRANCH  28  31
ATOM     31  O   UNL     1      42.721  -4.967   9.740  0.00  0.00    +0.000 OA
ATOM     32  C   UNL     1      41.955  -6.015   9.193  0.00  0.00    +0.000 C 
ENDBRANCH  28  31
ENDBRANCH  24  25
ENDBRANCH  23  24
ENDBRANCH   4  23
TORSDOF 9
ENDMDL
MODEL 9
REMARK VINA RESULT:      -7.2      2.782      3.618
REMARK  Name = 
REMARK  9 active torsions:
REMARK  status: ('A' for Active; 'I' for Inactive)
REMARK    1  A    between atoms: C_2  and  C_3
REMARK    2  A    between atoms: C_3  and  C_5
REMARK    3  A    between atoms: C_5  and  O_6
REMARK    4  A    between atoms: O_6  and  C_7
REMARK    5  A    between atoms: C_7  and  C_9
REMARK    6  A    between atoms: N_12  and  C_13
REMARK    7  A    between atoms: C_13  and  C_14
REMARK    8  A    between atoms: C_14  and  C_15
REMARK    9  A    between atoms: C_18  and  O_19
REMARK                            x       y       z     vdW  Elec       q    Type
REMARK                         _______ _______ _______ _____ _____    ______ ____
ROOT
ATOM      1  C   UNL     1      36.036   0.054  16.246  0.00  0.00    +0.000 A 
ATOM      2  C   UNL     1      35.631   1.356  16.040  0.00  0.00    +0.000 A 
ATOM      3  N   UNL     1      34.360   1.887  16.416  0.00  0.00    +0.000 NA
ATOM      4  N   UNL     1      36.653   2.006  15.429  0.00  0.00    +0.000 N 
ATOM      5  C   UNL     1      37.697   1.176  15.234  0.00  0.00    +0.000 A 
ATOM      6  N   UNL     1      38.923   1.310  14.686  0.00  0.00    +0.000 NA
ATOM      7  C   UNL     1      39.787   0.278  14.623  0.00  0.00    +0.000 A 
ATOM      8  C   UNL     1      41.054   0.418  14.056  0.00  0.00    +0.000 A 
ATOM      9  C   UNL     1      41.926  -0.650  14.000  0.00  0.00    +0.000 A 
ATOM     10  C   UNL     1      41.575  -1.885  14.500  0.00  0.00    +0.000 A 
ATOM     11  C   UNL     1      40.318  -2.002  15.056  0.00  0.00    +0.000 A 
ATOM     12  C   UNL     1      39.428  -0.948  15.124  0.00  0.00    +0.000 A 
ATOM     13  N   UNL     1      38.202  -1.075  15.669  0.00  0.00    +0.000 NA
ATOM     14  C   UNL     1      37.312  -0.070  15.751  0.00  0.00    +0.000 A 
ENDROOT
BRANCH   1  15
ATOM     15  C   UNL     1      35.290  -1.058  16.875  0.00  0.00    +0.000 C 
ATOM     16  O   UNL     1      34.846  -0.992  18.030  0.00  0.00    +0.000 OA
BRANCH  15  17
ATOM     17  O   UNL     1      35.017  -2.244  16.271  0.00  0.00    +0.000 OA
BRANCH  17  18
ATOM     18  C   UNL     1      35.554  -3.386  16.435  0.00  0.00    +0.000 C 
BRANCH  18  19
ATOM     19  C   UNL     1      35.684  -4.570  15.443  0.00  0.00    +0.000 C 
ATOM     20  C   UNL     1      36.520  -3.603  14.363  0.00  0.00    +0.000 C 
BRANCH  19  22
ATOM     21  C   UNL     1      33.842  -5.886  14.470  0.00  0.00    +0.000 C 
ATOM     22  C   UNL     1      34.319  -4.437  14.636  0.00  0.00    +0.000 C 
ENDBRANCH  19  22
ENDBRANCH  18  19
ENDBRANCH  17  18
ENDBRANCH  15  17
ENDBRANCH   1  15
BRANCH   4  23
ATOM     23  C   UNL     1      36.603   3.389  15.054  0.00  0.00    +0.000 C 
BRANCH  23  24
ATOM     24  C   UNL     1      36.341   3.635  13.612  0.00  0.00    +0.000 C 
BRANCH  24  25
ATOM     25  C   UNL     1      35.776   4.979  13.405  0.00  0.00    +0.000 A 
ATOM     26  C   UNL     1      36.267   5.722  12.361  0.00  0.00    +0.000 A 
ATOM     27  C   UNL     1      35.803   6.993  12.084  0.00  0.00    +0.000 A 
ATOM     28  C   UNL     1      34.827   7.528  12.869  0.00  0.00    +0.000 A 
ATOM     29  C   UNL     1      34.321   6.801  13.919  0.00  0.00    +0.000 A 
ATOM     30  C   UNL     1      34.793   5.514  14.196  0.00  0.00    +0.000 A 
BRANCH  28  31
ATOM     31  O   UNL     1      34.313   8.809  12.643  0.00  0.00    +0.000 OA
ATOM     32  C   UNL     1      34.352   9.737  13.702  0.00  0.00    +0.000 C 
ENDBRANCH  28  31
ENDBRANCH  24  25
ENDBRANCH  23  24
ENDBRANCH   4  23
TORSDOF 9
ENDMDL
MODEL 10
REMARK VINA RESULT:      -7.1     23.677     27.698
REMARK  Name = 
REMARK  9 active torsions:
REMARK  status: ('A' for Active; 'I' for Inactive)
REMARK    1  A    between atoms: C_2  and  C_3
REMARK    2  A    between atoms: C_3  and  C_5
REMARK    3  A    between atoms: C_5  and  O_6
REMARK    4  A    between atoms: O_6  and  C_7
REMARK    5  A    between atoms: C_7  and  C_9
REMARK    6  A    between atoms: N_12  and  C_13
REMARK    7  A    between atoms: C_13  and  C_14
REMARK    8  A    between atoms: C_14  and  C_15
REMARK    9  A    between atoms: C_18  and  O_19
REMARK                            x       y       z     vdW  Elec       q    Type
REMARK                         _______ _______ _______ _____ _____    ______ ____
ROOT
ATOM      1  C   UNL     1      27.314  15.327  35.234  0.00  0.00    +0.000 A 
ATOM      2  C   UNL     1      28.659  15.592  35.382  0.00  0.00    +0.000 A 
ATOM      3  N   UNL     1      29.610  15.621  34.317  0.00  0.00    +0.000 NA
ATOM      4  N   UNL     1      28.884  15.813  36.701  0.00  0.00    +0.000 N 
ATOM      5  C   UNL     1      27.741  15.700  37.407  0.00  0.00    +0.000 A 
ATOM      6  N   UNL     1      27.418  15.819  38.711  0.00  0.00    +0.000 NA
ATOM      7  C   UNL     1      26.155  15.647  39.146  0.00  0.00    +0.000 A 
ATOM      8  C   UNL     1      25.823  15.769  40.496  0.00  0.00    +0.000 A 
ATOM      9  C   UNL     1      24.523  15.590  40.923  0.00  0.00    +0.000 A 
ATOM     10  C   UNL     1      23.515  15.285  40.035  0.00  0.00    +0.000 A 
ATOM     11  C   UNL     1      23.865  15.169  38.706  0.00  0.00    +0.000 A 
ATOM     12  C   UNL     1      25.158  15.343  38.254  0.00  0.00    +0.000 A 
ATOM     13  N   UNL     1      25.488  15.226  36.952  0.00  0.00    +0.000 NA
ATOM     14  C   UNL     1      26.735  15.390  36.479  0.00  0.00    +0.000 A 
ENDROOT
BRANCH   1  15
ATOM     15  C   UNL     1      26.562  15.021  33.997  0.00  0.00    +0.000 C 
ATOM     16  O   UNL     1      26.289  13.861  33.654  0.00  0.00    +0.000 OA
BRANCH  15  17
ATOM     17  O   UNL     1      26.102  15.952  33.122  0.00  0.00    +0.000 OA
BRANCH  17  18
ATOM     18  C   UNL     1      25.213  16.850  33.277  0.00  0.00    +0.000 C 
BRANCH  18  19
ATOM     19  C   UNL     1      25.374  18.382  33.453  0.00  0.00    +0.000 C 
ATOM     20  C   UNL     1      24.795  18.286  35.021  0.00  0.00    +0.000 C 
BRANCH  19  22
ATOM     21  C   UNL     1      24.196  18.935  31.362  0.00  0.00    +0.000 C 
ATOM     22  C   UNL     1      23.982  18.898  32.881  0.00  0.00    +0.000 C 
ENDBRANCH  19  22
ENDBRANCH  18  19
ENDBRANCH  17  18
ENDBRANCH  15  17
ENDBRANCH   1  15
BRANCH   4  23
ATOM     23  C   UNL     1      30.175  16.123  37.245  0.00  0.00    +0.000 C 
BRANCH  23  24
ATOM     24  C   UNL     1      30.600  15.256  38.374  0.00  0.00    +0.000 C 
BRANCH  24  25
ATOM     25  C   UNL     1      31.437  14.144  37.893  0.00  0.00    +0.000 A 
ATOM     26  C   UNL     1      31.678  13.107  38.758  0.00  0.00    +0.000 A 
ATOM     27  C   UNL     1      32.451  12.018  38.400  0.00  0.00    +0.000 A 
ATOM     28  C   UNL     1      32.990  11.970  37.151  0.00  0.00    +0.000 A 
ATOM     29  C   UNL     1      32.761  12.998  36.269  0.00  0.00    +0.000 A 
ATOM     30  C   UNL     1      31.978  14.097  36.634  0.00  0.00    +0.000 A 
BRANCH  28  31
ATOM     31  O   UNL     1      33.781  10.898  36.725  0.00  0.00    +0.000 OA
ATOM     32  C   UNL     1      35.177  11.080  36.675  0.00  0.00    +0.000 C 
ENDBRANCH  28  31
ENDBRANCH  24  25
ENDBRANCH  23  24
ENDBRANCH   4  23
TORSDOF 9
ENDMDL
