MODEL 1
REMARK VINA RESULT:      -8.4      0.000      0.000
REMARK  Name = 
REMARK  1 active torsions:
REMARK  status: ('A' for Active; 'I' for Inactive)
REMARK    1  A    between atoms: C_4  and  C_5
REMARK                            x       y       z     vdW  Elec       q    Type
REMARK                         _______ _______ _______ _____ _____    ______ ____
ROOT
ATOM      1  C   UNL     1      15.032  11.936  35.088  0.00  0.00    +0.000 C 
ATOM      2  C   UNL     1      15.219  11.311  33.958  0.00  0.00    +0.000 C 
ATOM      3  C   UNL     1      14.812  11.903  32.693  0.00  0.00    +0.000 C 
ATOM      4  C   UNL     1      14.234  13.096  32.600  0.00  0.00    +0.000 C 
ATOM      5  C   UNL     1      13.820  13.710  31.375  0.00  0.00    +0.000 C 
ATOM      6  C   UNL     1      14.894  13.413  30.182  0.00  0.00    +0.000 C 
ATOM      7  C   UNL     1      16.234  13.382  31.127  0.00  0.00    +0.000 C 
ATOM      8  C   UNL     1      14.647  11.795  30.167  0.00  0.00    +0.000 C 
ATOM      9  C   UNL     1      15.010  11.221  31.416  0.00  0.00    +0.000 C 
ATOM     10  O   UNL     1      15.532  10.070  31.468  0.00  0.00    +0.000 OA
ATOM     11  N   UNL     1      14.027  13.787  33.833  0.00  0.00    +0.000 NA
ATOM     12  N   UNL     1      14.416  13.218  35.032  0.00  0.00    +0.000 NA
ENDROOT
BRANCH   1  16
ATOM     13  C   UNL     1      18.346   9.785  38.168  0.00  0.00    +0.000 C 
ATOM     14  C   UNL     1      17.002  10.359  37.889  0.00  0.00    +0.000 A 
ATOM     15  C   UNL     1      16.669  10.868  36.633  0.00  0.00    +0.000 A 
ATOM     16  C   UNL     1      15.419  11.395  36.389  0.00  0.00    +0.000 A 
ATOM     17  C   UNL     1      14.531  11.392  37.445  0.00  0.00    +0.000 A 
ATOM     18  C   UNL     1      14.859  10.890  38.690  0.00  0.00    +0.000 A 
ATOM     19  C   UNL     1      16.108  10.361  38.936  0.00  0.00    +0.000 A 
ATOM     20 CL   UNL     1      16.569   9.711  40.505  0.00  0.00    +0.000 Cl
ENDBRANCH   1  16
TORSDOF 1
ENDMDL
MODEL 2
REMARK VINA RESULT:      -7.9      1.939      2.413
REMARK  Name = 
REMARK  1 active torsions:
REMARK  status: ('A' for Active; 'I' for Inactive)
REMARK    1  A    between atoms: C_4  and  C_5
REMARK                            x       y       z     vdW  Elec       q    Type
REMARK                         _______ _______ _______ _____ _____    ______ ____
ROOT
ATOM      1  C   UNL     1      16.409  10.876  35.285  0.00  0.00    +0.000 C 
ATOM      2  C   UNL     1      15.558  11.746  34.816  0.00  0.00    +0.000 C 
ATOM      3  C   UNL     1      15.468  12.018  33.389  0.00  0.00    +0.000 C 
ATOM      4  C   UNL     1      16.229  11.412  32.483  0.00  0.00    +0.000 C 
ATOM      5  C   UNL     1      16.168  11.653  31.073  0.00  0.00    +0.000 C 
ATOM      6  C   UNL     1      14.627  11.875  30.585  0.00  0.00    +0.000 C 
ATOM      7  C   UNL     1      13.930  10.861  31.669  0.00  0.00    +0.000 C 
ATOM      8  C   UNL     1      14.399  13.247  31.448  0.00  0.00    +0.000 C 
ATOM      9  C   UNL     1      14.523  12.989  32.840  0.00  0.00    +0.000 C 
ATOM     10  O   UNL     1      13.802  13.605  33.676  0.00  0.00    +0.000 OA
ATOM     11  N   UNL     1      17.163  10.458  32.990  0.00  0.00    +0.000 NA
ATOM     12  N   UNL     1      17.243  10.205  34.347  0.00  0.00    +0.000 NA
ENDROOT
BRANCH   1  16
ATOM     13  C   UNL     1      18.912   8.889  39.143  0.00  0.00    +0.000 C 
ATOM     14  C   UNL     1      17.739   9.607  38.577  0.00  0.00    +0.000 A 
ATOM     15  C   UNL     1      17.642   9.893  37.214  0.00  0.00    +0.000 A 
ATOM     16  C   UNL     1      16.547  10.559  36.704  0.00  0.00    +0.000 A 
ATOM     17  C   UNL     1      15.570  10.922  37.607  0.00  0.00    +0.000 A 
ATOM     18  C   UNL     1      15.664  10.640  38.957  0.00  0.00    +0.000 A 
ATOM     19  C   UNL     1      16.756   9.974  39.469  0.00  0.00    +0.000 A 
ATOM     20 CL   UNL     1      16.919   9.594  41.180  0.00  0.00    +0.000 Cl
ENDBRANCH   1  16
TORSDOF 1
ENDMDL
MODEL 3
REMARK VINA RESULT:      -7.9      3.633      7.232
REMARK  Name = 
REMARK  1 active torsions:
REMARK  status: ('A' for Active; 'I' for Inactive)
REMARK    1  A    between atoms: C_4  and  C_5
REMARK                            x       y       z     vdW  Elec       q    Type
REMARK                         _______ _______ _______ _____ _____    ______ ____
ROOT
ATOM      1  C   UNL     1      16.799  10.635  34.772  0.00  0.00    +0.000 C 
ATOM      2  C   UNL     1      16.332  10.759  35.984  0.00  0.00    +0.000 C 
ATOM      3  C   UNL     1      17.032  10.186  37.124  0.00  0.00    +0.000 C 
ATOM      4  C   UNL     1      18.172   9.512  37.014  0.00  0.00    +0.000 C 
ATOM      5  C   UNL     1      18.889   8.936  38.111  0.00  0.00    +0.000 C 
ATOM      6  C   UNL     1      18.831   9.908  39.421  0.00  0.00    +0.000 C 
ATOM      7  C   UNL     1      18.807  11.332  38.607  0.00  0.00    +0.000 C 
ATOM      8  C   UNL     1      17.212   9.785  39.619  0.00  0.00    +0.000 C 
ATOM      9  C   UNL     1      16.527  10.311  38.490  0.00  0.00    +0.000 C 
ATOM     10  O   UNL     1      15.429  10.922  38.629  0.00  0.00    +0.000 OA
ATOM     11  N   UNL     1      18.691   9.374  35.690  0.00  0.00    +0.000 NA
ATOM     12  N   UNL     1      18.019   9.920  34.612  0.00  0.00    +0.000 NA
ENDROOT
BRANCH   1  16
ATOM     13  C   UNL     1      13.703  13.887  32.551  0.00  0.00    +0.000 C 
ATOM     14  C   UNL     1      14.656  12.746  32.500  0.00  0.00    +0.000 A 
ATOM     15  C   UNL     1      15.264  12.246  33.652  0.00  0.00    +0.000 A 
ATOM     16  C   UNL     1      16.144  11.186  33.589  0.00  0.00    +0.000 A 
ATOM     17  C   UNL     1      16.385  10.659  32.337  0.00  0.00    +0.000 A 
ATOM     18  C   UNL     1      15.784  11.152  31.195  0.00  0.00    +0.000 A 
ATOM     19  C   UNL     1      14.904  12.210  31.256  0.00  0.00    +0.000 A 
ATOM     20 CL   UNL     1      14.116  12.872  29.827  0.00  0.00    +0.000 Cl
ENDBRANCH   1  16
TORSDOF 1
ENDMDL
MODEL 4
REMARK VINA RESULT:      -7.3     21.662     23.038
REMARK  Name = 
REMARK  1 active torsions:
REMARK  status: ('A' for Active; 'I' for Inactive)
REMARK    1  A    between atoms: C_4  and  C_5
REMARK                            x       y       z     vdW  Elec       q    Type
REMARK                         _______ _______ _______ _____ _____    ______ ____
ROOT
ATOM      1  C   UNL     1      21.560  -7.245  25.247  0.00  0.00    +0.000 C 
ATOM      2  C   UNL     1      20.955  -8.149  25.967  0.00  0.00    +0.000 C 
ATOM      3  C   UNL     1      19.667  -7.879  26.588  0.00  0.00    +0.000 C 
ATOM      4  C   UNL     1      19.030  -6.719  26.469  0.00  0.00    +0.000 C 
ATOM      5  C   UNL     1      17.763  -6.417  27.065  0.00  0.00    +0.000 C 
ATOM      6  C   UNL     1      16.771  -7.713  27.013  0.00  0.00    +0.000 C 
ATOM      7  C   UNL     1      17.326  -8.328  25.598  0.00  0.00    +0.000 C 
ATOM      8  C   UNL     1      17.699  -8.642  27.990  0.00  0.00    +0.000 C 
ATOM      9  C   UNL     1      18.971  -8.876  27.399  0.00  0.00    +0.000 C 
ATOM     10  O   UNL     1      19.561  -9.983  27.558  0.00  0.00    +0.000 OA
ATOM     11  N   UNL     1      19.686  -5.724  25.681  0.00  0.00    +0.000 NA
ATOM     12  N   UNL     1      20.910  -5.988  25.094  0.00  0.00    +0.000 NA
ENDROOT
BRANCH   1  16
ATOM     13  C   UNL     1      25.035 -10.203  23.180  0.00  0.00    +0.000 C 
ATOM     14  C   UNL     1      24.538  -8.864  23.598  0.00  0.00    +0.000 A 
ATOM     15  C   UNL     1      23.297  -8.702  24.215  0.00  0.00    +0.000 A 
ATOM     16  C   UNL     1      22.852  -7.454  24.598  0.00  0.00    +0.000 A 
ATOM     17  C   UNL     1      23.692  -6.392  24.337  0.00  0.00    +0.000 A 
ATOM     18  C   UNL     1      24.922  -6.550  23.726  0.00  0.00    +0.000 A 
ATOM     19  C   UNL     1      25.369  -7.796  23.343  0.00  0.00    +0.000 A 
ATOM     20 CL   UNL     1      26.927  -8.044  22.561  0.00  0.00    +0.000 Cl
ENDBRANCH   1  16
TORSDOF 1
ENDMDL
MODEL 5
REMARK VINA RESULT:      -7.1     22.259     23.564
REMARK  Name = 
REMARK  1 active torsions:
REMARK  status: ('A' for Active; 'I' for Inactive)
REMARK    1  A    between atoms: C_4  and  C_5
REMARK                            x       y       z     vdW  Elec       q    Type
REMARK                         _______ _______ _______ _____ _____    ______ ____
ROOT
ATOM      1  C   UNL     1      22.467  -7.340  24.503  0.00  0.00    +0.000 C 
ATOM      2  C   UNL     1      22.812  -8.279  23.665  0.00  0.00    +0.000 C 
ATOM      3  C   UNL     1      24.148  -8.323  23.090  0.00  0.00    +0.000 C 
ATOM      4  C   UNL     1      25.091  -7.430  23.372  0.00  0.00    +0.000 C 
ATOM      5  C   UNL     1      26.415  -7.440  22.827  0.00  0.00    +0.000 C 
ATOM      6  C   UNL     1      26.981  -8.966  22.700  0.00  0.00    +0.000 C 
ATOM      7  C   UNL     1      26.210  -9.572  24.014  0.00  0.00    +0.000 C 
ATOM      8  C   UNL     1      25.866  -9.441  21.601  0.00  0.00    +0.000 C 
ATOM      9  C   UNL     1      24.557  -9.364  22.150  0.00  0.00    +0.000 C 
ATOM     10  O   UNL     1      23.676 -10.216  21.837  0.00  0.00    +0.000 OA
ATOM     11  N   UNL     1      24.721  -6.399  24.289  0.00  0.00    +0.000 NA
ATOM     12  N   UNL     1      23.449  -6.364  24.830  0.00  0.00    +0.000 NA
ENDROOT
BRANCH   1  16
ATOM     13  C   UNL     1      18.761  -4.713  26.615  0.00  0.00    +0.000 C 
ATOM     14  C   UNL     1      19.346  -5.993  26.132  0.00  0.00    +0.000 A 
ATOM     15  C   UNL     1      20.615  -6.048  25.554  0.00  0.00    +0.000 A 
ATOM     16  C   UNL     1      21.144  -7.242  25.112  0.00  0.00    +0.000 A 
ATOM     17  C   UNL     1      20.355  -8.363  25.274  0.00  0.00    +0.000 A 
ATOM     18  C   UNL     1      19.098  -8.311  25.846  0.00  0.00    +0.000 A 
ATOM     19  C   UNL     1      18.568  -7.119  26.288  0.00  0.00    +0.000 A 
ATOM     20 CL   UNL     1      16.972  -7.005  27.023  0.00  0.00    +0.000 Cl
ENDBRANCH   1  16
TORSDOF 1
ENDMDL
MODEL 6
REMARK VINA RESULT:      -7.1     22.163     24.691
REMARK  Name = 
REMARK  1 active torsions:
REMARK  status: ('A' for Active; 'I' for Inactive)
REMARK    1  A    between atoms: C_4  and  C_5
REMARK                            x       y       z     vdW  Elec       q    Type
REMARK                         _______ _______ _______ _____ _____    ______ ____
ROOT
ATOM      1  C   UNL     1      33.475  -4.110  32.926  0.00  0.00    +0.000 C 
ATOM      2  C   UNL     1      33.820  -2.854  32.844  0.00  0.00    +0.000 C 
ATOM      3  C   UNL     1      33.390  -1.887  33.843  0.00  0.00    +0.000 C 
ATOM      4  C   UNL     1      32.633  -2.207  34.887  0.00  0.00    +0.000 C 
ATOM      5  C   UNL     1      32.192  -1.285  35.890  0.00  0.00    +0.000 C 
ATOM      6  C   UNL     1      33.361  -0.202  36.241  0.00  0.00    +0.000 C 
ATOM      7  C   UNL     1      34.636  -1.204  35.998  0.00  0.00    +0.000 C 
ATOM      8  C   UNL     1      33.379   0.478  34.753  0.00  0.00    +0.000 C 
ATOM      9  C   UNL     1      33.763  -0.476  33.771  0.00  0.00    +0.000 C 
ATOM     10  O   UNL     1      34.461  -0.129  32.775  0.00  0.00    +0.000 OA
ATOM     11  N   UNL     1      32.252  -3.581  34.984  0.00  0.00    +0.000 NA
ATOM     12  N   UNL     1      32.664  -4.493  34.031  0.00  0.00    +0.000 NA
ENDROOT
BRANCH   1  16
ATOM     13  C   UNL     1      33.450  -6.064  28.314  0.00  0.00    +0.000 C 
ATOM     14  C   UNL     1      33.874  -6.084  29.740  0.00  0.00    +0.000 A 
ATOM     15  C   UNL     1      33.473  -5.094  30.638  0.00  0.00    +0.000 A 
ATOM     16  C   UNL     1      33.874  -5.126  31.957  0.00  0.00    +0.000 A 
ATOM     17  C   UNL     1      34.683  -6.179  32.329  0.00  0.00    +0.000 A 
ATOM     18  C   UNL     1      35.081  -7.161  31.442  0.00  0.00    +0.000 A 
ATOM     19  C   UNL     1      34.682  -7.131  30.124  0.00  0.00    +0.000 A 
ATOM     20 CL   UNL     1      35.165  -8.358  28.958  0.00  0.00    +0.000 Cl
ENDBRANCH   1  16
TORSDOF 1
ENDMDL
MODEL 7
REMARK VINA RESULT:      -7.1      3.705      7.191
REMARK  Name = 
REMARK  1 active torsions:
REMARK  status: ('A' for Active; 'I' for Inactive)
REMARK    1  A    between atoms: C_4  and  C_5
REMARK                            x       y       z     vdW  Elec       q    Type
REMARK                         _______ _______ _______ _____ _____    ______ ____
ROOT
ATOM      1  C   UNL     1      16.845  11.567  36.138  0.00  0.00    +0.000 C 
ATOM      2  C   UNL     1      17.821  12.272  36.643  0.00  0.00    +0.000 C 
ATOM      3  C   UNL     1      18.582  11.794  37.788  0.00  0.00    +0.000 C 
ATOM      4  C   UNL     1      18.342  10.632  38.387  0.00  0.00    +0.000 C 
ATOM      5  C   UNL     1      19.068  10.129  39.514  0.00  0.00    +0.000 C 
ATOM      6  C   UNL     1      20.657  10.481  39.388  0.00  0.00    +0.000 C 
ATOM      7  C   UNL     1      20.749  10.392  37.753  0.00  0.00    +0.000 C 
ATOM      8  C   UNL     1      20.451  12.102  39.469  0.00  0.00    +0.000 C 
ATOM      9  C   UNL     1      19.677  12.565  38.371  0.00  0.00    +0.000 C 
ATOM     10  O   UNL     1      19.916  13.690  37.843  0.00  0.00    +0.000 OA
ATOM     11  N   UNL     1      17.276   9.855  37.839  0.00  0.00    +0.000 NA
ATOM     12  N   UNL     1      16.558  10.316  36.752  0.00  0.00    +0.000 NA
ENDROOT
BRANCH   1  16
ATOM     13  C   UNL     1      15.799  11.560  31.239  0.00  0.00    +0.000 C 
ATOM     14  C   UNL     1      15.526  12.001  32.634  0.00  0.00    +0.000 A 
ATOM     15  C   UNL     1      16.312  11.574  33.705  0.00  0.00    +0.000 A 
ATOM     16  C   UNL     1      16.046  11.992  34.992  0.00  0.00    +0.000 A 
ATOM     17  C   UNL     1      14.974  12.844  35.155  0.00  0.00    +0.000 A 
ATOM     18  C   UNL     1      14.194  13.268  34.095  0.00  0.00    +0.000 A 
ATOM     19  C   UNL     1      14.458  12.852  32.808  0.00  0.00    +0.000 A 
ATOM     20 CL   UNL     1      13.492  13.366  31.429  0.00  0.00    +0.000 Cl
ENDBRANCH   1  16
TORSDOF 1
ENDMDL
MODEL 8
REMARK VINA RESULT:      -7.0     28.232     30.953
REMARK  Name = 
REMARK  1 active torsions:
REMARK  status: ('A' for Active; 'I' for Inactive)
REMARK    1  A    between atoms: C_4  and  C_5
REMARK                            x       y       z     vdW  Elec       q    Type
REMARK                         _______ _______ _______ _____ _____    ______ ____
ROOT
ATOM      1  C   UNL     1      31.545  21.749  11.378  0.00  0.00    +0.000 C 
ATOM      2  C   UNL     1      32.541  22.506  11.005  0.00  0.00    +0.000 C 
ATOM      3  C   UNL     1      33.832  21.933  10.653  0.00  0.00    +0.000 C 
ATOM      4  C   UNL     1      34.082  20.628  10.684  0.00  0.00    +0.000 C 
ATOM      5  C   UNL     1      35.337  20.029  10.345  0.00  0.00    +0.000 C 
ATOM      6  C   UNL     1      36.025  20.793   9.077  0.00  0.00    +0.000 C 
ATOM      7  C   UNL     1      34.631  21.195   8.312  0.00  0.00    +0.000 C 
ATOM      8  C   UNL     1      36.220  22.218   9.857  0.00  0.00    +0.000 C 
ATOM      9  C   UNL     1      34.961  22.760  10.234  0.00  0.00    +0.000 C 
ATOM     10  O   UNL     1      34.768  24.010  10.219  0.00  0.00    +0.000 OA
ATOM     11  N   UNL     1      32.996  19.794  11.091  0.00  0.00    +0.000 NA
ATOM     12  N   UNL     1      31.773  20.345  11.424  0.00  0.00    +0.000 NA
ENDROOT
BRANCH   1  16
ATOM     13  C   UNL     1      28.519  24.453  14.315  0.00  0.00    +0.000 C 
ATOM     14  C   UNL     1      28.753  23.561  13.147  0.00  0.00    +0.000 A 
ATOM     15  C   UNL     1      30.027  23.090  12.828  0.00  0.00    +0.000 A 
ATOM     16  C   UNL     1      30.228  22.263  11.743  0.00  0.00    +0.000 A 
ATOM     17  C   UNL     1      29.112  21.936  11.002  0.00  0.00    +0.000 A 
ATOM     18  C   UNL     1      27.849  22.401  11.316  0.00  0.00    +0.000 A 
ATOM     19  C   UNL     1      27.645  23.227  12.400  0.00  0.00    +0.000 A 
ATOM     20 CL   UNL     1      26.056  23.844  12.837  0.00  0.00    +0.000 Cl
ENDBRANCH   1  16
TORSDOF 1
ENDMDL
MODEL 9
REMARK VINA RESULT:      -6.7     18.923     19.825
REMARK  Name = 
REMARK  1 active torsions:
REMARK  status: ('A' for Active; 'I' for Inactive)
REMARK    1  A    between atoms: C_4  and  C_5
REMARK                            x       y       z     vdW  Elec       q    Type
REMARK                         _______ _______ _______ _____ _____    ______ ____
ROOT
ATOM      1  C   UNL     1      28.972  22.821  26.904  0.00  0.00    +0.000 C 
ATOM      2  C   UNL     1      29.516  23.143  25.762  0.00  0.00    +0.000 C 
ATOM      3  C   UNL     1      28.707  23.320  24.565  0.00  0.00    +0.000 C 
ATOM      4  C   UNL     1      27.386  23.169  24.550  0.00  0.00    +0.000 C 
ATOM      5  C   UNL     1      26.559  23.335  23.394  0.00  0.00    +0.000 C 
ATOM      6  C   UNL     1      27.083  24.578  22.474  0.00  0.00    +0.000 C 
ATOM      7  C   UNL     1      27.644  25.508  23.704  0.00  0.00    +0.000 C 
ATOM      8  C   UNL     1      28.518  23.885  22.103  0.00  0.00    +0.000 C 
ATOM      9  C   UNL     1      29.294  23.679  23.276  0.00  0.00    +0.000 C 
ATOM     10  O   UNL     1      30.552  23.802  23.246  0.00  0.00    +0.000 OA
ATOM     11  N   UNL     1      26.784  22.818  25.797  0.00  0.00    +0.000 NA
ATOM     12  N   UNL     1      27.559  22.651  26.930  0.00  0.00    +0.000 NA
ENDROOT
BRANCH   1  16
ATOM     13  C   UNL     1      33.152  21.589  29.375  0.00  0.00    +0.000 C 
ATOM     14  C   UNL     1      31.734  22.040  29.347  0.00  0.00    +0.000 A 
ATOM     15  C   UNL     1      31.043  22.212  28.147  0.00  0.00    +0.000 A 
ATOM     16  C   UNL     1      29.729  22.630  28.138  0.00  0.00    +0.000 A 
ATOM     17  C   UNL     1      29.147  22.864  29.367  0.00  0.00    +0.000 A 
ATOM     18  C   UNL     1      29.830  22.695  30.556  0.00  0.00    +0.000 A 
ATOM     19  C   UNL     1      31.143  22.277  30.568  0.00  0.00    +0.000 A 
ATOM     20 CL   UNL     1      32.051  22.048  32.059  0.00  0.00    +0.000 Cl
ENDBRANCH   1  16
TORSDOF 1
ENDMDL
MODEL 10
REMARK VINA RESULT:      -6.6     22.370     25.416
REMARK  Name = 
REMARK  1 active torsions:
REMARK  status: ('A' for Active; 'I' for Inactive)
REMARK    1  A    between atoms: C_4  and  C_5
REMARK                            x       y       z     vdW  Elec       q    Type
REMARK                         _______ _______ _______ _____ _____    ______ ____
ROOT
ATOM      1  C   UNL     1      29.314  26.442  20.573  0.00  0.00    +0.000 C 
ATOM      2  C   UNL     1      28.460  26.693  21.527  0.00  0.00    +0.000 C 
ATOM      3  C   UNL     1      28.007  25.645  22.429  0.00  0.00    +0.000 C 
ATOM      4  C   UNL     1      28.421  24.384  22.346  0.00  0.00    +0.000 C 
ATOM      5  C   UNL     1      27.998  23.327  23.214  0.00  0.00    +0.000 C 
ATOM      6  C   UNL     1      27.838  23.861  24.748  0.00  0.00    +0.000 C 
ATOM      7  C   UNL     1      29.042  24.973  24.696  0.00  0.00    +0.000 C 
ATOM      8  C   UNL     1      26.618  24.899  24.412  0.00  0.00    +0.000 C 
ATOM      9  C   UNL     1      27.050  25.902  23.503  0.00  0.00    +0.000 C 
ATOM     10  O   UNL     1      26.613  27.085  23.594  0.00  0.00    +0.000 OA
ATOM     11  N   UNL     1      29.357  24.102  21.304  0.00  0.00    +0.000 NA
ATOM     12  N   UNL     1      29.783  25.103  20.452  0.00  0.00    +0.000 NA
ENDROOT
BRANCH   1  16
ATOM     13  C   UNL     1      31.183  27.804  16.130  0.00  0.00    +0.000 C 
ATOM     14  C   UNL     1      30.708  28.126  17.502  0.00  0.00    +0.000 A 
ATOM     15  C   UNL     1      30.243  27.135  18.368  0.00  0.00    +0.000 A 
ATOM     16  C   UNL     1      29.807  27.450  19.638  0.00  0.00    +0.000 A 
ATOM     17  C   UNL     1      29.856  28.781  19.995  0.00  0.00    +0.000 A 
ATOM     18  C   UNL     1      30.315  29.764  19.139  0.00  0.00    +0.000 A 
ATOM     19  C   UNL     1      30.752  29.452  17.870  0.00  0.00    +0.000 A 
ATOM     20 CL   UNL     1      31.346  30.670  16.746  0.00  0.00    +0.000 Cl
ENDBRANCH   1  16
TORSDOF 1
ENDMDL
