MODEL 1
REMARK VINA RESULT:      -7.2      0.000      0.000
REMARK  Name = 
REMARK  9 active torsions:
REMARK  status: ('A' for Active; 'I' for Inactive)
REMARK    1  A    between atoms: C_2  and  C_4
REMARK    2  A    between atoms: C_4  and  C_5
REMARK    3  A    between atoms: N_13  and  C_14
REMARK    4  A    between atoms: C_14  and  C_15
REMARK    5  A    between atoms: C_15  and  C_16
REMARK    6  A    between atoms: C_16  and  C_17
REMARK    7  A    between atoms: C_17  and  C_18
REMARK    8  A    between atoms: C_18  and  S_19
REMARK    9  A    between atoms: S_19  and  C_20
REMARK                            x       y       z     vdW  Elec       q    Type
REMARK                         _______ _______ _______ _____ _____    ______ ____
ROOT
ATOM      1  C   UNL     1      38.924  -1.693  14.413  0.00  0.00    +0.000 C 
ATOM      2  C   UNL     1      37.598  -2.406  14.269  0.00  0.00    +0.000 C 
ATOM      3  C   UNL     1      37.573  -3.524  15.284  0.00  0.00    +0.000 C 
ATOM      4  N   UNL     1      37.399  -2.926  16.590  0.00  0.00    +0.000 NA
ATOM      5  C   UNL     1      38.307  -1.818  16.792  0.00  0.00    +0.000 C 
ATOM      6  C   UNL     1      39.459  -1.934  15.787  0.00  0.00    +0.000 C 
ENDROOT
BRANCH   1   7
ATOM      7  C   UNL     1      39.831  -2.216  13.359  0.00  0.00    +0.000 A 
ATOM      8  C   UNL     1      41.083  -2.709  13.729  0.00  0.00    +0.000 A 
ATOM      9  C   UNL     1      41.925  -3.196  12.752  0.00  0.00    +0.000 A 
ATOM     10  C   UNL     1      41.600  -3.221  11.431  0.00  0.00    +0.000 A 
ATOM     11  C   UNL     1      40.374  -2.741  11.048  0.00  0.00    +0.000 A 
ATOM     12  C   UNL     1      39.515  -2.248  12.024  0.00  0.00    +0.000 A 
ENDBRANCH   1   7
BRANCH   1  14
ATOM     13  C   UNL     1      39.751   0.700  14.433  0.00  0.00    +0.000 C 
ATOM     14  C   UNL     1      38.626  -0.240  14.188  0.00  0.00    +0.000 C 
ATOM     15  O   UNL     1      37.544   0.139  13.830  0.00  0.00    +0.000 OA
ENDBRANCH   1  14
BRANCH   4  16
ATOM     16  C   UNL     1      36.020  -2.491  16.692  0.00  0.00    +0.000 C 
BRANCH  16  17
ATOM     17  C   UNL     1      36.043  -1.111  17.360  0.00  0.00    +0.000 C 
BRANCH  17  18
ATOM     18  C   UNL     1      34.707  -0.465  17.014  0.00  0.00    +0.000 C 
BRANCH  18  19
ATOM     19  C   UNL     1      34.877   1.013  16.825  0.00  0.00    +0.000 C 
BRANCH  19  20
ATOM     20  C   UNL     1      36.308   1.455  16.718  0.00  0.00    +0.000 C 
BRANCH  20  21
ATOM     21  S   UNL     1      36.400   2.933  15.696  0.00  0.00    +0.000 S 
BRANCH  21  22
ATOM     22  C   UNL     1      37.749   3.955  16.313  0.00  0.00    +0.000 A 
ATOM     23  N   UNL     1      37.866   4.183  17.641  0.00  0.00    +0.000 NA
ATOM     24  C   UNL     1      38.938   4.971  17.794  0.00  0.00    +0.000 A 
ATOM     25  C   UNL     1      39.537   5.524  18.900  0.00  0.00    +0.000 A 
ATOM     26  C   UNL     1      40.638   6.306  18.782  0.00  0.00    +0.000 A 
ATOM     27  C   UNL     1      41.184   6.565  17.554  0.00  0.00    +0.000 A 
ATOM     28  C   UNL     1      40.585   6.011  16.440  0.00  0.00    +0.000 A 
ATOM     29  C   UNL     1      39.471   5.219  16.543  0.00  0.00    +0.000 A 
ATOM     30  N   UNL     1      38.706   4.571  15.643  0.00  0.00    +0.000 NA
ENDBRANCH  21  22
ENDBRANCH  20  21
ENDBRANCH  19  20
ENDBRANCH  18  19
ENDBRANCH  17  18
ENDBRANCH  16  17
ENDBRANCH   4  16
TORSDOF 9
ENDMDL
MODEL 2
REMARK VINA RESULT:      -7.1      2.364      7.589
REMARK  Name = 
REMARK  9 active torsions:
REMARK  status: ('A' for Active; 'I' for Inactive)
REMARK    1  A    between atoms: C_2  and  C_4
REMARK    2  A    between atoms: C_4  and  C_5
REMARK    3  A    between atoms: N_13  and  C_14
REMARK    4  A    between atoms: C_14  and  C_15
REMARK    5  A    between atoms: C_15  and  C_16
REMARK    6  A    between atoms: C_16  and  C_17
REMARK    7  A    between atoms: C_17  and  C_18
REMARK    8  A    between atoms: C_18  and  S_19
REMARK    9  A    between atoms: S_19  and  C_20
REMARK                            x       y       z     vdW  Elec       q    Type
REMARK                         _______ _______ _______ _____ _____    ______ ____
ROOT
ATOM      1  C   UNL     1      39.120   5.692  16.622  0.00  0.00    +0.000 C 
ATOM      2  C   UNL     1      39.017   5.058  15.253  0.00  0.00    +0.000 C 
ATOM      3  C   UNL     1      39.067   3.560  15.444  0.00  0.00    +0.000 C 
ATOM      4  N   UNL     1      37.802   3.147  16.010  0.00  0.00    +0.000 NA
ATOM      5  C   UNL     1      37.423   3.983  17.129  0.00  0.00    +0.000 C 
ATOM      6  C   UNL     1      38.671   4.706  17.650  0.00  0.00    +0.000 C 
ENDROOT
BRANCH   1   7
ATOM      7  C   UNL     1      40.533   6.103  16.820  0.00  0.00    +0.000 A 
ATOM      8  C   UNL     1      41.322   6.373  15.700  0.00  0.00    +0.000 A 
ATOM      9  C   UNL     1      42.634   6.756  15.883  0.00  0.00    +0.000 A 
ATOM     10  C   UNL     1      43.210   6.886  17.109  0.00  0.00    +0.000 A 
ATOM     11  C   UNL     1      42.452   6.624  18.220  0.00  0.00    +0.000 A 
ATOM     12  C   UNL     1      41.127   6.239  18.050  0.00  0.00    +0.000 A 
ENDBRANCH   1   7
BRANCH   1  14
ATOM     13  C   UNL     1      37.615   7.202  15.256  0.00  0.00    +0.000 C 
ATOM     14  C   UNL     1      38.216   6.888  16.579  0.00  0.00    +0.000 C 
ATOM     15  O   UNL     1      37.991   7.550  17.555  0.00  0.00    +0.000 OA
ENDBRANCH   1  14
BRANCH   4  16
ATOM     16  C   UNL     1      36.809   3.213  14.956  0.00  0.00    +0.000 C 
BRANCH  16  17
ATOM     17  C   UNL     1      35.449   2.957  15.617  0.00  0.00    +0.000 C 
BRANCH  17  18
ATOM     18  C   UNL     1      35.234   1.450  15.544  0.00  0.00    +0.000 C 
BRANCH  18  19
ATOM     19  C   UNL     1      34.840   0.915  16.888  0.00  0.00    +0.000 C 
BRANCH  19  20
ATOM     20  C   UNL     1      34.834  -0.583  16.973  0.00  0.00    +0.000 C 
BRANCH  20  21
ATOM     21  S   UNL     1      36.184  -1.125  18.033  0.00  0.00    +0.000 S 
BRANCH  21  22
ATOM     22  C   UNL     1      37.627  -1.417  16.994  0.00  0.00    +0.000 A 
ATOM     23  N   UNL     1      38.080  -0.434  16.183  0.00  0.00    +0.000 NA
ATOM     24  C   UNL     1      39.139  -0.939  15.537  0.00  0.00    +0.000 A 
ATOM     25  C   UNL     1      39.993  -0.415  14.598  0.00  0.00    +0.000 A 
ATOM     26  C   UNL     1      41.010  -1.151  14.087  0.00  0.00    +0.000 A 
ATOM     27  C   UNL     1      41.213  -2.442  14.496  0.00  0.00    +0.000 A 
ATOM     28  C   UNL     1      40.356  -2.972  15.440  0.00  0.00    +0.000 A 
ATOM     29  C   UNL     1      39.323  -2.240  15.965  0.00  0.00    +0.000 A 
ATOM     30  N   UNL     1      38.363  -2.505  16.873  0.00  0.00    +0.000 NA
ENDBRANCH  21  22
ENDBRANCH  20  21
ENDBRANCH  19  20
ENDBRANCH  18  19
ENDBRANCH  17  18
ENDBRANCH  16  17
ENDBRANCH   4  16
TORSDOF 9
ENDMDL
MODEL 3
REMARK VINA RESULT:      -7.1      2.802      5.857
REMARK  Name = 
REMARK  9 active torsions:
REMARK  status: ('A' for Active; 'I' for Inactive)
REMARK    1  A    between atoms: C_2  and  C_4
REMARK    2  A    between atoms: C_4  and  C_5
REMARK    3  A    between atoms: N_13  and  C_14
REMARK    4  A    between atoms: C_14  and  C_15
REMARK    5  A    between atoms: C_15  and  C_16
REMARK    6  A    between atoms: C_16  and  C_17
REMARK    7  A    between atoms: C_17  and  C_18
REMARK    8  A    between atoms: C_18  and  S_19
REMARK    9  A    between atoms: S_19  and  C_20
REMARK                            x       y       z     vdW  Elec       q    Type
REMARK                         _______ _______ _______ _____ _____    ______ ____
ROOT
ATOM      1  C   UNL     1      37.832  -2.425  15.980  0.00  0.00    +0.000 C 
ATOM      2  C   UNL     1      37.927  -1.514  14.777  0.00  0.00    +0.000 C 
ATOM      3  C   UNL     1      39.207  -0.722  14.910  0.00  0.00    +0.000 C 
ATOM      4  N   UNL     1      40.309  -1.620  14.637  0.00  0.00    +0.000 NA
ATOM      5  C   UNL     1      40.175  -2.862  15.366  0.00  0.00    +0.000 C 
ATOM      6  C   UNL     1      39.202  -2.647  16.533  0.00  0.00    +0.000 C 
ENDROOT
BRANCH   1   7
ATOM      7  C   UNL     1      36.930  -1.774  16.965  0.00  0.00    +0.000 A 
ATOM      8  C   UNL     1      35.607  -1.517  16.602  0.00  0.00    +0.000 A 
ATOM      9  C   UNL     1      34.769  -0.913  17.516  0.00  0.00    +0.000 A 
ATOM     10  C   UNL     1      35.165  -0.550  18.765  0.00  0.00    +0.000 A 
ATOM     11  C   UNL     1      36.461  -0.794  19.140  0.00  0.00    +0.000 A 
ATOM     12  C   UNL     1      37.316  -1.404  18.228  0.00  0.00    +0.000 A 
ENDBRANCH   1   7
BRANCH   1  14
ATOM     13  C   UNL     1      37.085  -4.795  16.468  0.00  0.00    +0.000 C 
ATOM     14  C   UNL     1      37.233  -3.702  15.470  0.00  0.00    +0.000 C 
ATOM     15  O   UNL     1      36.892  -3.833  14.326  0.00  0.00    +0.000 OA
ENDBRANCH   1  14
BRANCH   4  16
ATOM     16  C   UNL     1      40.332  -1.859  13.207  0.00  0.00    +0.000 C 
BRANCH  16  17
ATOM     17  C   UNL     1      41.603  -1.187  12.672  0.00  0.00    +0.000 C 
BRANCH  17  18
ATOM     18  C   UNL     1      41.122  -0.015  11.824  0.00  0.00    +0.000 C 
BRANCH  18  19
ATOM     19  C   UNL     1      39.760  -0.301  11.267  0.00  0.00    +0.000 C 
BRANCH  19  20
ATOM     20  C   UNL     1      39.177   0.827  10.467  0.00  0.00    +0.000 C 
BRANCH  20  21
ATOM     21  S   UNL     1      39.474   2.381  11.324  0.00  0.00    +0.000 S 
BRANCH  21  22
ATOM     22  C   UNL     1      38.436   2.414  12.796  0.00  0.00    +0.000 A 
ATOM     23  N   UNL     1      37.171   1.938  12.736  0.00  0.00    +0.000 NA
ATOM     24  C   UNL     1      36.650   2.102  13.960  0.00  0.00    +0.000 A 
ATOM     25  C   UNL     1      35.418   1.811  14.494  0.00  0.00    +0.000 A 
ATOM     26  C   UNL     1      35.135   2.083  15.791  0.00  0.00    +0.000 A 
ATOM     27  C   UNL     1      36.074   2.657  16.606  0.00  0.00    +0.000 A 
ATOM     28  C   UNL     1      37.313   2.950  16.073  0.00  0.00    +0.000 A 
ATOM     29  C   UNL     1      37.614   2.682  14.763  0.00  0.00    +0.000 A 
ATOM     30  N   UNL     1      38.714   2.863  14.006  0.00  0.00    +0.000 NA
ENDBRANCH  21  22
ENDBRANCH  20  21
ENDBRANCH  19  20
ENDBRANCH  18  19
ENDBRANCH  17  18
ENDBRANCH  16  17
ENDBRANCH   4  16
TORSDOF 9
ENDMDL
MODEL 4
REMARK VINA RESULT:      -7.1      2.440      3.858
REMARK  Name = 
REMARK  9 active torsions:
REMARK  status: ('A' for Active; 'I' for Inactive)
REMARK    1  A    between atoms: C_2  and  C_4
REMARK    2  A    between atoms: C_4  and  C_5
REMARK    3  A    between atoms: N_13  and  C_14
REMARK    4  A    between atoms: C_14  and  C_15
REMARK    5  A    between atoms: C_15  and  C_16
REMARK    6  A    between atoms: C_16  and  C_17
REMARK    7  A    between atoms: C_17  and  C_18
REMARK    8  A    between atoms: C_18  and  S_19
REMARK    9  A    between atoms: S_19  and  C_20
REMARK                            x       y       z     vdW  Elec       q    Type
REMARK                         _______ _______ _______ _____ _____    ______ ____
ROOT
ATOM      1  C   UNL     1      36.922  -1.760  16.655  0.00  0.00    +0.000 C 
ATOM      2  C   UNL     1      35.603  -1.328  16.054  0.00  0.00    +0.000 C 
ATOM      3  C   UNL     1      34.685  -0.961  17.197  0.00  0.00    +0.000 C 
ATOM      4  N   UNL     1      35.142   0.300  17.739  0.00  0.00    +0.000 NA
ATOM      5  C   UNL     1      36.571   0.294  17.964  0.00  0.00    +0.000 C 
ATOM      6  C   UNL     1      37.057  -1.159  18.016  0.00  0.00    +0.000 C 
ENDROOT
BRANCH   1   7
ATOM      7  C   UNL     1      36.931  -3.245  16.695  0.00  0.00    +0.000 A 
ATOM      8  C   UNL     1      37.978  -3.896  17.349  0.00  0.00    +0.000 A 
ATOM      9  C   UNL     1      37.987  -5.275  17.387  0.00  0.00    +0.000 A 
ATOM     10  C   UNL     1      37.022  -6.044  16.815  0.00  0.00    +0.000 A 
ATOM     11  C   UNL     1      35.986  -5.422  16.168  0.00  0.00    +0.000 A 
ATOM     12  C   UNL     1      35.964  -4.033  16.123  0.00  0.00    +0.000 A 
ENDBRANCH   1   7
BRANCH   1  14
ATOM     13  C   UNL     1      37.573  -1.106  14.297  0.00  0.00    +0.000 C 
ATOM     14  C   UNL     1      37.976  -1.244  15.721  0.00  0.00    +0.000 C 
ATOM     15  O   UNL     1      39.078  -0.957  16.102  0.00  0.00    +0.000 OA
ENDBRANCH   1  14
BRANCH   4  16
ATOM     16  C   UNL     1      34.769   1.339  16.800  0.00  0.00    +0.000 C 
BRANCH  16  17
ATOM     17  C   UNL     1      35.949   2.317  16.738  0.00  0.00    +0.000 C 
BRANCH  17  18
ATOM     18  C   UNL     1      36.230   2.527  15.254  0.00  0.00    +0.000 C 
BRANCH  18  19
ATOM     19  C   UNL     1      37.702   2.420  14.985  0.00  0.00    +0.000 C 
BRANCH  19  20
ATOM     20  C   UNL     1      38.184   3.295  13.865  0.00  0.00    +0.000 C 
BRANCH  20  21
ATOM     21  S   UNL     1      37.827   5.015  14.256  0.00  0.00    +0.000 S 
BRANCH  21  22
ATOM     22  C   UNL     1      38.673   5.425  15.792  0.00  0.00    +0.000 A 
ATOM     23  N   UNL     1      39.984   5.757  15.768  0.00  0.00    +0.000 NA
ATOM     24  C   UNL     1      40.334   5.996  17.039  0.00  0.00    +0.000 A 
ATOM     25  C   UNL     1      41.520   6.366  17.624  0.00  0.00    +0.000 A 
ATOM     26  C   UNL     1      41.614   6.545  18.964  0.00  0.00    +0.000 A 
ATOM     27  C   UNL     1      40.524   6.362  19.773  0.00  0.00    +0.000 A 
ATOM     28  C   UNL     1      39.330   5.990  19.188  0.00  0.00    +0.000 A 
ATOM     29  C   UNL     1      39.220   5.804  17.835  0.00  0.00    +0.000 A 
ATOM     30  N   UNL     1      38.203   5.449  17.025  0.00  0.00    +0.000 NA
ENDBRANCH  21  22
ENDBRANCH  20  21
ENDBRANCH  19  20
ENDBRANCH  18  19
ENDBRANCH  17  18
ENDBRANCH  16  17
ENDBRANCH   4  16
TORSDOF 9
ENDMDL
MODEL 5
REMARK VINA RESULT:      -6.9      3.194      6.306
REMARK  Name = 
REMARK  9 active torsions:
REMARK  status: ('A' for Active; 'I' for Inactive)
REMARK    1  A    between atoms: C_2  and  C_4
REMARK    2  A    between atoms: C_4  and  C_5
REMARK    3  A    between atoms: N_13  and  C_14
REMARK    4  A    between atoms: C_14  and  C_15
REMARK    5  A    between atoms: C_15  and  C_16
REMARK    6  A    between atoms: C_16  and  C_17
REMARK    7  A    between atoms: C_17  and  C_18
REMARK    8  A    between atoms: C_18  and  S_19
REMARK    9  A    between atoms: S_19  and  C_20
REMARK                            x       y       z     vdW  Elec       q    Type
REMARK                         _______ _______ _______ _____ _____    ______ ____
ROOT
ATOM      1  C   UNL     1      36.164  -0.848  17.014  0.00  0.00    +0.000 C 
ATOM      2  C   UNL     1      37.295  -0.193  16.253  0.00  0.00    +0.000 C 
ATOM      3  C   UNL     1      36.689   0.520  15.067  0.00  0.00    +0.000 C 
ATOM      4  N   UNL     1      36.004   1.694  15.563  0.00  0.00    +0.000 NA
ATOM      5  C   UNL     1      35.161   1.377  16.695  0.00  0.00    +0.000 C 
ATOM      6  C   UNL     1      34.889  -0.132  16.702  0.00  0.00    +0.000 C 
ENDROOT
BRANCH   1   7
ATOM      7  C   UNL     1      36.118  -2.275  16.607  0.00  0.00    +0.000 A 
ATOM      8  C   UNL     1      35.129  -2.692  15.715  0.00  0.00    +0.000 A 
ATOM      9  C   UNL     1      35.086  -4.018  15.337  0.00  0.00    +0.000 A 
ATOM     10  C   UNL     1      35.964  -4.953  15.791  0.00  0.00    +0.000 A 
ATOM     11  C   UNL     1      36.942  -4.562  16.668  0.00  0.00    +0.000 A 
ATOM     12  C   UNL     1      36.997  -3.228  17.057  0.00  0.00    +0.000 A 
ENDBRANCH   1   7
BRANCH   1  14
ATOM     13  C   UNL     1      35.396  -0.808  19.426  0.00  0.00    +0.000 C 
ATOM     14  C   UNL     1      36.525  -0.716  18.463  0.00  0.00    +0.000 C 
ATOM     15  O   UNL     1      37.659  -0.549  18.824  0.00  0.00    +0.000 OA
ENDBRANCH   1  14
BRANCH   4  16
ATOM     16  C   UNL     1      37.014   2.668  15.926  0.00  0.00    +0.000 C 
BRANCH  16  17
ATOM     17  C   UNL     1      37.981   2.760  14.739  0.00  0.00    +0.000 C 
BRANCH  17  18
ATOM     18  C   UNL     1      37.370   3.786  13.791  0.00  0.00    +0.000 C 
BRANCH  18  19
ATOM     19  C   UNL     1      37.354   3.253  12.390  0.00  0.00    +0.000 C 
BRANCH  19  20
ATOM     20  C   UNL     1      38.473   3.761  11.529  0.00  0.00    +0.000 C 
BRANCH  20  21
ATOM     21  S   UNL     1      39.193   2.388  10.614  0.00  0.00    +0.000 S 
BRANCH  21  22
ATOM     22  C   UNL     1      39.223   0.950  11.699  0.00  0.00    +0.000 A 
ATOM     23  N   UNL     1      40.118   0.892  12.712  0.00  0.00    +0.000 NA
ATOM     24  C   UNL     1      39.912  -0.280  13.328  0.00  0.00    +0.000 A 
ATOM     25  C   UNL     1      40.511  -0.882  14.407  0.00  0.00    +0.000 A 
ATOM     26  C   UNL     1      40.109  -2.101  14.841  0.00  0.00    +0.000 A 
ATOM     27  C   UNL     1      39.091  -2.767  14.212  0.00  0.00    +0.000 A 
ATOM     28  C   UNL     1      38.486  -2.165  13.127  0.00  0.00    +0.000 A 
ATOM     29  C   UNL     1      38.882  -0.932  12.676  0.00  0.00    +0.000 A 
ATOM     30  N   UNL     1      38.477  -0.138  11.666  0.00  0.00    +0.000 NA
ENDBRANCH  21  22
ENDBRANCH  20  21
ENDBRANCH  19  20
ENDBRANCH  18  19
ENDBRANCH  17  18
ENDBRANCH  16  17
ENDBRANCH   4  16
TORSDOF 9
ENDMDL
MODEL 6
REMARK VINA RESULT:      -6.8      2.066      3.977
REMARK  Name = 
REMARK  9 active torsions:
REMARK  status: ('A' for Active; 'I' for Inactive)
REMARK    1  A    between atoms: C_2  and  C_4
REMARK    2  A    between atoms: C_4  and  C_5
REMARK    3  A    between atoms: N_13  and  C_14
REMARK    4  A    between atoms: C_14  and  C_15
REMARK    5  A    between atoms: C_15  and  C_16
REMARK    6  A    between atoms: C_16  and  C_17
REMARK    7  A    between atoms: C_17  and  C_18
REMARK    8  A    between atoms: C_18  and  S_19
REMARK    9  A    between atoms: S_19  and  C_20
REMARK                            x       y       z     vdW  Elec       q    Type
REMARK                         _______ _______ _______ _____ _____    ______ ____
ROOT
ATOM      1  C   UNL     1      37.720  -1.258  15.413  0.00  0.00    +0.000 C 
ATOM      2  C   UNL     1      39.051  -0.568  15.213  0.00  0.00    +0.000 C 
ATOM      3  C   UNL     1      39.609  -1.037  13.889  0.00  0.00    +0.000 C 
ATOM      4  N   UNL     1      38.837  -0.408  12.840  0.00  0.00    +0.000 NA
ATOM      5  C   UNL     1      37.416  -0.527  13.082  0.00  0.00    +0.000 C 
ATOM      6  C   UNL     1      37.179  -1.666  14.081  0.00  0.00    +0.000 C 
ENDROOT
BRANCH   1   7
ATOM      7  C   UNL     1      37.948  -2.423  16.305  0.00  0.00    +0.000 A 
ATOM      8  C   UNL     1      38.484  -2.206  17.575  0.00  0.00    +0.000 A 
ATOM      9  C   UNL     1      38.695  -3.287  18.405  0.00  0.00    +0.000 A 
ATOM     10  C   UNL     1      38.408  -4.568  18.050  0.00  0.00    +0.000 A 
ATOM     11  C   UNL     1      37.882  -4.801  16.806  0.00  0.00    +0.000 A 
ATOM     12  C   UNL     1      37.662  -3.719  15.960  0.00  0.00    +0.000 A 
ENDBRANCH   1   7
BRANCH   1  14
ATOM     13  C   UNL     1      35.417  -0.642  16.266  0.00  0.00    +0.000 C 
ATOM     14  C   UNL     1      36.837  -0.242  16.074  0.00  0.00    +0.000 C 
ATOM     15  O   UNL     1      37.252   0.827  16.429  0.00  0.00    +0.000 OA
ENDBRANCH   1  14
BRANCH   4  16
ATOM     16  C   UNL     1      39.237   0.984  12.779  0.00  0.00    +0.000 C 
BRANCH  16  17
ATOM     17  C   UNL     1      37.979   1.787  12.425  0.00  0.00    +0.000 C 
BRANCH  17  18
ATOM     18  C   UNL     1      37.977   2.984  13.369  0.00  0.00    +0.000 C 
BRANCH  18  19
ATOM     19  C   UNL     1      36.623   3.153  13.991  0.00  0.00    +0.000 C 
BRANCH  19  20
ATOM     20  C   UNL     1      36.526   4.313  14.939  0.00  0.00    +0.000 C 
BRANCH  20  21
ATOM     21  S   UNL     1      37.732   5.565  14.475  0.00  0.00    +0.000 S 
BRANCH  21  22
ATOM     22  C   UNL     1      38.837   5.821  15.874  0.00  0.00    +0.000 A 
ATOM     23  N   UNL     1      38.348   5.774  17.134  0.00  0.00    +0.000 NA
ATOM     24  C   UNL     1      39.385   6.008  17.949  0.00  0.00    +0.000 A 
ATOM     25  C   UNL     1      39.497   6.084  19.316  0.00  0.00    +0.000 A 
ATOM     26  C   UNL     1      40.688   6.340  19.908  0.00  0.00    +0.000 A 
ATOM     27  C   UNL     1      41.817   6.530  19.156  0.00  0.00    +0.000 A 
ATOM     28  C   UNL     1      41.709   6.454  17.782  0.00  0.00    +0.000 A 
ATOM     29  C   UNL     1      40.510   6.197  17.168  0.00  0.00    +0.000 A 
ATOM     30  N   UNL     1      40.133   6.074  15.881  0.00  0.00    +0.000 NA
ENDBRANCH  21  22
ENDBRANCH  20  21
ENDBRANCH  19  20
ENDBRANCH  18  19
ENDBRANCH  17  18
ENDBRANCH  16  17
ENDBRANCH   4  16
TORSDOF 9
ENDMDL
MODEL 7
REMARK VINA RESULT:      -6.8      3.348      5.581
REMARK  Name = 
REMARK  9 active torsions:
REMARK  status: ('A' for Active; 'I' for Inactive)
REMARK    1  A    between atoms: C_2  and  C_4
REMARK    2  A    between atoms: C_4  and  C_5
REMARK    3  A    between atoms: N_13  and  C_14
REMARK    4  A    between atoms: C_14  and  C_15
REMARK    5  A    between atoms: C_15  and  C_16
REMARK    6  A    between atoms: C_16  and  C_17
REMARK    7  A    between atoms: C_17  and  C_18
REMARK    8  A    between atoms: C_18  and  S_19
REMARK    9  A    between atoms: S_19  and  C_20
REMARK                            x       y       z     vdW  Elec       q    Type
REMARK                         _______ _______ _______ _____ _____    ______ ____
ROOT
ATOM      1  C   UNL     1      36.552   1.194  15.356  0.00  0.00    +0.000 C 
ATOM      2  C   UNL     1      35.712   1.676  14.194  0.00  0.00    +0.000 C 
ATOM      3  C   UNL     1      34.785   2.746  14.721  0.00  0.00    +0.000 C 
ATOM      4  N   UNL     1      35.578   3.931  14.969  0.00  0.00    +0.000 NA
ATOM      5  C   UNL     1      36.779   3.619  15.711  0.00  0.00    +0.000 C 
ATOM      6  C   UNL     1      36.596   2.261  16.401  0.00  0.00    +0.000 C 
ENDROOT
BRANCH   1   7
ATOM      7  C   UNL     1      35.940  -0.060  15.862  0.00  0.00    +0.000 A 
ATOM      8  C   UNL     1      36.129  -1.242  15.144  0.00  0.00    +0.000 A 
ATOM      9  C   UNL     1      35.561  -2.408  15.614  0.00  0.00    +0.000 A 
ATOM     10  C   UNL     1      34.817  -2.470  16.751  0.00  0.00    +0.000 A 
ATOM     11  C   UNL     1      34.620  -1.319  17.470  0.00  0.00    +0.000 A 
ATOM     12  C   UNL     1      35.188  -0.138  17.008  0.00  0.00    +0.000 A 
ENDBRANCH   1   7
BRANCH   1  14
ATOM     13  C   UNL     1      38.078   1.216  13.335  0.00  0.00    +0.000 C 
ATOM     14  C   UNL     1      37.914   0.931  14.785  0.00  0.00    +0.000 C 
ATOM     15  O   UNL     1      38.818   0.518  15.460  0.00  0.00    +0.000 OA
ENDBRANCH   1  14
BRANCH   4  16
ATOM     16  C   UNL     1      35.901   4.517  13.683  0.00  0.00    +0.000 C 
BRANCH  16  17
ATOM     17  C   UNL     1      35.995   6.032  13.903  0.00  0.00    +0.000 C 
BRANCH  17  18
ATOM     18  C   UNL     1      34.560   6.545  13.844  0.00  0.00    +0.000 C 
BRANCH  18  19
ATOM     19  C   UNL     1      34.509   7.990  14.239  0.00  0.00    +0.000 C 
BRANCH  19  20
ATOM     20  C   UNL     1      35.851   8.661  14.282  0.00  0.00    +0.000 C 
BRANCH  20  21
ATOM     21  S   UNL     1      36.045   9.506  15.860  0.00  0.00    +0.000 S 
BRANCH  21  22
ATOM     22  C   UNL     1      37.168   8.533  16.879  0.00  0.00    +0.000 A 
ATOM     23  N   UNL     1      37.429   8.921  18.148  0.00  0.00    +0.000 NA
ATOM     24  C   UNL     1      38.291   8.024  18.645  0.00  0.00    +0.000 A 
ATOM     25  C   UNL     1      38.905   7.901  19.868  0.00  0.00    +0.000 A 
ATOM     26  C   UNL     1      39.757   6.880  20.124  0.00  0.00    +0.000 A 
ATOM     27  C   UNL     1      40.030   5.939  19.166  0.00  0.00    +0.000 A 
ATOM     28  C   UNL     1      39.415   6.060  17.936  0.00  0.00    +0.000 A 
ATOM     29  C   UNL     1      38.551   7.088  17.662  0.00  0.00    +0.000 A 
ATOM     30  N   UNL     1      37.835   7.436  16.575  0.00  0.00    +0.000 NA
ENDBRANCH  21  22
ENDBRANCH  20  21
ENDBRANCH  19  20
ENDBRANCH  18  19
ENDBRANCH  17  18
ENDBRANCH  16  17
ENDBRANCH   4  16
TORSDOF 9
ENDMDL
MODEL 8
REMARK VINA RESULT:      -6.7      8.246     12.286
REMARK  Name = 
REMARK  9 active torsions:
REMARK  status: ('A' for Active; 'I' for Inactive)
REMARK    1  A    between atoms: C_2  and  C_4
REMARK    2  A    between atoms: C_4  and  C_5
REMARK    3  A    between atoms: N_13  and  C_14
REMARK    4  A    between atoms: C_14  and  C_15
REMARK    5  A    between atoms: C_15  and  C_16
REMARK    6  A    between atoms: C_16  and  C_17
REMARK    7  A    between atoms: C_17  and  C_18
REMARK    8  A    between atoms: C_18  and  S_19
REMARK    9  A    between atoms: S_19  and  C_20
REMARK                            x       y       z     vdW  Elec       q    Type
REMARK                         _______ _______ _______ _____ _____    ______ ____
ROOT
ATOM      1  C   UNL     1      43.064   7.119  20.025  0.00  0.00    +0.000 C 
ATOM      2  C   UNL     1      43.018   6.460  21.385  0.00  0.00    +0.000 C 
ATOM      3  C   UNL     1      43.918   5.248  21.331  0.00  0.00    +0.000 C 
ATOM      4  N   UNL     1      45.286   5.718  21.324  0.00  0.00    +0.000 NA
ATOM      5  C   UNL     1      45.479   6.777  20.356  0.00  0.00    +0.000 C 
ATOM      6  C   UNL     1      44.333   6.730  19.338  0.00  0.00    +0.000 C 
ENDROOT
BRANCH   1   7
ATOM      7  C   UNL     1      41.862   6.679  19.272  0.00  0.00    +0.000 A 
ATOM      8  C   UNL     1      40.661   6.504  19.960  0.00  0.00    +0.000 A 
ATOM      9  C   UNL     1      39.544   6.096  19.262  0.00  0.00    +0.000 A 
ATOM     10  C   UNL     1      39.548   5.850  17.924  0.00  0.00    +0.000 A 
ATOM     11  C   UNL     1      40.719   6.016  17.231  0.00  0.00    +0.000 A 
ATOM     12  C   UNL     1      41.852   6.429  17.923  0.00  0.00    +0.000 A 
ENDBRANCH   1   7
BRANCH   1  14
ATOM     13  C   UNL     1      43.170   9.475  19.103  0.00  0.00    +0.000 C 
ATOM     14  C   UNL     1      43.017   8.595  20.291  0.00  0.00    +0.000 C 
ATOM     15  O   UNL     1      42.862   9.037  21.397  0.00  0.00    +0.000 OA
ENDBRANCH   1  14
BRANCH   4  16
ATOM     16  C   UNL     1      45.597   6.178  22.663  0.00  0.00    +0.000 C 
BRANCH  16  17
ATOM     17  C   UNL     1      45.444   4.965  23.589  0.00  0.00    +0.000 C 
BRANCH  17  18
ATOM     18  C   UNL     1      44.650   5.465  24.791  0.00  0.00    +0.000 C 
BRANCH  18  19
ATOM     19  C   UNL     1      45.581   5.886  25.889  0.00  0.00    +0.000 C 
BRANCH  19  20
ATOM     20  C   UNL     1      45.249   5.299  27.231  0.00  0.00    +0.000 C 
BRANCH  20  21
ATOM     21  S   UNL     1      43.847   4.183  27.063  0.00  0.00    +0.000 S 
BRANCH  21  22
ATOM     22  C   UNL     1      42.466   4.880  27.986  0.00  0.00    +0.000 A 
ATOM     23  N   UNL     1      41.931   4.188  29.018  0.00  0.00    +0.000 NA
ATOM     24  C   UNL     1      40.930   4.940  29.495  0.00  0.00    +0.000 A 
ATOM     25  C   UNL     1      40.038   4.759  30.524  0.00  0.00    +0.000 A 
ATOM     26  C   UNL     1      39.098   5.692  30.808  0.00  0.00    +0.000 A 
ATOM     27  C   UNL     1      39.012   6.845  30.074  0.00  0.00    +0.000 A 
ATOM     28  C   UNL     1      39.908   7.031  29.040  0.00  0.00    +0.000 A 
ATOM     29  C   UNL     1      40.864   6.096  28.740  0.00  0.00    +0.000 A 
ATOM     30  N   UNL     1      41.834   6.025  27.808  0.00  0.00    +0.000 NA
ENDBRANCH  21  22
ENDBRANCH  20  21
ENDBRANCH  19  20
ENDBRANCH  18  19
ENDBRANCH  17  18
ENDBRANCH  16  17
ENDBRANCH   4  16
TORSDOF 9
ENDMDL
MODEL 9
REMARK VINA RESULT:      -6.5      2.918      5.884
REMARK  Name = 
REMARK  9 active torsions:
REMARK  status: ('A' for Active; 'I' for Inactive)
REMARK    1  A    between atoms: C_2  and  C_4
REMARK    2  A    between atoms: C_4  and  C_5
REMARK    3  A    between atoms: N_13  and  C_14
REMARK    4  A    between atoms: C_14  and  C_15
REMARK    5  A    between atoms: C_15  and  C_16
REMARK    6  A    between atoms: C_16  and  C_17
REMARK    7  A    between atoms: C_17  and  C_18
REMARK    8  A    between atoms: C_18  and  S_19
REMARK    9  A    between atoms: S_19  and  C_20
REMARK                            x       y       z     vdW  Elec       q    Type
REMARK                         _______ _______ _______ _____ _____    ______ ____
ROOT
ATOM      1  C   UNL     1      37.824  -2.265  16.085  0.00  0.00    +0.000 C 
ATOM      2  C   UNL     1      37.818  -3.065  14.801  0.00  0.00    +0.000 C 
ATOM      3  C   UNL     1      37.978  -2.089  13.659  0.00  0.00    +0.000 C 
ATOM      4  N   UNL     1      39.350  -1.630  13.664  0.00  0.00    +0.000 NA
ATOM      5  C   UNL     1      39.771  -1.231  14.990  0.00  0.00    +0.000 C 
ATOM      6  C   UNL     1      38.526  -0.967  15.845  0.00  0.00    +0.000 C 
ENDROOT
BRANCH   1   7
ATOM      7  C   UNL     1      36.411  -2.069  16.498  0.00  0.00    +0.000 A 
ATOM      8  C   UNL     1      35.476  -3.061  16.199  0.00  0.00    +0.000 A 
ATOM      9  C   UNL     1      34.164  -2.881  16.582  0.00  0.00    +0.000 A 
ATOM     10  C   UNL     1      33.725  -1.776  17.244  0.00  0.00    +0.000 A 
ATOM     11  C   UNL     1      34.628  -0.791  17.546  0.00  0.00    +0.000 A 
ATOM     12  C   UNL     1      35.955  -0.961  17.165  0.00  0.00    +0.000 A 
ENDBRANCH   1   7
BRANCH   1  14
ATOM     13  C   UNL     1      38.577  -2.601  18.478  0.00  0.00    +0.000 C 
ATOM     14  C   UNL     1      38.561  -3.110  17.081  0.00  0.00    +0.000 C 
ATOM     15  O   UNL     1      39.101  -4.136  16.770  0.00  0.00    +0.000 OA
ENDBRANCH   1  14
BRANCH   4  16
ATOM     16  C   UNL     1      40.175  -2.711  13.162  0.00  0.00    +0.000 C 
BRANCH  16  17
ATOM     17  C   UNL     1      40.137  -2.617  11.632  0.00  0.00    +0.000 C 
BRANCH  17  18
ATOM     18  C   UNL     1      40.392  -1.150  11.304  0.00  0.00    +0.000 C 
BRANCH  18  19
ATOM     19  C   UNL     1      41.793  -0.770  11.681  0.00  0.00    +0.000 C 
BRANCH  19  20
ATOM     20  C   UNL     1      41.897   0.542  12.405  0.00  0.00    +0.000 C 
BRANCH  20  21
ATOM     21  S   UNL     1      40.763   1.725  11.660  0.00  0.00    +0.000 S 
BRANCH  21  22
ATOM     22  C   UNL     1      39.311   1.849  12.719  0.00  0.00    +0.000 A 
ATOM     23  N   UNL     1      39.399   2.491  13.906  0.00  0.00    +0.000 NA
ATOM     24  C   UNL     1      38.184   2.412  14.466  0.00  0.00    +0.000 A 
ATOM     25  C   UNL     1      37.676   2.873  15.656  0.00  0.00    +0.000 A 
ATOM     26  C   UNL     1      36.383   2.655  15.996  0.00  0.00    +0.000 A 
ATOM     27  C   UNL     1      35.545   1.968  15.159  0.00  0.00    +0.000 A 
ATOM     28  C   UNL     1      36.052   1.503  13.962  0.00  0.00    +0.000 A 
ATOM     29  C   UNL     1      37.358   1.715  13.604  0.00  0.00    +0.000 A 
ATOM     30  N   UNL     1      38.093   1.379  12.526  0.00  0.00    +0.000 NA
ENDBRANCH  21  22
ENDBRANCH  20  21
ENDBRANCH  19  20
ENDBRANCH  18  19
ENDBRANCH  17  18
ENDBRANCH  16  17
ENDBRANCH   4  16
TORSDOF 9
ENDMDL
MODEL 10
REMARK VINA RESULT:      -6.5      4.514      7.773
REMARK  Name = 
REMARK  9 active torsions:
REMARK  status: ('A' for Active; 'I' for Inactive)
REMARK    1  A    between atoms: C_2  and  C_4
REMARK    2  A    between atoms: C_4  and  C_5
REMARK    3  A    between atoms: N_13  and  C_14
REMARK    4  A    between atoms: C_14  and  C_15
REMARK    5  A    between atoms: C_15  and  C_16
REMARK    6  A    between atoms: C_16  and  C_17
REMARK    7  A    between atoms: C_17  and  C_18
REMARK    8  A    between atoms: C_18  and  S_19
REMARK    9  A    between atoms: S_19  and  C_20
REMARK                            x       y       z     vdW  Elec       q    Type
REMARK                         _______ _______ _______ _____ _____    ______ ____
ROOT
ATOM      1  C   UNL     1      37.988  -2.279  15.881  0.00  0.00    +0.000 C 
ATOM      2  C   UNL     1      38.211  -1.242  14.802  0.00  0.00    +0.000 C 
ATOM      3  C   UNL     1      39.567  -0.621  15.046  0.00  0.00    +0.000 C 
ATOM      4  N   UNL     1      40.569  -1.596  14.673  0.00  0.00    +0.000 NA
ATOM      5  C   UNL     1      40.283  -2.896  15.240  0.00  0.00    +0.000 C 
ATOM      6  C   UNL     1      39.312  -2.720  16.414  0.00  0.00    +0.000 C 
ENDROOT
BRANCH   1   7
ATOM      7  C   UNL     1      37.140  -1.658  16.930  0.00  0.00    +0.000 A 
ATOM      8  C   UNL     1      37.569  -1.701  18.258  0.00  0.00    +0.000 A 
ATOM      9  C   UNL     1      36.782  -1.124  19.233  0.00  0.00    +0.000 A 
ATOM     10  C   UNL     1      35.598  -0.509  18.970  0.00  0.00    +0.000 A 
ATOM     11  C   UNL     1      35.160  -0.457  17.672  0.00  0.00    +0.000 A 
ATOM     12  C   UNL     1      35.944  -1.034  16.679  0.00  0.00    +0.000 A 
ENDBRANCH   1   7
BRANCH   1  14
ATOM     13  C   UNL     1      36.941  -4.577  16.070  0.00  0.00    +0.000 C 
ATOM     14  C   UNL     1      37.265  -3.409  15.209  0.00  0.00    +0.000 C 
ATOM     15  O   UNL     1      36.965  -3.370  14.047  0.00  0.00    +0.000 OA
ENDBRANCH   1  14
BRANCH   4  16
ATOM     16  C   UNL     1      40.600  -1.657  13.225  0.00  0.00    +0.000 C 
BRANCH  16  17
ATOM     17  C   UNL     1      40.577  -3.144  12.849  0.00  0.00    +0.000 C 
BRANCH  17  18
ATOM     18  C   UNL     1      41.774  -3.354  11.929  0.00  0.00    +0.000 C 
BRANCH  18  19
ATOM     19  C   UNL     1      43.052  -3.210  12.700  0.00  0.00    +0.000 C 
BRANCH  19  20
ATOM     20  C   UNL     1      44.238  -2.843  11.855  0.00  0.00    +0.000 C 
BRANCH  20  21
ATOM     21  S   UNL     1      45.739  -3.459  12.634  0.00  0.00    +0.000 S 
BRANCH  21  22
ATOM     22  C   UNL     1      45.844  -2.747  14.285  0.00  0.00    +0.000 A 
ATOM     23  N   UNL     1      45.617  -1.425  14.462  0.00  0.00    +0.000 NA
ATOM     24  C   UNL     1      45.774  -1.190  15.771  0.00  0.00    +0.000 A 
ATOM     25  C   UNL     1      45.674  -0.049  16.530  0.00  0.00    +0.000 A 
ATOM     26  C   UNL     1      45.889  -0.078  17.868  0.00  0.00    +0.000 A 
ATOM     27  C   UNL     1      46.212  -1.249  18.500  0.00  0.00    +0.000 A 
ATOM     28  C   UNL     1      46.313  -2.397  17.741  0.00  0.00    +0.000 A 
ATOM     29  C   UNL     1      46.100  -2.384  16.387  0.00  0.00    +0.000 A 
ATOM     30  N   UNL     1      46.135  -3.333  15.431  0.00  0.00    +0.000 NA
ENDBRANCH  21  22
ENDBRANCH  20  21
ENDBRANCH  19  20
ENDBRANCH  18  19
ENDBRANCH  17  18
ENDBRANCH  16  17
ENDBRANCH   4  16
TORSDOF 9
ENDMDL
