MODEL 1
REMARK VINA RESULT:      -6.1      0.000      0.000
REMARK  Name = 
REMARK  4 active torsions:
REMARK  status: ('A' for Active; 'I' for Inactive)
REMARK    1  A    between atoms: O_2  and  C_3
REMARK    2  A    between atoms: C_6  and  C_7
REMARK    3  A    between atoms: C_12  and  C_13
REMARK    4  A    between atoms: C_16  and  O_17
REMARK                            x       y       z     vdW  Elec       q    Type
REMARK                         _______ _______ _______ _____ _____    ______ ____
ROOT
ATOM      1  C   UNL     1      27.733  23.796  24.055  0.00  0.00    +0.000 A 
ATOM      2  N   UNL     1      26.605  23.604  23.378  0.00  0.00    +0.000 NA
ATOM      3  S   UNL     1      27.014  23.858  21.776  0.00  0.00    +0.000 S 
ATOM      4  C   UNL     1      28.664  24.218  21.976  0.00  0.00    +0.000 A 
ATOM      5  O   UNL     1      29.649  24.541  21.013  0.00  0.00    +0.000 OA
ATOM      6  C   UNL     1      28.840  24.124  23.331  0.00  0.00    +0.000 A 
ENDROOT
BRANCH   1  10
ATOM      7  C   UNL     1      27.716  23.414  28.326  0.00  0.00    +0.000 A 
ATOM      8  C   UNL     1      27.420  24.605  27.743  0.00  0.00    +0.000 A 
ATOM      9  C   UNL     1      27.429  24.713  26.362  0.00  0.00    +0.000 A 
ATOM     10  C   UNL     1      27.732  23.646  25.546  0.00  0.00    +0.000 A 
ATOM     11  C   UNL     1      28.030  22.448  26.150  0.00  0.00    +0.000 A 
ATOM     12  C   UNL     1      28.023  22.329  27.537  0.00  0.00    +0.000 A 
BRANCH   7  14
ATOM     13  C   UNL     1      27.078  22.122  30.319  0.00  0.00    +0.000 C 
ATOM     14  O   UNL     1      27.736  23.197  29.696  0.00  0.00    +0.000 OA
ENDBRANCH   7  14
ENDBRANCH   1  10
BRANCH   6  15
ATOM     15  C   UNL     1      30.177  24.372  23.945  0.00  0.00    +0.000 A 
ATOM     16  C   UNL     1      31.078  23.353  24.168  0.00  0.00    +0.000 A 
ATOM     17  C   UNL     1      32.315  23.587  24.737  0.00  0.00    +0.000 A 
ATOM     18  C   UNL     1      32.697  24.856  25.105  0.00  0.00    +0.000 A 
ATOM     19  C   UNL     1      31.810  25.884  24.888  0.00  0.00    +0.000 A 
ATOM     20  C   UNL     1      30.571  25.638  24.317  0.00  0.00    +0.000 A 
BRANCH  18  21
ATOM     21  O   UNL     1      33.960  25.095  25.685  0.00  0.00    +0.000 OA
ATOM     22  C   UNL     1      35.043  25.568  24.924  0.00  0.00    +0.000 C 
ENDBRANCH  18  21
ENDBRANCH   6  15
TORSDOF 4
ENDMDL
MODEL 2
REMARK VINA RESULT:      -5.8      2.132      5.334
REMARK  Name = 
REMARK  4 active torsions:
REMARK  status: ('A' for Active; 'I' for Inactive)
REMARK    1  A    between atoms: O_2  and  C_3
REMARK    2  A    between atoms: C_6  and  C_7
REMARK    3  A    between atoms: C_12  and  C_13
REMARK    4  A    between atoms: C_16  and  O_17
REMARK                            x       y       z     vdW  Elec       q    Type
REMARK                         _______ _______ _______ _____ _____    ______ ____
ROOT
ATOM      1  C   UNL     1      27.517  24.317  23.687  0.00  0.00    +0.000 A 
ATOM      2  N   UNL     1      26.213  24.069  23.607  0.00  0.00    +0.000 NA
ATOM      3  S   UNL     1      25.889  23.046  24.890  0.00  0.00    +0.000 S 
ATOM      4  C   UNL     1      27.455  22.934  25.544  0.00  0.00    +0.000 A 
ATOM      5  O   UNL     1      27.924  22.215  26.669  0.00  0.00    +0.000 OA
ATOM      6  C   UNL     1      28.198  23.726  24.707  0.00  0.00    +0.000 A 
ENDROOT
BRANCH   1  10
ATOM      7  C   UNL     1      29.337  26.929  20.813  0.00  0.00    +0.000 A 
ATOM      8  C   UNL     1      28.696  27.441  21.895  0.00  0.00    +0.000 A 
ATOM      9  C   UNL     1      28.114  26.585  22.816  0.00  0.00    +0.000 A 
ATOM     10  C   UNL     1      28.159  25.217  22.673  0.00  0.00    +0.000 A 
ATOM     11  C   UNL     1      28.810  24.712  21.572  0.00  0.00    +0.000 A 
ATOM     12  C   UNL     1      29.399  25.565  20.643  0.00  0.00    +0.000 A 
BRANCH   7  14
ATOM     13  C   UNL     1      30.176  27.241  18.521  0.00  0.00    +0.000 C 
ATOM     14  O   UNL     1      29.954  27.694  19.834  0.00  0.00    +0.000 OA
ENDBRANCH   7  14
ENDBRANCH   1  10
BRANCH   6  15
ATOM     15  C   UNL     1      29.662  23.905  24.929  0.00  0.00    +0.000 A 
ATOM     16  C   UNL     1      30.164  24.950  25.674  0.00  0.00    +0.000 A 
ATOM     17  C   UNL     1      31.521  25.113  25.877  0.00  0.00    +0.000 A 
ATOM     18  C   UNL     1      32.429  24.231  25.340  0.00  0.00    +0.000 A 
ATOM     19  C   UNL     1      31.945  23.183  24.594  0.00  0.00    +0.000 A 
ATOM     20  C   UNL     1      30.581  23.028  24.396  0.00  0.00    +0.000 A 
BRANCH  18  21
ATOM     21  O   UNL     1      33.814  24.397  25.547  0.00  0.00    +0.000 OA
ATOM     22  C   UNL     1      34.714  24.494  24.471  0.00  0.00    +0.000 C 
ENDBRANCH  18  21
ENDBRANCH   6  15
TORSDOF 4
ENDMDL
MODEL 3
REMARK VINA RESULT:      -5.8      3.972      5.546
REMARK  Name = 
REMARK  4 active torsions:
REMARK  status: ('A' for Active; 'I' for Inactive)
REMARK    1  A    between atoms: O_2  and  C_3
REMARK    2  A    between atoms: C_6  and  C_7
REMARK    3  A    between atoms: C_12  and  C_13
REMARK    4  A    between atoms: C_16  and  O_17
REMARK                            x       y       z     vdW  Elec       q    Type
REMARK                         _______ _______ _______ _____ _____    ______ ____
ROOT
ATOM      1  C   UNL     1      29.991  22.620  30.185  0.00  0.00    +0.000 A 
ATOM      2  N   UNL     1      30.156  22.272  31.457  0.00  0.00    +0.000 NA
ATOM      3  S   UNL     1      31.687  21.601  31.526  0.00  0.00    +0.000 S 
ATOM      4  C   UNL     1      32.126  21.770  29.893  0.00  0.00    +0.000 A 
ATOM      5  O   UNL     1      33.320  21.404  29.227  0.00  0.00    +0.000 OA
ATOM      6  C   UNL     1      31.023  22.363  29.335  0.00  0.00    +0.000 A 
ENDROOT
BRANCH   1  10
ATOM      7  C   UNL     1      26.294  24.417  28.964  0.00  0.00    +0.000 A 
ATOM      8  C   UNL     1      26.379  23.072  29.132  0.00  0.00    +0.000 A 
ATOM      9  C   UNL     1      27.581  22.506  29.528  0.00  0.00    +0.000 A 
ATOM     10  C   UNL     1      28.706  23.264  29.759  0.00  0.00    +0.000 A 
ATOM     11  C   UNL     1      28.605  24.624  29.583  0.00  0.00    +0.000 A 
ATOM     12  C   UNL     1      27.402  25.202  29.187  0.00  0.00    +0.000 A 
BRANCH   7  14
ATOM     13  C   UNL     1      24.715  25.175  27.236  0.00  0.00    +0.000 C 
ATOM     14  O   UNL     1      25.143  25.086  28.572  0.00  0.00    +0.000 OA
ENDBRANCH   7  14
ENDBRANCH   1  10
BRANCH   6  15
ATOM     15  C   UNL     1      30.990  22.693  27.880  0.00  0.00    +0.000 A 
ATOM     16  C   UNL     1      30.259  21.947  26.980  0.00  0.00    +0.000 A 
ATOM     17  C   UNL     1      30.231  22.255  25.633  0.00  0.00    +0.000 A 
ATOM     18  C   UNL     1      30.937  23.327  25.136  0.00  0.00    +0.000 A 
ATOM     19  C   UNL     1      31.670  24.081  26.022  0.00  0.00    +0.000 A 
ATOM     20  C   UNL     1      31.692  23.763  27.371  0.00  0.00    +0.000 A 
BRANCH  18  21
ATOM     21  O   UNL     1      30.908  23.641  23.762  0.00  0.00    +0.000 OA
ATOM     22  C   UNL     1      29.748  24.140  23.145  0.00  0.00    +0.000 C 
ENDBRANCH  18  21
ENDBRANCH   6  15
TORSDOF 4
ENDMDL
MODEL 4
REMARK VINA RESULT:      -5.7      3.562      7.094
REMARK  Name = 
REMARK  4 active torsions:
REMARK  status: ('A' for Active; 'I' for Inactive)
REMARK    1  A    between atoms: O_2  and  C_3
REMARK    2  A    between atoms: C_6  and  C_7
REMARK    3  A    between atoms: C_12  and  C_13
REMARK    4  A    between atoms: C_16  and  O_17
REMARK                            x       y       z     vdW  Elec       q    Type
REMARK                         _______ _______ _______ _____ _____    ______ ____
ROOT
ATOM      1  C   UNL     1      31.166  22.496  28.573  0.00  0.00    +0.000 A 
ATOM      2  N   UNL     1      32.318  21.943  28.942  0.00  0.00    +0.000 NA
ATOM      3  S   UNL     1      32.159  21.672  30.585  0.00  0.00    +0.000 S 
ATOM      4  C   UNL     1      30.587  22.279  30.805  0.00  0.00    +0.000 A 
ATOM      5  O   UNL     1      29.799  22.366  31.977  0.00  0.00    +0.000 OA
ATOM      6  C   UNL     1      30.232  22.685  29.545  0.00  0.00    +0.000 A 
ENDROOT
BRANCH   1  10
ATOM      7  C   UNL     1      30.596  23.622  24.474  0.00  0.00    +0.000 A 
ATOM      8  C   UNL     1      31.285  24.433  25.318  0.00  0.00    +0.000 A 
ATOM      9  C   UNL     1      31.461  24.056  26.640  0.00  0.00    +0.000 A 
ATOM     10  C   UNL     1      30.958  22.875  27.137  0.00  0.00    +0.000 A 
ATOM     11  C   UNL     1      30.263  22.064  26.272  0.00  0.00    +0.000 A 
ATOM     12  C   UNL     1      30.081  22.435  24.942  0.00  0.00    +0.000 A 
BRANCH   7  14
ATOM     13  C   UNL     1      29.076  23.999  22.578  0.00  0.00    +0.000 C 
ATOM     14  O   UNL     1      30.362  23.903  23.136  0.00  0.00    +0.000 OA
ENDBRANCH   7  14
ENDBRANCH   1  10
BRANCH   6  15
ATOM     15  C   UNL     1      28.894  23.294  29.290  0.00  0.00    +0.000 A 
ATOM     16  C   UNL     1      27.773  22.524  29.065  0.00  0.00    +0.000 A 
ATOM     17  C   UNL     1      26.536  23.092  28.828  0.00  0.00    +0.000 A 
ATOM     18  C   UNL     1      26.375  24.458  28.808  0.00  0.00    +0.000 A 
ATOM     19  C   UNL     1      27.483  25.240  29.031  0.00  0.00    +0.000 A 
ATOM     20  C   UNL     1      28.721  24.660  29.267  0.00  0.00    +0.000 A 
BRANCH  18  21
ATOM     21  O   UNL     1      25.112  25.037  28.567  0.00  0.00    +0.000 OA
ATOM     22  C   UNL     1      24.637  25.252  27.262  0.00  0.00    +0.000 C 
ENDBRANCH  18  21
ENDBRANCH   6  15
TORSDOF 4
ENDMDL
MODEL 5
REMARK VINA RESULT:      -5.7     21.183     23.510
REMARK  Name = 
REMARK  4 active torsions:
REMARK  status: ('A' for Active; 'I' for Inactive)
REMARK    1  A    between atoms: O_2  and  C_3
REMARK    2  A    between atoms: C_6  and  C_7
REMARK    3  A    between atoms: C_12  and  C_13
REMARK    4  A    between atoms: C_16  and  O_17
REMARK                            x       y       z     vdW  Elec       q    Type
REMARK                         _______ _______ _______ _____ _____    ______ ____
ROOT
ATOM      1  C   UNL     1      20.233   9.939  37.979  0.00  0.00    +0.000 A 
ATOM      2  N   UNL     1      21.387  10.257  37.401  0.00  0.00    +0.000 NA
ATOM      3  S   UNL     1      22.564   9.666  38.433  0.00  0.00    +0.000 S 
ATOM      4  C   UNL     1      21.558   8.998  39.629  0.00  0.00    +0.000 A 
ATOM      5  O   UNL     1      21.891   8.320  40.826  0.00  0.00    +0.000 OA
ATOM      6  C   UNL     1      20.298   9.270  39.163  0.00  0.00    +0.000 A 
ENDROOT
BRANCH   1  10
ATOM      7  C   UNL     1      16.552  11.080  36.098  0.00  0.00    +0.000 A 
ATOM      8  C   UNL     1      17.164  11.921  36.971  0.00  0.00    +0.000 A 
ATOM      9  C   UNL     1      18.354  11.538  37.571  0.00  0.00    +0.000 A 
ATOM     10  C   UNL     1      18.946  10.323  37.313  0.00  0.00    +0.000 A 
ATOM     11  C   UNL     1      18.314   9.482  36.427  0.00  0.00    +0.000 A 
ATOM     12  C   UNL     1      17.120   9.858  35.819  0.00  0.00    +0.000 A 
BRANCH   7  14
ATOM     13  C   UNL     1      14.838  12.661  35.314  0.00  0.00    +0.000 C 
ATOM     14  O   UNL     1      15.362  11.363  35.443  0.00  0.00    +0.000 OA
ENDBRANCH   7  14
ENDBRANCH   1  10
BRANCH   6  15
ATOM     15  C   UNL     1      19.093   8.845  39.933  0.00  0.00    +0.000 A 
ATOM     16  C   UNL     1      18.608   7.556  39.876  0.00  0.00    +0.000 A 
ATOM     17  C   UNL     1      17.491   7.167  40.589  0.00  0.00    +0.000 A 
ATOM     18  C   UNL     1      16.816   8.058  41.391  0.00  0.00    +0.000 A 
ATOM     19  C   UNL     1      17.287   9.348  41.460  0.00  0.00    +0.000 A 
ATOM     20  C   UNL     1      18.409   9.729  40.738  0.00  0.00    +0.000 A 
BRANCH  18  21
ATOM     21  O   UNL     1      15.676   7.661  42.120  0.00  0.00    +0.000 OA
ATOM     22  C   UNL     1      15.749   7.349  43.489  0.00  0.00    +0.000 C 
ENDBRANCH  18  21
ENDBRANCH   6  15
TORSDOF 4
ENDMDL
MODEL 6
REMARK VINA RESULT:      -5.5      1.441      5.476
REMARK  Name = 
REMARK  4 active torsions:
REMARK  status: ('A' for Active; 'I' for Inactive)
REMARK    1  A    between atoms: O_2  and  C_3
REMARK    2  A    between atoms: C_6  and  C_7
REMARK    3  A    between atoms: C_12  and  C_13
REMARK    4  A    between atoms: C_16  and  O_17
REMARK                            x       y       z     vdW  Elec       q    Type
REMARK                         _______ _______ _______ _____ _____    ______ ____
ROOT
ATOM      1  C   UNL     1      29.569  24.280  23.392  0.00  0.00    +0.000 A 
ATOM      2  N   UNL     1      29.563  24.395  22.067  0.00  0.00    +0.000 NA
ATOM      3  S   UNL     1      28.047  23.868  21.595  0.00  0.00    +0.000 S 
ATOM      4  C   UNL     1      27.407  23.493  23.125  0.00  0.00    +0.000 A 
ATOM      5  O   UNL     1      26.136  22.984  23.481  0.00  0.00    +0.000 OA
ATOM      6  C   UNL     1      28.436  23.803  23.976  0.00  0.00    +0.000 A 
ENDROOT
BRANCH   1  10
ATOM      7  C   UNL     1      33.094  25.359  25.583  0.00  0.00    +0.000 A 
ATOM      8  C   UNL     1      32.925  24.086  25.140  0.00  0.00    +0.000 A 
ATOM      9  C   UNL     1      31.781  23.753  24.433  0.00  0.00    +0.000 A 
ATOM     10  C   UNL     1      30.795  24.673  24.159  0.00  0.00    +0.000 A 
ATOM     11  C   UNL     1      30.979  25.958  24.615  0.00  0.00    +0.000 A 
ATOM     12  C   UNL     1      32.125  26.302  25.326  0.00  0.00    +0.000 A 
BRANCH   7  14
ATOM     13  C   UNL     1      35.290  24.975  26.624  0.00  0.00    +0.000 C 
ATOM     14  O   UNL     1      34.198  25.799  26.298  0.00  0.00    +0.000 OA
ENDBRANCH   7  14
ENDBRANCH   1  10
BRANCH   6  15
ATOM     15  C   UNL     1      28.288  23.615  25.449  0.00  0.00    +0.000 A 
ATOM     16  C   UNL     1      27.834  24.624  26.271  0.00  0.00    +0.000 A 
ATOM     17  C   UNL     1      27.700  24.447  27.635  0.00  0.00    +0.000 A 
ATOM     18  C   UNL     1      28.016  23.247  28.228  0.00  0.00    +0.000 A 
ATOM     19  C   UNL     1      28.469  22.230  27.422  0.00  0.00    +0.000 A 
ATOM     20  C   UNL     1      28.601  22.418  26.054  0.00  0.00    +0.000 A 
BRANCH  18  21
ATOM     21  O   UNL     1      27.878  23.066  29.619  0.00  0.00    +0.000 OA
ATOM     22  C   UNL     1      27.167  21.977  30.154  0.00  0.00    +0.000 C 
ENDBRANCH  18  21
ENDBRANCH   6  15
TORSDOF 4
ENDMDL
MODEL 7
REMARK VINA RESULT:      -5.5      3.582      7.161
REMARK  Name = 
REMARK  4 active torsions:
REMARK  status: ('A' for Active; 'I' for Inactive)
REMARK    1  A    between atoms: O_2  and  C_3
REMARK    2  A    between atoms: C_6  and  C_7
REMARK    3  A    between atoms: C_12  and  C_13
REMARK    4  A    between atoms: C_16  and  O_17
REMARK                            x       y       z     vdW  Elec       q    Type
REMARK                         _______ _______ _______ _____ _____    ______ ____
ROOT
ATOM      1  C   UNL     1      27.074  23.020  27.849  0.00  0.00    +0.000 A 
ATOM      2  N   UNL     1      27.554  21.984  28.531  0.00  0.00    +0.000 NA
ATOM      3  S   UNL     1      27.062  22.242  30.109  0.00  0.00    +0.000 S 
ATOM      4  C   UNL     1      26.224  23.704  29.891  0.00  0.00    +0.000 A 
ATOM      5  O   UNL     1      25.537  24.510  30.831  0.00  0.00    +0.000 OA
ATOM      6  C   UNL     1      26.364  23.946  28.550  0.00  0.00    +0.000 A 
ENDROOT
BRANCH   1  10
ATOM      7  C   UNL     1      27.856  23.296  23.641  0.00  0.00    +0.000 A 
ATOM      8  C   UNL     1      28.858  23.484  24.538  0.00  0.00    +0.000 A 
ATOM      9  C   UNL     1      28.590  23.391  25.895  0.00  0.00    +0.000 A 
ATOM     10  C   UNL     1      27.331  23.112  26.375  0.00  0.00    +0.000 A 
ATOM     11  C   UNL     1      26.326  22.925  25.455  0.00  0.00    +0.000 A 
ATOM     12  C   UNL     1      26.585  23.016  24.090  0.00  0.00    +0.000 A 
BRANCH   7  14
ATOM     13  C   UNL     1      28.900  24.254  21.630  0.00  0.00    +0.000 C 
ATOM     14  O   UNL     1      28.014  23.365  22.265  0.00  0.00    +0.000 OA
ENDBRANCH   7  14
ENDBRANCH   1  10
BRANCH   6  15
ATOM     15  C   UNL     1      25.764  25.162  27.928  0.00  0.00    +0.000 A 
ATOM     16  C   UNL     1      26.485  26.324  27.752  0.00  0.00    +0.000 A 
ATOM     17  C   UNL     1      25.925  27.448  27.177  0.00  0.00    +0.000 A 
ATOM     18  C   UNL     1      24.617  27.451  26.753  0.00  0.00    +0.000 A 
ATOM     19  C   UNL     1      23.883  26.300  26.921  0.00  0.00    +0.000 A 
ATOM     20  C   UNL     1      24.455  25.177  27.501  0.00  0.00    +0.000 A 
BRANCH  18  21
ATOM     21  O   UNL     1      24.045  28.598  26.166  0.00  0.00    +0.000 OA
ATOM     22  C   UNL     1      22.862  28.527  25.410  0.00  0.00    +0.000 C 
ENDBRANCH  18  21
ENDBRANCH   6  15
TORSDOF 4
ENDMDL
MODEL 8
REMARK VINA RESULT:      -5.5      3.039      3.743
REMARK  Name = 
REMARK  4 active torsions:
REMARK  status: ('A' for Active; 'I' for Inactive)
REMARK    1  A    between atoms: O_2  and  C_3
REMARK    2  A    between atoms: C_6  and  C_7
REMARK    3  A    between atoms: C_12  and  C_13
REMARK    4  A    between atoms: C_16  and  O_17
REMARK                            x       y       z     vdW  Elec       q    Type
REMARK                         _______ _______ _______ _____ _____    ______ ____
ROOT
ATOM      1  C   UNL     1      28.447  23.330  26.048  0.00  0.00    +0.000 A 
ATOM      2  N   UNL     1      27.710  23.338  24.941  0.00  0.00    +0.000 NA
ATOM      3  S   UNL     1      28.798  23.075  23.698  0.00  0.00    +0.000 S 
ATOM      4  C   UNL     1      30.225  22.952  24.613  0.00  0.00    +0.000 A 
ATOM      5  O   UNL     1      31.559  22.727  24.197  0.00  0.00    +0.000 OA
ATOM      6  C   UNL     1      29.785  23.128  25.899  0.00  0.00    +0.000 A 
ENDROOT
BRANCH   1  10
ATOM      7  C   UNL     1      26.544  23.880  29.852  0.00  0.00    +0.000 A 
ATOM      8  C   UNL     1      26.850  22.632  29.413  0.00  0.00    +0.000 A 
ATOM      9  C   UNL     1      27.465  22.470  28.182  0.00  0.00    +0.000 A 
ATOM     10  C   UNL     1      27.782  23.539  27.375  0.00  0.00    +0.000 A 
ATOM     11  C   UNL     1      27.466  24.797  27.832  0.00  0.00    +0.000 A 
ATOM     12  C   UNL     1      26.848  24.970  29.068  0.00  0.00    +0.000 A 
BRANCH   7  14
ATOM     13  C   UNL     1      26.230  25.283  31.848  0.00  0.00    +0.000 C 
ATOM     14  O   UNL     1      25.930  24.155  31.065  0.00  0.00    +0.000 OA
ENDBRANCH   7  14
ENDBRANCH   1  10
BRANCH   6  15
ATOM     15  C   UNL     1      30.742  23.094  27.044  0.00  0.00    +0.000 A 
ATOM     16  C   UNL     1      31.361  24.233  27.510  0.00  0.00    +0.000 A 
ATOM     17  C   UNL     1      32.248  24.197  28.569  0.00  0.00    +0.000 A 
ATOM     18  C   UNL     1      32.547  23.014  29.204  0.00  0.00    +0.000 A 
ATOM     19  C   UNL     1      31.936  21.868  28.751  0.00  0.00    +0.000 A 
ATOM     20  C   UNL     1      31.049  21.915  27.686  0.00  0.00    +0.000 A 
BRANCH  18  21
ATOM     21  O   UNL     1      33.451  22.978  30.285  0.00  0.00    +0.000 OA
ATOM     22  C   UNL     1      33.665  21.803  31.027  0.00  0.00    +0.000 C 
ENDBRANCH  18  21
ENDBRANCH   6  15
TORSDOF 4
ENDMDL
MODEL 9
REMARK VINA RESULT:      -5.3      3.897      5.310
REMARK  Name = 
REMARK  4 active torsions:
REMARK  status: ('A' for Active; 'I' for Inactive)
REMARK    1  A    between atoms: O_2  and  C_3
REMARK    2  A    between atoms: C_6  and  C_7
REMARK    3  A    between atoms: C_12  and  C_13
REMARK    4  A    between atoms: C_16  and  O_17
REMARK                            x       y       z     vdW  Elec       q    Type
REMARK                         _______ _______ _______ _____ _____    ______ ____
ROOT
ATOM      1  C   UNL     1      25.110  25.403  28.146  0.00  0.00    +0.000 A 
ATOM      2  N   UNL     1      24.280  25.990  29.003  0.00  0.00    +0.000 NA
ATOM      3  S   UNL     1      23.086  26.671  28.050  0.00  0.00    +0.000 S 
ATOM      4  C   UNL     1      23.659  26.193  26.523  0.00  0.00    +0.000 A 
ATOM      5  O   UNL     1      23.127  26.431  25.233  0.00  0.00    +0.000 OA
ATOM      6  C   UNL     1      24.801  25.497  26.824  0.00  0.00    +0.000 A 
ENDROOT
BRANCH   1  10
ATOM      7  C   UNL     1      28.588  23.380  29.630  0.00  0.00    +0.000 A 
ATOM      8  C   UNL     1      28.665  24.678  29.239  0.00  0.00    +0.000 A 
ATOM      9  C   UNL     1      27.532  25.319  28.763  0.00  0.00    +0.000 A 
ATOM     10  C   UNL     1      26.316  24.682  28.667  0.00  0.00    +0.000 A 
ATOM     11  C   UNL     1      26.254  23.367  29.065  0.00  0.00    +0.000 A 
ATOM     12  C   UNL     1      27.386  22.715  29.546  0.00  0.00    +0.000 A 
BRANCH   7  14
ATOM     13  C   UNL     1      30.896  22.546  29.464  0.00  0.00    +0.000 C 
ATOM     14  O   UNL     1      29.657  22.646  30.121  0.00  0.00    +0.000 OA
ENDBRANCH   7  14
ENDBRANCH   1  10
BRANCH   6  15
ATOM     15  C   UNL     1      25.633  24.894  25.742  0.00  0.00    +0.000 A 
ATOM     16  C   UNL     1      26.583  25.623  25.059  0.00  0.00    +0.000 A 
ATOM     17  C   UNL     1      27.350  25.061  24.057  0.00  0.00    +0.000 A 
ATOM     18  C   UNL     1      27.195  23.741  23.701  0.00  0.00    +0.000 A 
ATOM     19  C   UNL     1      26.252  22.999  24.374  0.00  0.00    +0.000 A 
ATOM     20  C   UNL     1      25.486  23.574  25.377  0.00  0.00    +0.000 A 
BRANCH  18  21
ATOM     21  O   UNL     1      27.978  23.167  22.680  0.00  0.00    +0.000 OA
ATOM     22  C   UNL     1      28.717  23.960  21.784  0.00  0.00    +0.000 C 
ENDBRANCH  18  21
ENDBRANCH   6  15
TORSDOF 4
ENDMDL
MODEL 10
REMARK VINA RESULT:      -5.3      3.326      5.739
REMARK  Name = 
REMARK  4 active torsions:
REMARK  status: ('A' for Active; 'I' for Inactive)
REMARK    1  A    between atoms: O_2  and  C_3
REMARK    2  A    between atoms: C_6  and  C_7
REMARK    3  A    between atoms: C_12  and  C_13
REMARK    4  A    between atoms: C_16  and  O_17
REMARK                            x       y       z     vdW  Elec       q    Type
REMARK                         _______ _______ _______ _____ _____    ______ ____
ROOT
ATOM      1  C   UNL     1      30.130  22.999  26.018  0.00  0.00    +0.000 A 
ATOM      2  N   UNL     1      30.621  22.830  24.793  0.00  0.00    +0.000 NA
ATOM      3  S   UNL     1      29.300  22.972  23.776  0.00  0.00    +0.000 S 
ATOM      4  C   UNL     1      28.095  23.254  24.942  0.00  0.00    +0.000 A 
ATOM      5  O   UNL     1      26.706  23.468  24.783  0.00  0.00    +0.000 OA
ATOM      6  C   UNL     1      28.792  23.225  26.122  0.00  0.00    +0.000 A 
ENDROOT
BRANCH   1  10
ATOM      7  C   UNL     1      32.785  22.861  29.383  0.00  0.00    +0.000 A 
ATOM      8  C   UNL     1      32.588  24.026  28.713  0.00  0.00    +0.000 A 
ATOM      9  C   UNL     1      31.727  24.055  27.627  0.00  0.00    +0.000 A 
ATOM     10  C   UNL     1      31.055  22.934  27.196  0.00  0.00    +0.000 A 
ATOM     11  C   UNL     1      31.265  21.762  27.883  0.00  0.00    +0.000 A 
ATOM     12  C   UNL     1      32.128  21.723  28.975  0.00  0.00    +0.000 A 
BRANCH   7  14
ATOM     13  C   UNL     1      33.814  21.505  31.159  0.00  0.00    +0.000 C 
ATOM     14  O   UNL     1      33.623  22.721  30.480  0.00  0.00    +0.000 OA
ENDBRANCH   7  14
ENDBRANCH   1  10
BRANCH   6  15
ATOM     15  C   UNL     1      28.093  23.431  27.424  0.00  0.00    +0.000 A 
ATOM     16  C   UNL     1      27.627  22.375  28.177  0.00  0.00    +0.000 A 
ATOM     17  C   UNL     1      26.980  22.570  29.382  0.00  0.00    +0.000 A 
ATOM     18  C   UNL     1      26.776  23.836  29.880  0.00  0.00    +0.000 A 
ATOM     19  C   UNL     1      27.235  24.900  29.141  0.00  0.00    +0.000 A 
ATOM     20  C   UNL     1      27.883  24.694  27.932  0.00  0.00    +0.000 A 
BRANCH  18  21
ATOM     21  O   UNL     1      26.116  24.035  31.110  0.00  0.00    +0.000 OA
ATOM     22  C   UNL     1      25.926  25.322  31.644  0.00  0.00    +0.000 C 
ENDBRANCH  18  21
ENDBRANCH   6  15
TORSDOF 4
ENDMDL
