MODEL 1
REMARK VINA RESULT:      -7.5      0.000      0.000
REMARK  Name = 
REMARK  8 active torsions:
REMARK  status: ('A' for Active; 'I' for Inactive)
REMARK    1  A    between atoms: C_2  and  O_3
REMARK    2  A    between atoms: O_3  and  C_4
REMARK    3  A    between atoms: C_6  and  C_7
REMARK    4  A    between atoms: N_9  and  N_10
REMARK    5  A    between atoms: C_25  and  O_26
REMARK    6  A    between atoms: O_26  and  C_27
REMARK    7  A    between atoms: C_29  and  O_30
REMARK    8  A    between atoms: O_30  and  C_31
REMARK                            x       y       z     vdW  Elec       q    Type
REMARK                         _______ _______ _______ _____ _____    ______ ____
ROOT
ATOM      1  C   UNL     1      25.800  16.164  38.540  0.00  0.00    +0.000 C 
ATOM      2  O   UNL     1      24.709  16.629  38.948  0.00  0.00    +0.000 OA
ATOM      3  N   UNL     1      26.344  16.718  37.353  0.00  0.00    +0.000 NA
ENDROOT
BRANCH   3   4
ATOM      4  N   UNL     1      25.728  17.734  36.640  0.00  0.00    +0.000 NA
ATOM      5  C   UNL     1      25.333  17.603  35.413  0.00  0.00    +0.000 C 
ATOM      6  C   UNL     1      24.677  18.597  34.571  0.00  0.00    +0.000 A 
ATOM      7  C   UNL     1      24.332  19.903  34.897  0.00  0.00    +0.000 A 
ATOM      8  C   UNL     1      23.713  20.667  33.929  0.00  0.00    +0.000 A 
ATOM      9  C   UNL     1      23.445  20.150  32.676  0.00  0.00    +0.000 A 
ATOM     10  C   UNL     1      23.803  18.852  32.390  0.00  0.00    +0.000 A 
ATOM     11  C   UNL     1      24.423  18.057  33.328  0.00  0.00    +0.000 A 
ATOM     12  C   UNL     1      24.910  16.666  33.314  0.00  0.00    +0.000 A 
ATOM     13  C   UNL     1      24.906  15.692  32.342  0.00  0.00    +0.000 A 
ATOM     14  C   UNL     1      25.444  14.460  32.622  0.00  0.00    +0.000 A 
ATOM     15  C   UNL     1      25.973  14.229  33.866  0.00  0.00    +0.000 A 
ATOM     16  C   UNL     1      25.995  15.178  34.863  0.00  0.00    +0.000 A 
ATOM     17  C   UNL     1      25.455  16.413  34.578  0.00  0.00    +0.000 A 
ENDBRANCH   3   4
BRANCH   1  20
ATOM     18  C   UNL     1      28.607  14.111  39.873  0.00  0.00    +0.000 A 
ATOM     19  C   UNL     1      27.892  15.092  39.229  0.00  0.00    +0.000 A 
ATOM     20  C   UNL     1      26.498  15.094  39.243  0.00  0.00    +0.000 A 
ATOM     21  C   UNL     1      25.848  14.105  39.907  0.00  0.00    +0.000 A 
ATOM     22  C   UNL     1      26.534  13.104  40.564  0.00  0.00    +0.000 A 
ATOM     23  C   UNL     1      27.905  13.127  40.534  0.00  0.00    +0.000 A 
BRANCH  18  24
ATOM     24  O   UNL     1      29.986  14.156  39.828  0.00  0.00    +0.000 OA
BRANCH  24  26
ATOM     25  C   UNL     1      31.514  12.836  38.515  0.00  0.00    +0.000 C 
ATOM     26  C   UNL     1      30.658  14.095  38.588  0.00  0.00    +0.000 C 
ENDBRANCH  24  26
ENDBRANCH  18  24
BRANCH  22  27
ATOM     27  O   UNL     1      25.894  12.082  41.250  0.00  0.00    +0.000 OA
BRANCH  27  28
ATOM     28  C   UNL     1      25.334  12.396  42.513  0.00  0.00    +0.000 C 
ATOM     29  C   UNL     1      26.253  11.806  43.564  0.00  0.00    +0.000 C 
ENDBRANCH  27  28
ENDBRANCH  22  27
BRANCH  23  30
ATOM     30  O   UNL     1      28.674  12.148  41.175  0.00  0.00    +0.000 OA
BRANCH  30  31
ATOM     31  C   UNL     1      28.972  10.987  40.407  0.00  0.00    +0.000 C 
ATOM     32  C   UNL     1      28.362   9.767  41.047  0.00  0.00    +0.000 C 
ENDBRANCH  30  31
ENDBRANCH  23  30
ENDBRANCH   1  20
TORSDOF 8
ENDMDL
MODEL 2
REMARK VINA RESULT:      -7.4      0.314      2.988
REMARK  Name = 
REMARK  8 active torsions:
REMARK  status: ('A' for Active; 'I' for Inactive)
REMARK    1  A    between atoms: C_2  and  O_3
REMARK    2  A    between atoms: O_3  and  C_4
REMARK    3  A    between atoms: C_6  and  C_7
REMARK    4  A    between atoms: N_9  and  N_10
REMARK    5  A    between atoms: C_25  and  O_26
REMARK    6  A    between atoms: O_26  and  C_27
REMARK    7  A    between atoms: C_29  and  O_30
REMARK    8  A    between atoms: O_30  and  C_31
REMARK                            x       y       z     vdW  Elec       q    Type
REMARK                         _______ _______ _______ _____ _____    ______ ____
ROOT
ATOM      1  C   UNL     1      25.787  16.185  38.471  0.00  0.00    +0.000 C 
ATOM      2  O   UNL     1      24.598  16.481  38.736  0.00  0.00    +0.000 OA
ATOM      3  N   UNL     1      26.421  16.902  37.424  0.00  0.00    +0.000 NA
ENDROOT
BRANCH   3   4
ATOM      4  N   UNL     1      25.788  17.897  36.697  0.00  0.00    +0.000 NA
ATOM      5  C   UNL     1      25.374  17.733  35.480  0.00  0.00    +0.000 C 
ATOM      6  C   UNL     1      24.699  18.702  34.625  0.00  0.00    +0.000 A 
ATOM      7  C   UNL     1      24.354  20.015  34.922  0.00  0.00    +0.000 A 
ATOM      8  C   UNL     1      23.715  20.752  33.947  0.00  0.00    +0.000 A 
ATOM      9  C   UNL     1      23.429  20.202  32.711  0.00  0.00    +0.000 A 
ATOM     10  C   UNL     1      23.788  18.899  32.452  0.00  0.00    +0.000 A 
ATOM     11  C   UNL     1      24.426  18.131  33.400  0.00  0.00    +0.000 A 
ATOM     12  C   UNL     1      24.920  16.741  33.412  0.00  0.00    +0.000 A 
ATOM     13  C   UNL     1      24.904  15.743  32.466  0.00  0.00    +0.000 A 
ATOM     14  C   UNL     1      25.452  14.521  32.768  0.00  0.00    +0.000 A 
ATOM     15  C   UNL     1      26.003  14.324  34.008  0.00  0.00    +0.000 A 
ATOM     16  C   UNL     1      26.037  15.298  34.980  0.00  0.00    +0.000 A 
ATOM     17  C   UNL     1      25.487  16.523  34.673  0.00  0.00    +0.000 A 
ENDBRANCH   3   4
BRANCH   1  20
ATOM     18  C   UNL     1      26.394  13.232  40.658  0.00  0.00    +0.000 A 
ATOM     19  C   UNL     1      25.773  14.233  39.950  0.00  0.00    +0.000 A 
ATOM     20  C   UNL     1      26.509  15.147  39.199  0.00  0.00    +0.000 A 
ATOM     21  C   UNL     1      27.861  15.037  39.173  0.00  0.00    +0.000 A 
ATOM     22  C   UNL     1      28.518  14.045  39.872  0.00  0.00    +0.000 A 
ATOM     23  C   UNL     1      27.768  13.159  40.603  0.00  0.00    +0.000 A 
BRANCH  18  24
ATOM     24  O   UNL     1      25.618  12.353  41.386  0.00  0.00    +0.000 OA
BRANCH  24  26
ATOM     25  C   UNL     1      25.730  11.476  43.626  0.00  0.00    +0.000 C 
ATOM     26  C   UNL     1      25.301  12.634  42.733  0.00  0.00    +0.000 C 
ENDBRANCH  24  26
ENDBRANCH  18  24
BRANCH  22  27
ATOM     27  O   UNL     1      29.899  13.910  39.863  0.00  0.00    +0.000 OA
BRANCH  27  28
ATOM     28  C   UNL     1      30.622  14.683  38.920  0.00  0.00    +0.000 C 
ATOM     29  C   UNL     1      31.388  13.710  38.046  0.00  0.00    +0.000 C 
ENDBRANCH  27  28
ENDBRANCH  22  27
BRANCH  23  30
ATOM     30  O   UNL     1      28.359  12.124  41.340  0.00  0.00    +0.000 OA
BRANCH  30  31
ATOM     31  C   UNL     1      28.759  10.979  40.596  0.00  0.00    +0.000 C 
ATOM     32  C   UNL     1      27.877   9.804  40.931  0.00  0.00    +0.000 C 
ENDBRANCH  30  31
ENDBRANCH  23  30
ENDBRANCH   1  20
TORSDOF 8
ENDMDL
MODEL 3
REMARK VINA RESULT:      -7.0     25.351     28.793
REMARK  Name = 
REMARK  8 active torsions:
REMARK  status: ('A' for Active; 'I' for Inactive)
REMARK    1  A    between atoms: C_2  and  O_3
REMARK    2  A    between atoms: O_3  and  C_4
REMARK    3  A    between atoms: C_6  and  C_7
REMARK    4  A    between atoms: N_9  and  N_10
REMARK    5  A    between atoms: C_25  and  O_26
REMARK    6  A    between atoms: O_26  and  C_27
REMARK    7  A    between atoms: C_29  and  O_30
REMARK    8  A    between atoms: O_30  and  C_31
REMARK                            x       y       z     vdW  Elec       q    Type
REMARK                         _______ _______ _______ _____ _____    ______ ____
ROOT
ATOM      1  C   UNL     1      36.607   2.424  16.287  0.00  0.00    +0.000 C 
ATOM      2  O   UNL     1      36.561   1.952  17.448  0.00  0.00    +0.000 OA
ATOM      3  N   UNL     1      36.228   1.571  15.219  0.00  0.00    +0.000 NA
ENDROOT
BRANCH   3   4
ATOM      4  N   UNL     1      35.817   0.261  15.406  0.00  0.00    +0.000 NA
ATOM      5  C   UNL     1      36.617  -0.755  15.317  0.00  0.00    +0.000 C 
ATOM      6  C   UNL     1      36.296  -2.166  15.494  0.00  0.00    +0.000 A 
ATOM      7  C   UNL     1      35.064  -2.735  15.795  0.00  0.00    +0.000 A 
ATOM      8  C   UNL     1      34.998  -4.108  15.915  0.00  0.00    +0.000 A 
ATOM      9  C   UNL     1      36.123  -4.892  15.741  0.00  0.00    +0.000 A 
ATOM     10  C   UNL     1      37.326  -4.293  15.443  0.00  0.00    +0.000 A 
ATOM     11  C   UNL     1      37.432  -2.927  15.315  0.00  0.00    +0.000 A 
ATOM     12  C   UNL     1      38.556  -2.022  15.011  0.00  0.00    +0.000 A 
ATOM     13  C   UNL     1      39.887  -2.253  14.751  0.00  0.00    +0.000 A 
ATOM     14  C   UNL     1      40.717  -1.189  14.495  0.00  0.00    +0.000 A 
ATOM     15  C   UNL     1      40.198   0.080  14.506  0.00  0.00    +0.000 A 
ATOM     16  C   UNL     1      38.873   0.350  14.761  0.00  0.00    +0.000 A 
ATOM     17  C   UNL     1      38.043  -0.721  15.017  0.00  0.00    +0.000 A 
ENDBRANCH   3   4
BRANCH   1  20
ATOM     18  C   UNL     1      36.890   5.729  14.593  0.00  0.00    +0.000 A 
ATOM     19  C   UNL     1      36.527   4.438  14.896  0.00  0.00    +0.000 A 
ATOM     20  C   UNL     1      37.033   3.794  16.023  0.00  0.00    +0.000 A 
ATOM     21  C   UNL     1      37.897   4.462  16.828  0.00  0.00    +0.000 A 
ATOM     22  C   UNL     1      38.284   5.758  16.554  0.00  0.00    +0.000 A 
ATOM     23  C   UNL     1      37.770   6.368  15.438  0.00  0.00    +0.000 A 
BRANCH  18  24
ATOM     24  O   UNL     1      36.360   6.320  13.464  0.00  0.00    +0.000 OA
BRANCH  24  26
ATOM     25  C   UNL     1      34.103   6.993  13.969  0.00  0.00    +0.000 C 
ATOM     26  C   UNL     1      35.007   6.107  13.120  0.00  0.00    +0.000 C 
ENDBRANCH  24  26
ENDBRANCH  18  24
BRANCH  22  27
ATOM     27  O   UNL     1      39.166   6.463  17.359  0.00  0.00    +0.000 OA
BRANCH  27  28
ATOM     28  C   UNL     1      38.816   6.625  18.722  0.00  0.00    +0.000 C 
ATOM     29  C   UNL     1      40.013   6.189  19.542  0.00  0.00    +0.000 C 
ENDBRANCH  27  28
ENDBRANCH  22  27
BRANCH  23  30
ATOM     30  O   UNL     1      38.113   7.681  15.090  0.00  0.00    +0.000 OA
BRANCH  30  31
ATOM     31  C   UNL     1      37.284   8.705  15.629  0.00  0.00    +0.000 C 
ATOM     32  C   UNL     1      36.810   9.624  14.533  0.00  0.00    +0.000 C 
ENDBRANCH  30  31
ENDBRANCH  23  30
ENDBRANCH   1  20
TORSDOF 8
ENDMDL
MODEL 4
REMARK VINA RESULT:      -7.0     24.498     27.804
REMARK  Name = 
REMARK  8 active torsions:
REMARK  status: ('A' for Active; 'I' for Inactive)
REMARK    1  A    between atoms: C_2  and  O_3
REMARK    2  A    between atoms: O_3  and  C_4
REMARK    3  A    between atoms: C_6  and  C_7
REMARK    4  A    between atoms: N_9  and  N_10
REMARK    5  A    between atoms: C_25  and  O_26
REMARK    6  A    between atoms: O_26  and  C_27
REMARK    7  A    between atoms: C_29  and  O_30
REMARK    8  A    between atoms: O_30  and  C_31
REMARK                            x       y       z     vdW  Elec       q    Type
REMARK                         _______ _______ _______ _____ _____    ______ ____
ROOT
ATOM      1  C   UNL     1      39.082   4.048  15.278  0.00  0.00    +0.000 C 
ATOM      2  O   UNL     1      39.901   4.058  14.329  0.00  0.00    +0.000 OA
ATOM      3  N   UNL     1      38.465   2.812  15.598  0.00  0.00    +0.000 NA
ENDROOT
BRANCH   3   4
ATOM      4  N   UNL     1      38.728   1.636  14.913  0.00  0.00    +0.000 NA
ATOM      5  C   UNL     1      37.992   0.574  15.016  0.00  0.00    +0.000 C 
ATOM      6  C   UNL     1      38.172  -0.709  14.347  0.00  0.00    +0.000 A 
ATOM      7  C   UNL     1      39.170  -1.079  13.454  0.00  0.00    +0.000 A 
ATOM      8  C   UNL     1      39.138  -2.360  12.944  0.00  0.00    +0.000 A 
ATOM      9  C   UNL     1      38.144  -3.248  13.310  0.00  0.00    +0.000 A 
ATOM     10  C   UNL     1      37.172  -2.846  14.198  0.00  0.00    +0.000 A 
ATOM     11  C   UNL     1      37.170  -1.576  14.729  0.00  0.00    +0.000 A 
ATOM     12  C   UNL     1      36.283  -0.876  15.677  0.00  0.00    +0.000 A 
ATOM     13  C   UNL     1      35.151  -1.271  16.352  0.00  0.00    +0.000 A 
ATOM     14  C   UNL     1      34.522  -0.382  17.188  0.00  0.00    +0.000 A 
ATOM     15  C   UNL     1      35.038   0.880  17.332  0.00  0.00    +0.000 A 
ATOM     16  C   UNL     1      36.167   1.311  16.674  0.00  0.00    +0.000 A 
ATOM     17  C   UNL     1      36.796   0.415  15.836  0.00  0.00    +0.000 A 
ENDBRANCH   3   4
BRANCH   1  20
ATOM     18  C   UNL     1      38.834   6.401  18.155  0.00  0.00    +0.000 A 
ATOM     19  C   UNL     1      39.109   5.296  17.386  0.00  0.00    +0.000 A 
ATOM     20  C   UNL     1      38.762   5.252  16.038  0.00  0.00    +0.000 A 
ATOM     21  C   UNL     1      38.142   6.325  15.485  0.00  0.00    +0.000 A 
ATOM     22  C   UNL     1      37.849   7.451  16.228  0.00  0.00    +0.000 A 
ATOM     23  C   UNL     1      38.203   7.467  17.553  0.00  0.00    +0.000 A 
BRANCH  18  24
ATOM     24  O   UNL     1      39.200   6.392  19.486  0.00  0.00    +0.000 OA
BRANCH  24  26
ATOM     25  C   UNL     1      41.201   7.481  20.267  0.00  0.00    +0.000 C 
ATOM     26  C   UNL     1      40.546   6.170  19.851  0.00  0.00    +0.000 C 
ENDBRANCH  24  26
ENDBRANCH  18  24
BRANCH  22  27
ATOM     27  O   UNL     1      37.216   8.561  15.688  0.00  0.00    +0.000 OA
BRANCH  27  28
ATOM     28  C   UNL     1      35.893   8.387  15.210  0.00  0.00    +0.000 C 
ATOM     29  C   UNL     1      35.023   9.388  15.943  0.00  0.00    +0.000 C 
ENDBRANCH  27  28
ENDBRANCH  22  27
BRANCH  23  30
ATOM     30  O   UNL     1      37.942   8.571  18.374  0.00  0.00    +0.000 OA
BRANCH  30  31
ATOM     31  C   UNL     1      38.926   9.599  18.368  0.00  0.00    +0.000 C 
ATOM     32  C   UNL     1      38.849  10.404  19.639  0.00  0.00    +0.000 C 
ENDBRANCH  30  31
ENDBRANCH  23  30
ENDBRANCH   1  20
TORSDOF 8
ENDMDL
MODEL 5
REMARK VINA RESULT:      -6.9     25.306     28.683
REMARK  Name = 
REMARK  8 active torsions:
REMARK  status: ('A' for Active; 'I' for Inactive)
REMARK    1  A    between atoms: C_2  and  O_3
REMARK    2  A    between atoms: O_3  and  C_4
REMARK    3  A    between atoms: C_6  and  C_7
REMARK    4  A    between atoms: N_9  and  N_10
REMARK    5  A    between atoms: C_25  and  O_26
REMARK    6  A    between atoms: O_26  and  C_27
REMARK    7  A    between atoms: C_29  and  O_30
REMARK    8  A    between atoms: O_30  and  C_31
REMARK                            x       y       z     vdW  Elec       q    Type
REMARK                         _______ _______ _______ _____ _____    ______ ____
ROOT
ATOM      1  C   UNL     1      36.810   2.637  16.373  0.00  0.00    +0.000 C 
ATOM      2  O   UNL     1      36.684   2.175  17.532  0.00  0.00    +0.000 OA
ATOM      3  N   UNL     1      36.468   1.788  15.290  0.00  0.00    +0.000 NA
ENDROOT
BRANCH   3   4
ATOM      4  N   UNL     1      36.009   0.492  15.461  0.00  0.00    +0.000 NA
ATOM      5  C   UNL     1      36.765  -0.553  15.333  0.00  0.00    +0.000 C 
ATOM      6  C   UNL     1      36.392  -1.954  15.489  0.00  0.00    +0.000 A 
ATOM      7  C   UNL     1      35.145  -2.479  15.807  0.00  0.00    +0.000 A 
ATOM      8  C   UNL     1      35.028  -3.851  15.901  0.00  0.00    +0.000 A 
ATOM      9  C   UNL     1      36.116  -4.676  15.685  0.00  0.00    +0.000 A 
ATOM     10  C   UNL     1      37.334  -4.119  15.371  0.00  0.00    +0.000 A 
ATOM     11  C   UNL     1      37.492  -2.755  15.268  0.00  0.00    +0.000 A 
ATOM     12  C   UNL     1      38.645  -1.890  14.955  0.00  0.00    +0.000 A 
ATOM     13  C   UNL     1      39.959  -2.167  14.659  0.00  0.00    +0.000 A 
ATOM     14  C   UNL     1      40.825  -1.132  14.405  0.00  0.00    +0.000 A 
ATOM     15  C   UNL     1      40.357   0.156  14.453  0.00  0.00    +0.000 A 
ATOM     16  C   UNL     1      39.050   0.473  14.746  0.00  0.00    +0.000 A 
ATOM     17  C   UNL     1      38.185  -0.569  14.999  0.00  0.00    +0.000 A 
ENDBRANCH   3   4
BRANCH   1  20
ATOM     18  C   UNL     1      38.660   5.832  16.867  0.00  0.00    +0.000 A 
ATOM     19  C   UNL     1      38.173   4.559  17.043  0.00  0.00    +0.000 A 
ATOM     20  C   UNL     1      37.289   3.992  16.127  0.00  0.00    +0.000 A 
ATOM     21  C   UNL     1      36.911   4.720  15.046  0.00  0.00    +0.000 A 
ATOM     22  C   UNL     1      37.380   6.001  14.837  0.00  0.00    +0.000 A 
ATOM     23  C   UNL     1      38.249   6.533  15.756  0.00  0.00    +0.000 A 
BRANCH  18  24
ATOM     24  O   UNL     1      39.533   6.344  17.806  0.00  0.00    +0.000 OA
BRANCH  24  26
ATOM     25  C   UNL     1      40.600   6.429  19.963  0.00  0.00    +0.000 C 
ATOM     26  C   UNL     1      39.347   6.062  19.176  0.00  0.00    +0.000 C 
ENDBRANCH  24  26
ENDBRANCH  18  24
BRANCH  22  27
ATOM     27  O   UNL     1      37.008   6.766  13.742  0.00  0.00    +0.000 OA
BRANCH  27  28
ATOM     28  C   UNL     1      35.678   7.253  13.708  0.00  0.00    +0.000 C 
ATOM     29  C   UNL     1      34.995   6.593  12.527  0.00  0.00    +0.000 C 
ENDBRANCH  27  28
ENDBRANCH  22  27
BRANCH  23  30
ATOM     30  O   UNL     1      38.769   7.826  15.617  0.00  0.00    +0.000 OA
BRANCH  30  31
ATOM     31  C   UNL     1      38.004   8.873  16.204  0.00  0.00    +0.000 C 
ATOM     32  C   UNL     1      38.852   9.664  17.165  0.00  0.00    +0.000 C 
ENDBRANCH  30  31
ENDBRANCH  23  30
ENDBRANCH   1  20
TORSDOF 8
ENDMDL
MODEL 6
REMARK VINA RESULT:      -6.9     26.099     29.752
REMARK  Name = 
REMARK  8 active torsions:
REMARK  status: ('A' for Active; 'I' for Inactive)
REMARK    1  A    between atoms: C_2  and  O_3
REMARK    2  A    between atoms: O_3  and  C_4
REMARK    3  A    between atoms: C_6  and  C_7
REMARK    4  A    between atoms: N_9  and  N_10
REMARK    5  A    between atoms: C_25  and  O_26
REMARK    6  A    between atoms: O_26  and  C_27
REMARK    7  A    between atoms: C_29  and  O_30
REMARK    8  A    between atoms: O_30  and  C_31
REMARK                            x       y       z     vdW  Elec       q    Type
REMARK                         _______ _______ _______ _____ _____    ______ ____
ROOT
ATOM      1  C   UNL     1      35.659   2.916  15.092  0.00  0.00    +0.000 C 
ATOM      2  O   UNL     1      35.419   2.918  16.323  0.00  0.00    +0.000 OA
ATOM      3  N   UNL     1      36.103   1.699  14.514  0.00  0.00    +0.000 NA
ENDROOT
BRANCH   3   4
ATOM      4  N   UNL     1      36.279   0.535  15.244  0.00  0.00    +0.000 NA
ATOM      5  C   UNL     1      37.404  -0.105  15.300  0.00  0.00    +0.000 C 
ATOM      6  C   UNL     1      37.702  -1.331  16.031  0.00  0.00    +0.000 A 
ATOM      7  C   UNL     1      36.848  -2.085  16.827  0.00  0.00    +0.000 A 
ATOM      8  C   UNL     1      37.356  -3.219  17.426  0.00  0.00    +0.000 A 
ATOM      9  C   UNL     1      38.673  -3.594  17.239  0.00  0.00    +0.000 A 
ATOM     10  C   UNL     1      39.489  -2.823  16.442  0.00  0.00    +0.000 A 
ATOM     11  C   UNL     1      39.020  -1.684  15.828  0.00  0.00    +0.000 A 
ATOM     12  C   UNL     1      39.641  -0.682  14.942  0.00  0.00    +0.000 A 
ATOM     13  C   UNL     1      40.912  -0.557  14.431  0.00  0.00    +0.000 A 
ATOM     14  C   UNL     1      41.206   0.506  13.612  0.00  0.00    +0.000 A 
ATOM     15  C   UNL     1      40.225   1.418  13.323  0.00  0.00    +0.000 A 
ATOM     16  C   UNL     1      38.943   1.326  13.815  0.00  0.00    +0.000 A 
ATOM     17  C   UNL     1      38.651   0.258  14.636  0.00  0.00    +0.000 A 
ENDBRANCH   3   4
BRANCH   1  20
ATOM     18  C   UNL     1      36.239   5.384  12.364  0.00  0.00    +0.000 A 
ATOM     19  C   UNL     1      36.344   4.282  13.177  0.00  0.00    +0.000 A 
ATOM     20  C   UNL     1      35.494   4.109  14.269  0.00  0.00    +0.000 A 
ATOM     21  C   UNL     1      34.552   5.052  14.522  0.00  0.00    +0.000 A 
ATOM     22  C   UNL     1      34.419   6.172  13.726  0.00  0.00    +0.000 A 
ATOM     23  C   UNL     1      35.269   6.316  12.659  0.00  0.00    +0.000 A 
BRANCH  18  24
ATOM     24  O   UNL     1      37.106   5.506  11.296  0.00  0.00    +0.000 OA
BRANCH  24  26
ATOM     25  C   UNL     1      36.257   4.665   9.205  0.00  0.00    +0.000 C 
ATOM     26  C   UNL     1      37.230   4.457  10.360  0.00  0.00    +0.000 C 
ENDBRANCH  24  26
ENDBRANCH  18  24
BRANCH  22  27
ATOM     27  O   UNL     1      33.466   7.151  13.963  0.00  0.00    +0.000 OA
BRANCH  27  28
ATOM     28  C   UNL     1      33.695   8.034  15.048  0.00  0.00    +0.000 C 
ATOM     29  C   UNL     1      34.035   9.386  14.453  0.00  0.00    +0.000 C 
ENDBRANCH  27  28
ENDBRANCH  22  27
BRANCH  23  30
ATOM     30  O   UNL     1      35.199   7.423  11.804  0.00  0.00    +0.000 OA
BRANCH  30  31
ATOM     31  C   UNL     1      34.249   7.336  10.748  0.00  0.00    +0.000 C 
ATOM     32  C   UNL     1      34.591   8.317   9.656  0.00  0.00    +0.000 C 
ENDBRANCH  30  31
ENDBRANCH  23  30
ENDBRANCH   1  20
TORSDOF 8
ENDMDL
MODEL 7
REMARK VINA RESULT:      -6.8     29.709     32.787
REMARK  Name = 
REMARK  8 active torsions:
REMARK  status: ('A' for Active; 'I' for Inactive)
REMARK    1  A    between atoms: C_2  and  O_3
REMARK    2  A    between atoms: O_3  and  C_4
REMARK    3  A    between atoms: C_6  and  C_7
REMARK    4  A    between atoms: N_9  and  N_10
REMARK    5  A    between atoms: C_25  and  O_26
REMARK    6  A    between atoms: O_26  and  C_27
REMARK    7  A    between atoms: C_29  and  O_30
REMARK    8  A    between atoms: O_30  and  C_31
REMARK                            x       y       z     vdW  Elec       q    Type
REMARK                         _______ _______ _______ _____ _____    ______ ____
ROOT
ATOM      1  C   UNL     1      40.192  -2.164  15.221  0.00  0.00    +0.000 C 
ATOM      2  O   UNL     1      40.471  -3.244  15.795  0.00  0.00    +0.000 OA
ATOM      3  N   UNL     1      41.188  -1.589  14.390  0.00  0.00    +0.000 NA
ENDROOT
BRANCH   3   4
ATOM      4  N   UNL     1      42.432  -2.165  14.192  0.00  0.00    +0.000 NA
ATOM      5  C   UNL     1      42.776  -2.750  13.088  0.00  0.00    +0.000 C 
ATOM      6  C   UNL     1      44.050  -3.385  12.770  0.00  0.00    +0.000 A 
ATOM      7  C   UNL     1      45.174  -3.505  13.577  0.00  0.00    +0.000 A 
ATOM      8  C   UNL     1      46.276  -4.154  13.058  0.00  0.00    +0.000 A 
ATOM      9  C   UNL     1      46.261  -4.668  11.776  0.00  0.00    +0.000 A 
ATOM     10  C   UNL     1      45.128  -4.531  11.005  0.00  0.00    +0.000 A 
ATOM     11  C   UNL     1      44.009  -3.890  11.487  0.00  0.00    +0.000 A 
ATOM     12  C   UNL     1      42.684  -3.596  10.911  0.00  0.00    +0.000 A 
ATOM     13  C   UNL     1      42.124  -3.872   9.685  0.00  0.00    +0.000 A 
ATOM     14  C   UNL     1      40.838  -3.465   9.426  0.00  0.00    +0.000 A 
ATOM     15  C   UNL     1      40.142  -2.794  10.397  0.00  0.00    +0.000 A 
ATOM     16  C   UNL     1      40.668  -2.501  11.635  0.00  0.00    +0.000 A 
ATOM     17  C   UNL     1      41.958  -2.911  11.891  0.00  0.00    +0.000 A 
ENDBRANCH   3   4
BRANCH   1  20
ATOM     18  C   UNL     1      36.952  -1.176  16.769  0.00  0.00    +0.000 A 
ATOM     19  C   UNL     1      38.175  -1.764  16.552  0.00  0.00    +0.000 A 
ATOM     20  C   UNL     1      38.901  -1.508  15.390  0.00  0.00    +0.000 A 
ATOM     21  C   UNL     1      38.381  -0.662  14.465  0.00  0.00    +0.000 A 
ATOM     22  C   UNL     1      37.155  -0.054  14.650  0.00  0.00    +0.000 A 
ATOM     23  C   UNL     1      36.463  -0.324  15.803  0.00  0.00    +0.000 A 
BRANCH  18  24
ATOM     24  O   UNL     1      36.275  -1.464  17.937  0.00  0.00    +0.000 OA
BRANCH  24  26
ATOM     25  C   UNL     1      37.463  -2.119  19.927  0.00  0.00    +0.000 C 
ATOM     26  C   UNL     1      36.763  -0.993  19.175  0.00  0.00    +0.000 C 
ENDBRANCH  24  26
ENDBRANCH  18  24
BRANCH  22  27
ATOM     27  O   UNL     1      36.601   0.814  13.721  0.00  0.00    +0.000 OA
BRANCH  27  28
ATOM     28  C   UNL     1      37.399   1.904  13.292  0.00  0.00    +0.000 C 
ATOM     29  C   UNL     1      37.463   1.836  11.779  0.00  0.00    +0.000 C 
ENDBRANCH  27  28
ENDBRANCH  22  27
BRANCH  23  30
ATOM     30  O   UNL     1      35.214   0.251  16.066  0.00  0.00    +0.000 OA
BRANCH  30  31
ATOM     31  C   UNL     1      35.231   1.470  16.801  0.00  0.00    +0.000 C 
ATOM     32  C   UNL     1      34.735   2.605  15.942  0.00  0.00    +0.000 C 
ENDBRANCH  30  31
ENDBRANCH  23  30
ENDBRANCH   1  20
TORSDOF 8
ENDMDL
MODEL 8
REMARK VINA RESULT:      -6.7     26.118     28.049
REMARK  Name = 
REMARK  8 active torsions:
REMARK  status: ('A' for Active; 'I' for Inactive)
REMARK    1  A    between atoms: C_2  and  O_3
REMARK    2  A    between atoms: O_3  and  C_4
REMARK    3  A    between atoms: C_6  and  C_7
REMARK    4  A    between atoms: N_9  and  N_10
REMARK    5  A    between atoms: C_25  and  O_26
REMARK    6  A    between atoms: O_26  and  C_27
REMARK    7  A    between atoms: C_29  and  O_30
REMARK    8  A    between atoms: O_30  and  C_31
REMARK                            x       y       z     vdW  Elec       q    Type
REMARK                         _______ _______ _______ _____ _____    ______ ____
ROOT
ATOM      1  C   UNL     1      35.258   1.676  15.621  0.00  0.00    +0.000 C 
ATOM      2  O   UNL     1      34.342   2.083  16.375  0.00  0.00    +0.000 OA
ATOM      3  N   UNL     1      35.679   2.540  14.578  0.00  0.00    +0.000 NA
ENDROOT
BRANCH   3   4
ATOM      4  N   UNL     1      35.128   3.793  14.365  0.00  0.00    +0.000 NA
ATOM      5  C   UNL     1      35.812   4.892  14.436  0.00  0.00    +0.000 C 
ATOM      6  C   UNL     1      35.340   6.256  14.232  0.00  0.00    +0.000 A 
ATOM      7  C   UNL     1      34.054   6.682  13.919  0.00  0.00    +0.000 A 
ATOM      8  C   UNL     1      33.840   8.037  13.772  0.00  0.00    +0.000 A 
ATOM      9  C   UNL     1      34.872   8.942  13.933  0.00  0.00    +0.000 A 
ATOM     10  C   UNL     1      36.132   8.484  14.244  0.00  0.00    +0.000 A 
ATOM     11  C   UNL     1      36.386   7.139  14.398  0.00  0.00    +0.000 A 
ATOM     12  C   UNL     1      37.601   6.369  14.721  0.00  0.00    +0.000 A 
ATOM     13  C   UNL     1      38.898   6.748  14.979  0.00  0.00    +0.000 A 
ATOM     14  C   UNL     1      39.837   5.785  15.256  0.00  0.00    +0.000 A 
ATOM     15  C   UNL     1      39.460   4.467  15.269  0.00  0.00    +0.000 A 
ATOM     16  C   UNL     1      38.173   4.050  15.016  0.00  0.00    +0.000 A 
ATOM     17  C   UNL     1      37.233   5.019  14.739  0.00  0.00    +0.000 A 
ENDBRANCH   3   4
BRANCH   1  20
ATOM     18  C   UNL     1      37.016  -1.494  14.767  0.00  0.00    +0.000 A 
ATOM     19  C   UNL     1      36.419  -0.260  14.671  0.00  0.00    +0.000 A 
ATOM     20  C   UNL     1      35.878   0.367  15.792  0.00  0.00    +0.000 A 
ATOM     21  C   UNL     1      35.949  -0.261  16.992  0.00  0.00    +0.000 A 
ATOM     22  C   UNL     1      36.541  -1.501  17.125  0.00  0.00    +0.000 A 
ATOM     23  C   UNL     1      37.065  -2.094  16.005  0.00  0.00    +0.000 A 
BRANCH  18  24
ATOM     24  O   UNL     1      37.536  -2.071  13.625  0.00  0.00    +0.000 OA
BRANCH  24  26
ATOM     25  C   UNL     1      39.936  -1.880  13.691  0.00  0.00    +0.000 C 
ATOM     26  C   UNL     1      38.647  -1.488  12.978  0.00  0.00    +0.000 C 
ENDBRANCH  24  26
ENDBRANCH  18  24
BRANCH  22  27
ATOM     27  O   UNL     1      36.627  -2.164  18.340  0.00  0.00    +0.000 OA
BRANCH  27  28
ATOM     28  C   UNL     1      37.684  -1.798  19.209  0.00  0.00    +0.000 C 
ATOM     29  C   UNL     1      38.501  -3.049  19.465  0.00  0.00    +0.000 C 
ENDBRANCH  27  28
ENDBRANCH  22  27
BRANCH  23  30
ATOM     30  O   UNL     1      37.682  -3.351  16.056  0.00  0.00    +0.000 OA
BRANCH  30  31
ATOM     31  C   UNL     1      36.812  -4.475  15.996  0.00  0.00    +0.000 C 
ATOM     32  C   UNL     1      37.347  -5.595  16.851  0.00  0.00    +0.000 C 
ENDBRANCH  30  31
ENDBRANCH  23  30
ENDBRANCH   1  20
TORSDOF 8
ENDMDL
MODEL 9
REMARK VINA RESULT:      -6.6     25.153     27.731
REMARK  Name = 
REMARK  8 active torsions:
REMARK  status: ('A' for Active; 'I' for Inactive)
REMARK    1  A    between atoms: C_2  and  O_3
REMARK    2  A    between atoms: O_3  and  C_4
REMARK    3  A    between atoms: C_6  and  C_7
REMARK    4  A    between atoms: N_9  and  N_10
REMARK    5  A    between atoms: C_25  and  O_26
REMARK    6  A    between atoms: O_26  and  C_27
REMARK    7  A    between atoms: C_29  and  O_30
REMARK    8  A    between atoms: O_30  and  C_31
REMARK                            x       y       z     vdW  Elec       q    Type
REMARK                         _______ _______ _______ _____ _____    ______ ____
ROOT
ATOM      1  C   UNL     1      35.943   2.823  14.731  0.00  0.00    +0.000 C 
ATOM      2  O   UNL     1      34.793   3.320  14.789  0.00  0.00    +0.000 OA
ATOM      3  N   UNL     1      37.021   3.699  14.443  0.00  0.00    +0.000 NA
ENDROOT
BRANCH   3   4
ATOM      4  N   UNL     1      36.854   5.058  14.228  0.00  0.00    +0.000 NA
ATOM      5  C   UNL     1      37.231   5.962  15.077  0.00  0.00    +0.000 C 
ATOM      6  C   UNL     1      37.108   7.410  14.956  0.00  0.00    +0.000 A 
ATOM      7  C   UNL     1      36.559   8.141  13.909  0.00  0.00    +0.000 A 
ATOM      8  C   UNL     1      36.550   9.516  14.015  0.00  0.00    +0.000 A 
ATOM      9  C   UNL     1      37.070  10.147  15.130  0.00  0.00    +0.000 A 
ATOM     10  C   UNL     1      37.604   9.390  16.148  0.00  0.00    +0.000 A 
ATOM     11  C   UNL     1      37.632   8.016  16.079  0.00  0.00    +0.000 A 
ATOM     12  C   UNL     1      38.127   6.966  16.988  0.00  0.00    +0.000 A 
ATOM     13  C   UNL     1      38.731   7.018  18.222  0.00  0.00    +0.000 A 
ATOM     14  C   UNL     1      39.090   5.848  18.845  0.00  0.00    +0.000 A 
ATOM     15  C   UNL     1      38.837   4.654  18.221  0.00  0.00    +0.000 A 
ATOM     16  C   UNL     1      38.234   4.562  16.987  0.00  0.00    +0.000 A 
ATOM     17  C   UNL     1      37.875   5.738  16.365  0.00  0.00    +0.000 A 
ENDBRANCH   3   4
BRANCH   1  20
ATOM     18  C   UNL     1      35.970  -0.500  16.412  0.00  0.00    +0.000 A 
ATOM     19  C   UNL     1      35.771   0.834  16.150  0.00  0.00    +0.000 A 
ATOM     20  C   UNL     1      36.184   1.401  14.946  0.00  0.00    +0.000 A 
ATOM     21  C   UNL     1      36.792   0.611  14.025  0.00  0.00    +0.000 A 
ATOM     22  C   UNL     1      37.009  -0.732  14.255  0.00  0.00    +0.000 A 
ATOM     23  C   UNL     1      36.591  -1.263  15.449  0.00  0.00    +0.000 A 
BRANCH  18  24
ATOM     24  O   UNL     1      35.540  -1.010  17.621  0.00  0.00    +0.000 OA
BRANCH  24  26
ATOM     25  C   UNL     1      37.004  -1.458  19.481  0.00  0.00    +0.000 C 
ATOM     26  C   UNL     1      36.034  -0.478  18.832  0.00  0.00    +0.000 C 
ENDBRANCH  24  26
ENDBRANCH  18  24
BRANCH  22  27
ATOM     27  O   UNL     1      37.628  -1.561  13.331  0.00  0.00    +0.000 OA
BRANCH  27  28
ATOM     28  C   UNL     1      39.022  -1.391  13.135  0.00  0.00    +0.000 C 
ATOM     29  C   UNL     1      39.226  -1.062  11.670  0.00  0.00    +0.000 C 
ENDBRANCH  27  28
ENDBRANCH  22  27
BRANCH  23  30
ATOM     30  O   UNL     1      36.774  -2.616  15.759  0.00  0.00    +0.000 OA
BRANCH  30  31
ATOM     31  C   UNL     1      38.033  -2.962  16.325  0.00  0.00    +0.000 C 
ATOM     32  C   UNL     1      37.916  -4.234  17.124  0.00  0.00    +0.000 C 
ENDBRANCH  30  31
ENDBRANCH  23  30
ENDBRANCH   1  20
TORSDOF 8
ENDMDL
MODEL 10
REMARK VINA RESULT:      -6.6      2.881      9.034
REMARK  Name = 
REMARK  8 active torsions:
REMARK  status: ('A' for Active; 'I' for Inactive)
REMARK    1  A    between atoms: C_2  and  O_3
REMARK    2  A    between atoms: O_3  and  C_4
REMARK    3  A    between atoms: C_6  and  C_7
REMARK    4  A    between atoms: N_9  and  N_10
REMARK    5  A    between atoms: C_25  and  O_26
REMARK    6  A    between atoms: O_26  and  C_27
REMARK    7  A    between atoms: C_29  and  O_30
REMARK    8  A    between atoms: O_30  and  C_31
REMARK                            x       y       z     vdW  Elec       q    Type
REMARK                         _______ _______ _______ _____ _____    ______ ____
ROOT
ATOM      1  C   UNL     1      25.800  14.021  39.728  0.00  0.00    +0.000 C 
ATOM      2  O   UNL     1      24.670  14.384  40.132  0.00  0.00    +0.000 OA
ATOM      3  N   UNL     1      26.407  12.920  40.386  0.00  0.00    +0.000 NA
ENDROOT
BRANCH   3   4
ATOM      4  N   UNL     1      25.809  12.244  41.437  0.00  0.00    +0.000 NA
ATOM      5  C   UNL     1      26.295  11.158  41.950  0.00  0.00    +0.000 C 
ATOM      6  C   UNL     1      25.755  10.367  43.050  0.00  0.00    +0.000 A 
ATOM      7  C   UNL     1      24.601  10.601  43.789  0.00  0.00    +0.000 A 
ATOM      8  C   UNL     1      24.285   9.708  44.793  0.00  0.00    +0.000 A 
ATOM      9  C   UNL     1      25.091   8.616  45.054  0.00  0.00    +0.000 A 
ATOM     10  C   UNL     1      26.225   8.416  44.300  0.00  0.00    +0.000 A 
ATOM     11  C   UNL     1      26.574   9.285  43.290  0.00  0.00    +0.000 A 
ATOM     12  C   UNL     1      27.700   9.331  42.339  0.00  0.00    +0.000 A 
ATOM     13  C   UNL     1      28.786   8.508  42.147  0.00  0.00    +0.000 A 
ATOM     14  C   UNL     1      29.692   8.810  41.160  0.00  0.00    +0.000 A 
ATOM     15  C   UNL     1      29.492   9.926  40.389  0.00  0.00    +0.000 A 
ATOM     16  C   UNL     1      28.419  10.772  40.551  0.00  0.00    +0.000 A 
ATOM     17  C   UNL     1      27.512  10.466  41.542  0.00  0.00    +0.000 A 
ENDBRANCH   3   4
BRANCH   1  20
ATOM     18  C   UNL     1      28.500  15.735  37.819  0.00  0.00    +0.000 A 
ATOM     19  C   UNL     1      27.803  15.098  38.817  0.00  0.00    +0.000 A 
ATOM     20  C   UNL     1      26.483  14.692  38.628  0.00  0.00    +0.000 A 
ATOM     21  C   UNL     1      25.887  14.937  37.434  0.00  0.00    +0.000 A 
ATOM     22  C   UNL     1      26.556  15.575  36.409  0.00  0.00    +0.000 A 
ATOM     23  C   UNL     1      27.855  15.962  36.623  0.00  0.00    +0.000 A 
BRANCH  18  24
ATOM     24  O   UNL     1      29.805  16.115  38.059  0.00  0.00    +0.000 OA
BRANCH  24  26
ATOM     25  C   UNL     1      31.247  14.243  37.594  0.00  0.00    +0.000 C 
ATOM     26  C   UNL     1      30.712  15.207  38.646  0.00  0.00    +0.000 C 
ENDBRANCH  24  26
ENDBRANCH  18  24
BRANCH  22  27
ATOM     27  O   UNL     1      25.971  15.837  35.180  0.00  0.00    +0.000 OA
BRANCH  27  28
ATOM     28  C   UNL     1      25.758  14.737  34.312  0.00  0.00    +0.000 C 
ATOM     29  C   UNL     1      25.214  15.297  33.013  0.00  0.00    +0.000 C 
ENDBRANCH  27  28
ENDBRANCH  22  27
BRANCH  23  30
ATOM     30  O   UNL     1      28.603  16.615  35.635  0.00  0.00    +0.000 OA
BRANCH  30  31
ATOM     31  C   UNL     1      29.253  15.774  34.689  0.00  0.00    +0.000 C 
ATOM     32  C   UNL     1      30.657  16.261  34.435  0.00  0.00    +0.000 C 
ENDBRANCH  30  31
ENDBRANCH  23  30
ENDBRANCH   1  20
TORSDOF 8
ENDMDL
