MODEL 1
REMARK VINA RESULT:      -7.9      0.000      0.000
REMARK  Name = 
REMARK  7 active torsions:
REMARK  status: ('A' for Active; 'I' for Inactive)
REMARK    1  A    between atoms: C_2  and  C_3
REMARK    2  A    between atoms: C_4  and  N_5
REMARK    3  A    between atoms: C_6  and  C_8
REMARK    4  A    between atoms: C_8  and  C_9
REMARK    5  A    between atoms: C_8  and  C_16
REMARK    6  A    between atoms: C_9  and  C_10
REMARK    7  A    between atoms: C_16  and  C_17
REMARK                            x       y       z     vdW  Elec       q    Type
REMARK                         _______ _______ _______ _____ _____    ______ ____
ROOT
ATOM      1  N   UNL     1      37.780   2.747  15.049  0.00  0.00    +0.000 NA
ATOM      2  C   UNL     1      37.839   3.706  16.015  0.00  0.00    +0.000 C 
ATOM      3  O   UNL     1      37.585   3.389  17.194  0.00  0.00    +0.000 OA
ENDROOT
BRANCH   1   5
ATOM      4  C   UNL     1      36.531   0.535  15.443  0.00  0.00    +0.000 A 
ATOM      5  C   UNL     1      37.489   1.382  15.002  0.00  0.00    +0.000 A 
ATOM      6  S   UNL     1      38.570   0.291  14.172  0.00  0.00    +0.000 S 
ATOM      7  C   UNL     1      37.749  -1.167  14.431  0.00  0.00    +0.000 A 
ATOM      8  C   UNL     1      36.652  -0.780  15.156  0.00  0.00    +0.000 A 
ATOM      9  C   UNL     1      35.600  -1.792  15.626  0.00  0.00    +0.000 C 
ATOM     10  C   UNL     1      36.246  -2.755  16.599  0.00  0.00    +0.000 C 
ATOM     11  C   UNL     1      37.048  -3.791  15.836  0.00  0.00    +0.000 C 
ATOM     12  C   UNL     1      37.069  -3.498  14.352  0.00  0.00    +0.000 C 
ATOM     13  C   UNL     1      38.150  -2.543  13.965  0.00  0.00    +0.000 C 
BRANCH   4  15
ATOM     14  N   UNL     1      34.483   1.486  16.847  0.00  0.00    +0.000 NA
ATOM     15  C   UNL     1      35.382   1.048  16.219  0.00  0.00    +0.000 C 
ENDBRANCH   4  15
ENDBRANCH   1   5
BRANCH   2  16
ATOM     16  C   UNL     1      38.185   5.129  15.788  0.00  0.00    +0.000 C 
BRANCH  16  17
ATOM     17  C   UNL     1      37.769   5.668  14.487  0.00  0.00    +0.000 C 
BRANCH  17  18
ATOM     18  C   UNL     1      36.498   6.385  14.463  0.00  0.00    +0.000 A 
ATOM     19  C   UNL     1      36.412   7.705  14.807  0.00  0.00    +0.000 A 
ATOM     20  C   UNL     1      35.218   8.409  14.793  0.00  0.00    +0.000 A 
ATOM     21  C   UNL     1      34.094   7.704  14.407  0.00  0.00    +0.000 A 
ATOM     22  C   UNL     1      34.121   6.382  14.053  0.00  0.00    +0.000 A 
ATOM     23  C   UNL     1      35.348   5.715  14.083  0.00  0.00    +0.000 A 
ENDBRANCH  17  18
ENDBRANCH  16  17
BRANCH  16  24
ATOM     24  C   UNL     1      39.542   5.505  16.263  0.00  0.00    +0.000 C 
BRANCH  24  25
ATOM     25  C   UNL     1      39.390   6.175  17.594  0.00  0.00    +0.000 A 
ATOM     26  C   UNL     1      40.276   5.917  18.623  0.00  0.00    +0.000 A 
ATOM     27  C   UNL     1      40.186   6.502  19.865  0.00  0.00    +0.000 A 
ATOM     28  C   UNL     1      39.160   7.387  20.091  0.00  0.00    +0.000 A 
ATOM     29  C   UNL     1      38.277   7.649  19.078  0.00  0.00    +0.000 A 
ATOM     30  C   UNL     1      38.365   7.071  17.846  0.00  0.00    +0.000 A 
ENDBRANCH  24  25
ENDBRANCH  16  24
ENDBRANCH   2  16
TORSDOF 7
ENDMDL
MODEL 2
REMARK VINA RESULT:      -7.7      1.178      2.015
REMARK  Name = 
REMARK  7 active torsions:
REMARK  status: ('A' for Active; 'I' for Inactive)
REMARK    1  A    between atoms: C_2  and  C_3
REMARK    2  A    between atoms: C_4  and  N_5
REMARK    3  A    between atoms: C_6  and  C_8
REMARK    4  A    between atoms: C_8  and  C_9
REMARK    5  A    between atoms: C_8  and  C_16
REMARK    6  A    between atoms: C_9  and  C_10
REMARK    7  A    between atoms: C_16  and  C_17
REMARK                            x       y       z     vdW  Elec       q    Type
REMARK                         _______ _______ _______ _____ _____    ______ ____
ROOT
ATOM      1  N   UNL     1      37.567   2.451  15.342  0.00  0.00    +0.000 NA
ATOM      2  C   UNL     1      37.634   3.503  16.205  0.00  0.00    +0.000 C 
ATOM      3  O   UNL     1      37.393   3.308  17.413  0.00  0.00    +0.000 OA
ENDROOT
BRANCH   1   5
ATOM      4  C   UNL     1      37.890  -0.097  15.214  0.00  0.00    +0.000 A 
ATOM      5  C   UNL     1      37.277   1.088  15.438  0.00  0.00    +0.000 A 
ATOM      6  S   UNL     1      35.703   0.572  15.992  0.00  0.00    +0.000 S 
ATOM      7  C   UNL     1      35.915  -1.106  15.909  0.00  0.00    +0.000 A 
ATOM      8  C   UNL     1      37.201  -1.234  15.453  0.00  0.00    +0.000 A 
ATOM      9  C   UNL     1      37.839  -2.609  15.220  0.00  0.00    +0.000 C 
ATOM     10  C   UNL     1      37.084  -3.320  14.117  0.00  0.00    +0.000 C 
ATOM     11  C   UNL     1      35.797  -3.899  14.670  0.00  0.00    +0.000 C 
ATOM     12  C   UNL     1      35.583  -3.504  16.114  0.00  0.00    +0.000 C 
ATOM     13  C   UNL     1      34.913  -2.177  16.258  0.00  0.00    +0.000 C 
BRANCH   4  15
ATOM     14  N   UNL     1      40.398  -0.197  14.334  0.00  0.00    +0.000 NA
ATOM     15  C   UNL     1      39.283  -0.133  14.721  0.00  0.00    +0.000 C 
ENDBRANCH   4  15
ENDBRANCH   1   5
BRANCH   2  16
ATOM     16  C   UNL     1      37.976   4.895  15.831  0.00  0.00    +0.000 C 
BRANCH  16  17
ATOM     17  C   UNL     1      37.533   5.304  14.492  0.00  0.00    +0.000 C 
BRANCH  17  18
ATOM     18  C   UNL     1      36.363   6.174  14.438  0.00  0.00    +0.000 A 
ATOM     19  C   UNL     1      36.443   7.505  14.736  0.00  0.00    +0.000 A 
ATOM     20  C   UNL     1      35.348   8.354  14.692  0.00  0.00    +0.000 A 
ATOM     21  C   UNL     1      34.144   7.782  14.325  0.00  0.00    +0.000 A 
ATOM     22  C   UNL     1      34.005   6.457  14.016  0.00  0.00    +0.000 A 
ATOM     23  C   UNL     1      35.138   5.641  14.075  0.00  0.00    +0.000 A 
ENDBRANCH  17  18
ENDBRANCH  16  17
BRANCH  16  24
ATOM     24  C   UNL     1      39.343   5.313  16.238  0.00  0.00    +0.000 C 
BRANCH  24  25
ATOM     25  C   UNL     1      39.225   6.057  17.533  0.00  0.00    +0.000 A 
ATOM     26  C   UNL     1      40.087   5.796  18.582  0.00  0.00    +0.000 A 
ATOM     27  C   UNL     1      40.026   6.447  19.793  0.00  0.00    +0.000 A 
ATOM     28  C   UNL     1      39.057   7.405  19.965  0.00  0.00    +0.000 A 
ATOM     29  C   UNL     1      38.199   7.671  18.932  0.00  0.00    +0.000 A 
ATOM     30  C   UNL     1      38.257   7.028  17.731  0.00  0.00    +0.000 A 
ENDBRANCH  24  25
ENDBRANCH  16  24
ENDBRANCH   2  16
TORSDOF 7
ENDMDL
MODEL 3
REMARK VINA RESULT:      -7.7      2.568      4.830
REMARK  Name = 
REMARK  7 active torsions:
REMARK  status: ('A' for Active; 'I' for Inactive)
REMARK    1  A    between atoms: C_2  and  C_3
REMARK    2  A    between atoms: C_4  and  N_5
REMARK    3  A    between atoms: C_6  and  C_8
REMARK    4  A    between atoms: C_8  and  C_9
REMARK    5  A    between atoms: C_8  and  C_16
REMARK    6  A    between atoms: C_9  and  C_10
REMARK    7  A    between atoms: C_16  and  C_17
REMARK                            x       y       z     vdW  Elec       q    Type
REMARK                         _______ _______ _______ _____ _____    ______ ____
ROOT
ATOM      1  N   UNL     1      38.650   4.342  16.471  0.00  0.00    +0.000 NA
ATOM      2  C   UNL     1      38.331   5.657  16.631  0.00  0.00    +0.000 C 
ATOM      3  O   UNL     1      37.652   6.223  15.751  0.00  0.00    +0.000 OA
ENDROOT
BRANCH   1   5
ATOM      4  C   UNL     1      37.456   2.438  15.221  0.00  0.00    +0.000 A 
ATOM      5  C   UNL     1      38.405   3.357  15.512  0.00  0.00    +0.000 A 
ATOM      6  S   UNL     1      39.560   3.088  14.230  0.00  0.00    +0.000 S 
ATOM      7  C   UNL     1      38.775   1.835  13.405  0.00  0.00    +0.000 A 
ATOM      8  C   UNL     1      37.633   1.648  14.140  0.00  0.00    +0.000 A 
ATOM      9  C   UNL     1      36.594   0.588  13.755  0.00  0.00    +0.000 C 
ATOM     10  C   UNL     1      37.224  -0.783  13.875  0.00  0.00    +0.000 C 
ATOM     11  C   UNL     1      38.095  -1.053  12.664  0.00  0.00    +0.000 C 
ATOM     12  C   UNL     1      38.177   0.154  11.756  0.00  0.00    +0.000 C 
ATOM     13  C   UNL     1      39.243   1.116  12.166  0.00  0.00    +0.000 C 
BRANCH   4  15
ATOM     14  N   UNL     1      35.292   2.246  16.755  0.00  0.00    +0.000 NA
ATOM     15  C   UNL     1      36.255   2.312  16.074  0.00  0.00    +0.000 C 
ENDBRANCH   4  15
ENDBRANCH   1   5
BRANCH   2  16
ATOM     16  C   UNL     1      38.731   6.500  17.782  0.00  0.00    +0.000 C 
BRANCH  16  17
ATOM     17  C   UNL     1      39.393   5.781  18.877  0.00  0.00    +0.000 C 
BRANCH  17  18
ATOM     18  C   UNL     1      40.771   6.167  19.161  0.00  0.00    +0.000 A 
ATOM     19  C   UNL     1      41.231   6.298  20.441  0.00  0.00    +0.000 A 
ATOM     20  C   UNL     1      42.534   6.664  20.739  0.00  0.00    +0.000 A 
ATOM     21  C   UNL     1      43.368   6.895  19.661  0.00  0.00    +0.000 A 
ATOM     22  C   UNL     1      42.962   6.779  18.359  0.00  0.00    +0.000 A 
ATOM     23  C   UNL     1      41.639   6.408  18.110  0.00  0.00    +0.000 A 
ENDBRANCH  17  18
ENDBRANCH  16  17
BRANCH  16  24
ATOM     24  C   UNL     1      37.717   7.516  18.168  0.00  0.00    +0.000 C 
BRANCH  24  25
ATOM     25  C   UNL     1      38.396   8.530  19.038  0.00  0.00    +0.000 A 
ATOM     26  C   UNL     1      39.382   9.353  18.529  0.00  0.00    +0.000 A 
ATOM     27  C   UNL     1      40.039  10.302  19.279  0.00  0.00    +0.000 A 
ATOM     28  C   UNL     1      39.695  10.432  20.603  0.00  0.00    +0.000 A 
ATOM     29  C   UNL     1      38.720   9.621  21.116  0.00  0.00    +0.000 A 
ATOM     30  C   UNL     1      38.066   8.681  20.375  0.00  0.00    +0.000 A 
ENDBRANCH  24  25
ENDBRANCH  16  24
ENDBRANCH   2  16
TORSDOF 7
ENDMDL
MODEL 4
REMARK VINA RESULT:      -7.5      2.922      8.221
REMARK  Name = 
REMARK  7 active torsions:
REMARK  status: ('A' for Active; 'I' for Inactive)
REMARK    1  A    between atoms: C_2  and  C_3
REMARK    2  A    between atoms: C_4  and  N_5
REMARK    3  A    between atoms: C_6  and  C_8
REMARK    4  A    between atoms: C_8  and  C_9
REMARK    5  A    between atoms: C_8  and  C_16
REMARK    6  A    between atoms: C_9  and  C_10
REMARK    7  A    between atoms: C_16  and  C_17
REMARK                            x       y       z     vdW  Elec       q    Type
REMARK                         _______ _______ _______ _____ _____    ______ ____
ROOT
ATOM      1  N   UNL     1      37.882   3.154  15.730  0.00  0.00    +0.000 NA
ATOM      2  C   UNL     1      38.147   1.988  15.076  0.00  0.00    +0.000 C 
ATOM      3  O   UNL     1      39.332   1.613  14.969  0.00  0.00    +0.000 OA
ENDROOT
BRANCH   1   5
ATOM      4  C   UNL     1      39.601   5.033  16.077  0.00  0.00    +0.000 A 
ATOM      5  C   UNL     1      38.633   4.138  16.376  0.00  0.00    +0.000 A 
ATOM      6  S   UNL     1      38.383   4.443  18.078  0.00  0.00    +0.000 S 
ATOM      7  C   UNL     1      39.515   5.681  18.308  0.00  0.00    +0.000 A 
ATOM      8  C   UNL     1      40.065   5.834  17.061  0.00  0.00    +0.000 A 
ATOM      9  C   UNL     1      41.162   6.870  16.788  0.00  0.00    +0.000 C 
ATOM     10  C   UNL     1      42.394   6.503  17.588  0.00  0.00    +0.000 C 
ATOM     11  C   UNL     1      42.211   6.931  19.031  0.00  0.00    +0.000 C 
ATOM     12  C   UNL     1      40.825   7.483  19.278  0.00  0.00    +0.000 C 
ATOM     13  C   UNL     1      39.823   6.419  19.585  0.00  0.00    +0.000 C 
BRANCH   4  15
ATOM     14  N   UNL     1      40.585   5.179  13.611  0.00  0.00    +0.000 NA
ATOM     15  C   UNL     1      40.133   5.124  14.700  0.00  0.00    +0.000 C 
ENDBRANCH   4  15
ENDBRANCH   1   5
BRANCH   2  16
ATOM     16  C   UNL     1      37.130   1.102  14.461  0.00  0.00    +0.000 C 
BRANCH  16  17
ATOM     17  C   UNL     1      37.256   0.929  13.008  0.00  0.00    +0.000 C 
BRANCH  17  18
ATOM     18  C   UNL     1      38.101  -0.174  12.561  0.00  0.00    +0.000 A 
ATOM     19  C   UNL     1      38.970  -0.035  11.517  0.00  0.00    +0.000 A 
ATOM     20  C   UNL     1      39.783  -1.066  11.072  0.00  0.00    +0.000 A 
ATOM     21  C   UNL     1      39.674  -2.268  11.747  0.00  0.00    +0.000 A 
ATOM     22  C   UNL     1      38.822  -2.463  12.799  0.00  0.00    +0.000 A 
ATOM     23  C   UNL     1      38.022  -1.394  13.210  0.00  0.00    +0.000 A 
ENDBRANCH  17  18
ENDBRANCH  16  17
BRANCH  16  24
ATOM     24  C   UNL     1      35.756   1.297  14.993  0.00  0.00    +0.000 C 
BRANCH  24  25
ATOM     25  C   UNL     1      35.604   0.414  16.194  0.00  0.00    +0.000 A 
ATOM     26  C   UNL     1      35.604   0.946  17.469  0.00  0.00    +0.000 A 
ATOM     27  C   UNL     1      35.467   0.186  18.608  0.00  0.00    +0.000 A 
ATOM     28  C   UNL     1      35.324  -1.173  18.465  0.00  0.00    +0.000 A 
ATOM     29  C   UNL     1      35.322  -1.710  17.206  0.00  0.00    +0.000 A 
ATOM     30  C   UNL     1      35.457  -0.958  16.076  0.00  0.00    +0.000 A 
ENDBRANCH  24  25
ENDBRANCH  16  24
ENDBRANCH   2  16
TORSDOF 7
ENDMDL
MODEL 5
REMARK VINA RESULT:      -7.5      1.895      4.294
REMARK  Name = 
REMARK  7 active torsions:
REMARK  status: ('A' for Active; 'I' for Inactive)
REMARK    1  A    between atoms: C_2  and  C_3
REMARK    2  A    between atoms: C_4  and  N_5
REMARK    3  A    between atoms: C_6  and  C_8
REMARK    4  A    between atoms: C_8  and  C_9
REMARK    5  A    between atoms: C_8  and  C_16
REMARK    6  A    between atoms: C_9  and  C_10
REMARK    7  A    between atoms: C_16  and  C_17
REMARK                            x       y       z     vdW  Elec       q    Type
REMARK                         _______ _______ _______ _____ _____    ______ ____
ROOT
ATOM      1  N   UNL     1      38.043   2.273  15.250  0.00  0.00    +0.000 NA
ATOM      2  C   UNL     1      38.047   3.296  16.150  0.00  0.00    +0.000 C 
ATOM      3  O   UNL     1      37.555   3.105  17.281  0.00  0.00    +0.000 OA
ENDROOT
BRANCH   1   5
ATOM      4  C   UNL     1      36.532   0.230  15.644  0.00  0.00    +0.000 A 
ATOM      5  C   UNL     1      37.604   0.948  15.235  0.00  0.00    +0.000 A 
ATOM      6  S   UNL     1      38.603  -0.291  14.516  0.00  0.00    +0.000 S 
ATOM      7  C   UNL     1      37.609  -1.637  14.774  0.00  0.00    +0.000 A 
ATOM      8  C   UNL     1      36.521  -1.100  15.413  0.00  0.00    +0.000 A 
ATOM      9  C   UNL     1      35.336  -1.970  15.851  0.00  0.00    +0.000 C 
ATOM     10  C   UNL     1      35.811  -2.955  16.897  0.00  0.00    +0.000 C 
ATOM     11  C   UNL     1      36.535  -4.105  16.225  0.00  0.00    +0.000 C 
ATOM     12  C   UNL     1      36.677  -3.880  14.736  0.00  0.00    +0.000 C 
ATOM     13  C   UNL     1      37.880  -3.068  14.385  0.00  0.00    +0.000 C 
BRANCH   4  15
ATOM     14  N   UNL     1      34.491   1.446  16.839  0.00  0.00    +0.000 NA
ATOM     15  C   UNL     1      35.404   0.900  16.326  0.00  0.00    +0.000 C 
ENDBRANCH   4  15
ENDBRANCH   1   5
BRANCH   2  16
ATOM     16  C   UNL     1      38.595   4.650  15.904  0.00  0.00    +0.000 C 
BRANCH  16  17
ATOM     17  C   UNL     1      38.392   5.609  16.997  0.00  0.00    +0.000 C 
BRANCH  17  18
ATOM     18  C   UNL     1      39.571   5.940  17.791  0.00  0.00    +0.000 A 
ATOM     19  C   UNL     1      40.790   6.154  17.213  0.00  0.00    +0.000 A 
ATOM     20  C   UNL     1      41.925   6.469  17.943  0.00  0.00    +0.000 A 
ATOM     21  C   UNL     1      41.766   6.561  19.313  0.00  0.00    +0.000 A 
ATOM     22  C   UNL     1      40.570   6.358  19.946  0.00  0.00    +0.000 A 
ATOM     23  C   UNL     1      39.455   6.042  19.167  0.00  0.00    +0.000 A 
ENDBRANCH  17  18
ENDBRANCH  16  17
BRANCH  16  24
ATOM     24  C   UNL     1      38.367   5.153  14.524  0.00  0.00    +0.000 C 
BRANCH  24  25
ATOM     25  C   UNL     1      39.690   5.596  13.977  0.00  0.00    +0.000 A 
ATOM     26  C   UNL     1      39.923   6.925  13.676  0.00  0.00    +0.000 A 
ATOM     27  C   UNL     1      41.116   7.390  13.172  0.00  0.00    +0.000 A 
ATOM     28  C   UNL     1      42.125   6.482  12.957  0.00  0.00    +0.000 A 
ATOM     29  C   UNL     1      41.904   5.165  13.252  0.00  0.00    +0.000 A 
ATOM     30  C   UNL     1      40.723   4.701  13.752  0.00  0.00    +0.000 A 
ENDBRANCH  24  25
ENDBRANCH  16  24
ENDBRANCH   2  16
TORSDOF 7
ENDMDL
MODEL 6
REMARK VINA RESULT:      -7.4      3.121      5.319
REMARK  Name = 
REMARK  7 active torsions:
REMARK  status: ('A' for Active; 'I' for Inactive)
REMARK    1  A    between atoms: C_2  and  C_3
REMARK    2  A    between atoms: C_4  and  N_5
REMARK    3  A    between atoms: C_6  and  C_8
REMARK    4  A    between atoms: C_8  and  C_9
REMARK    5  A    between atoms: C_8  and  C_16
REMARK    6  A    between atoms: C_9  and  C_10
REMARK    7  A    between atoms: C_16  and  C_17
REMARK                            x       y       z     vdW  Elec       q    Type
REMARK                         _______ _______ _______ _____ _____    ______ ____
ROOT
ATOM      1  N   UNL     1      39.092   1.677  15.089  0.00  0.00    +0.000 NA
ATOM      2  C   UNL     1      37.793   2.066  14.956  0.00  0.00    +0.000 C 
ATOM      3  O   UNL     1      37.132   1.639  13.988  0.00  0.00    +0.000 OA
ENDROOT
BRANCH   1   5
ATOM      4  C   UNL     1      40.371  -0.436  14.375  0.00  0.00    +0.000 A 
ATOM      5  C   UNL     1      39.974   0.857  14.382  0.00  0.00    +0.000 A 
ATOM      6  S   UNL     1      40.933   1.527  13.085  0.00  0.00    +0.000 S 
ATOM      7  C   UNL     1      41.776   0.137  12.614  0.00  0.00    +0.000 A 
ATOM      8  C   UNL     1      41.298  -0.821  13.470  0.00  0.00    +0.000 A 
ATOM      9  C   UNL     1      41.791  -2.272  13.410  0.00  0.00    +0.000 C 
ATOM     10  C   UNL     1      43.264  -2.305  13.756  0.00  0.00    +0.000 C 
ATOM     11  C   UNL     1      44.080  -1.873  12.555  0.00  0.00    +0.000 C 
ATOM     12  C   UNL     1      43.197  -1.425  11.412  0.00  0.00    +0.000 C 
ATOM     13  C   UNL     1      42.800   0.011  11.515  0.00  0.00    +0.000 C 
BRANCH   4  15
ATOM     14  N   UNL     1      39.362  -2.158  16.133  0.00  0.00    +0.000 NA
ATOM     15  C   UNL     1      39.796  -1.398  15.339  0.00  0.00    +0.000 C 
ENDBRANCH   4  15
ENDBRANCH   1   5
BRANCH   2  16
ATOM     16  C   UNL     1      37.075   2.976  15.878  0.00  0.00    +0.000 C 
BRANCH  16  17
ATOM     17  C   UNL     1      35.713   2.555  16.229  0.00  0.00    +0.000 C 
BRANCH  17  18
ATOM     18  C   UNL     1      35.601   1.354  17.051  0.00  0.00    +0.000 A 
ATOM     19  C   UNL     1      36.175   1.274  18.288  0.00  0.00    +0.000 A 
ATOM     20  C   UNL     1      36.085   0.146  19.089  0.00  0.00    +0.000 A 
ATOM     21  C   UNL     1      35.372  -0.919  18.570  0.00  0.00    +0.000 A 
ATOM     22  C   UNL     1      34.777  -0.895  17.338  0.00  0.00    +0.000 A 
ATOM     23  C   UNL     1      34.897   0.265  16.568  0.00  0.00    +0.000 A 
ENDBRANCH  17  18
ENDBRANCH  16  17
BRANCH  16  24
ATOM     24  C   UNL     1      37.270   4.419  15.580  0.00  0.00    +0.000 C 
BRANCH  24  25
ATOM     25  C   UNL     1      38.328   4.937  16.505  0.00  0.00    +0.000 A 
ATOM     26  C   UNL     1      39.407   5.651  16.020  0.00  0.00    +0.000 A 
ATOM     27  C   UNL     1      40.408   6.151  16.822  0.00  0.00    +0.000 A 
ATOM     28  C   UNL     1      40.327   5.925  18.175  0.00  0.00    +0.000 A 
ATOM     29  C   UNL     1      39.263   5.218  18.665  0.00  0.00    +0.000 A 
ATOM     30  C   UNL     1      38.269   4.722  17.873  0.00  0.00    +0.000 A 
ENDBRANCH  24  25
ENDBRANCH  16  24
ENDBRANCH   2  16
TORSDOF 7
ENDMDL
MODEL 7
REMARK VINA RESULT:      -7.3      1.995      3.474
REMARK  Name = 
REMARK  7 active torsions:
REMARK  status: ('A' for Active; 'I' for Inactive)
REMARK    1  A    between atoms: C_2  and  C_3
REMARK    2  A    between atoms: C_4  and  N_5
REMARK    3  A    between atoms: C_6  and  C_8
REMARK    4  A    between atoms: C_8  and  C_9
REMARK    5  A    between atoms: C_8  and  C_16
REMARK    6  A    between atoms: C_9  and  C_10
REMARK    7  A    between atoms: C_16  and  C_17
REMARK                            x       y       z     vdW  Elec       q    Type
REMARK                         _______ _______ _______ _____ _____    ______ ____
ROOT
ATOM      1  N   UNL     1      38.097   2.477  15.805  0.00  0.00    +0.000 NA
ATOM      2  C   UNL     1      38.250   3.654  15.136  0.00  0.00    +0.000 C 
ATOM      3  O   UNL     1      38.065   3.674  13.902  0.00  0.00    +0.000 OA
ENDROOT
BRANCH   1   5
ATOM      4  C   UNL     1      36.728   0.306  15.646  0.00  0.00    +0.000 A 
ATOM      5  C   UNL     1      37.758   1.165  15.467  0.00  0.00    +0.000 A 
ATOM      6  S   UNL     1      38.873   0.190  14.542  0.00  0.00    +0.000 S 
ATOM      7  C   UNL     1      37.973  -1.240  14.436  0.00  0.00    +0.000 A 
ATOM      8  C   UNL     1      36.825  -0.935  15.120  0.00  0.00    +0.000 A 
ATOM      9  C   UNL     1      35.692  -1.955  15.286  0.00  0.00    +0.000 C 
ATOM     10  C   UNL     1      36.199  -3.122  16.108  0.00  0.00    +0.000 C 
ATOM     11  C   UNL     1      37.031  -4.038  15.233  0.00  0.00    +0.000 C 
ATOM     12  C   UNL     1      37.213  -3.470  13.843  0.00  0.00    +0.000 C 
ATOM     13  C   UNL     1      38.364  -2.524  13.750  0.00  0.00    +0.000 C 
BRANCH   4  15
ATOM     14  N   UNL     1      34.551   1.039  16.987  0.00  0.00    +0.000 NA
ATOM     15  C   UNL     1      35.528   0.728  16.399  0.00  0.00    +0.000 C 
ENDBRANCH   4  15
ENDBRANCH   1   5
BRANCH   2  16
ATOM     16  C   UNL     1      38.629   4.946  15.755  0.00  0.00    +0.000 C 
BRANCH  16  17
ATOM     17  C   UNL     1      37.810   5.346  16.905  0.00  0.00    +0.000 C 
BRANCH  17  18
ATOM     18  C   UNL     1      38.506   6.044  17.981  0.00  0.00    +0.000 A 
ATOM     19  C   UNL     1      39.533   5.462  18.668  0.00  0.00    +0.000 A 
ATOM     20  C   UNL     1      40.211   6.102  19.694  0.00  0.00    +0.000 A 
ATOM     21  C   UNL     1      39.795   7.384  19.998  0.00  0.00    +0.000 A 
ATOM     22  C   UNL     1      38.773   8.017  19.343  0.00  0.00    +0.000 A 
ATOM     23  C   UNL     1      38.120   7.330  18.317  0.00  0.00    +0.000 A 
ENDBRANCH  17  18
ENDBRANCH  16  17
BRANCH  16  24
ATOM     24  C   UNL     1      38.968   6.010  14.774  0.00  0.00    +0.000 C 
BRANCH  24  25
ATOM     25  C   UNL     1      40.179   6.730  15.283  0.00  0.00    +0.000 A 
ATOM     26  C   UNL     1      41.332   6.039  15.605  0.00  0.00    +0.000 A 
ATOM     27  C   UNL     1      42.473   6.646  16.076  0.00  0.00    +0.000 A 
ATOM     28  C   UNL     1      42.462   8.011  16.234  0.00  0.00    +0.000 A 
ATOM     29  C   UNL     1      41.326   8.704  15.918  0.00  0.00    +0.000 A 
ATOM     30  C   UNL     1      40.193   8.105  15.450  0.00  0.00    +0.000 A 
ENDBRANCH  24  25
ENDBRANCH  16  24
ENDBRANCH   2  16
TORSDOF 7
ENDMDL
MODEL 8
REMARK VINA RESULT:      -7.3      1.446      4.676
REMARK  Name = 
REMARK  7 active torsions:
REMARK  status: ('A' for Active; 'I' for Inactive)
REMARK    1  A    between atoms: C_2  and  C_3
REMARK    2  A    between atoms: C_4  and  N_5
REMARK    3  A    between atoms: C_6  and  C_8
REMARK    4  A    between atoms: C_8  and  C_9
REMARK    5  A    between atoms: C_8  and  C_16
REMARK    6  A    between atoms: C_9  and  C_10
REMARK    7  A    between atoms: C_16  and  C_17
REMARK                            x       y       z     vdW  Elec       q    Type
REMARK                         _______ _______ _______ _____ _____    ______ ____
ROOT
ATOM      1  N   UNL     1      37.926   1.944  15.401  0.00  0.00    +0.000 NA
ATOM      2  C   UNL     1      37.800   3.076  16.149  0.00  0.00    +0.000 C 
ATOM      3  O   UNL     1      37.135   3.031  17.203  0.00  0.00    +0.000 OA
ENDROOT
BRANCH   1   5
ATOM      4  C   UNL     1      37.969  -0.625  15.318  0.00  0.00    +0.000 A 
ATOM      5  C   UNL     1      37.481   0.624  15.492  0.00  0.00    +0.000 A 
ATOM      6  S   UNL     1      35.828   0.295  15.952  0.00  0.00    +0.000 S 
ATOM      7  C   UNL     1      35.855  -1.397  15.898  0.00  0.00    +0.000 A 
ATOM      8  C   UNL     1      37.145  -1.675  15.524  0.00  0.00    +0.000 A 
ATOM      9  C   UNL     1      37.637  -3.116  15.344  0.00  0.00    +0.000 C 
ATOM     10  C   UNL     1      36.876  -3.756  14.203  0.00  0.00    +0.000 C 
ATOM     11  C   UNL     1      35.501  -4.180  14.680  0.00  0.00    +0.000 C 
ATOM     12  C   UNL     1      35.245  -3.740  16.104  0.00  0.00    +0.000 C 
ATOM     13  C   UNL     1      34.721  -2.345  16.194  0.00  0.00    +0.000 C 
BRANCH   4  15
ATOM     14  N   UNL     1      40.510  -0.952  14.603  0.00  0.00    +0.000 NA
ATOM     15  C   UNL     1      39.377  -0.824  14.913  0.00  0.00    +0.000 C 
ENDBRANCH   4  15
ENDBRANCH   1   5
BRANCH   2  16
ATOM     16  C   UNL     1      38.394   4.392  15.815  0.00  0.00    +0.000 C 
BRANCH  16  17
ATOM     17  C   UNL     1      38.186   5.439  16.823  0.00  0.00    +0.000 C 
BRANCH  17  18
ATOM     18  C   UNL     1      39.352   5.809  17.618  0.00  0.00    +0.000 A 
ATOM     19  C   UNL     1      39.300   5.877  18.982  0.00  0.00    +0.000 A 
ATOM     20  C   UNL     1      40.392   6.225  19.761  0.00  0.00    +0.000 A 
ATOM     21  C   UNL     1      41.563   6.507  19.083  0.00  0.00    +0.000 A 
ATOM     22  C   UNL     1      41.674   6.455  17.721  0.00  0.00    +0.000 A 
ATOM     23  C   UNL     1      40.545   6.099  16.978  0.00  0.00    +0.000 A 
ENDBRANCH  17  18
ENDBRANCH  16  17
BRANCH  16  24
ATOM     24  C   UNL     1      38.222   4.791  14.393  0.00  0.00    +0.000 C 
BRANCH  24  25
ATOM     25  C   UNL     1      36.956   5.585  14.293  0.00  0.00    +0.000 A 
ATOM     26  C   UNL     1      36.979   6.966  14.349  0.00  0.00    +0.000 A 
ATOM     27  C   UNL     1      35.850   7.747  14.261  0.00  0.00    +0.000 A 
ATOM     28  C   UNL     1      34.638   7.118  14.111  0.00  0.00    +0.000 A 
ATOM     29  C   UNL     1      34.604   5.751  14.054  0.00  0.00    +0.000 A 
ATOM     30  C   UNL     1      35.722   4.974  14.140  0.00  0.00    +0.000 A 
ENDBRANCH  24  25
ENDBRANCH  16  24
ENDBRANCH   2  16
TORSDOF 7
ENDMDL
MODEL 9
REMARK VINA RESULT:      -7.2      2.176      4.759
REMARK  Name = 
REMARK  7 active torsions:
REMARK  status: ('A' for Active; 'I' for Inactive)
REMARK    1  A    between atoms: C_2  and  C_3
REMARK    2  A    between atoms: C_4  and  N_5
REMARK    3  A    between atoms: C_6  and  C_8
REMARK    4  A    between atoms: C_8  and  C_9
REMARK    5  A    between atoms: C_8  and  C_16
REMARK    6  A    between atoms: C_9  and  C_10
REMARK    7  A    between atoms: C_16  and  C_17
REMARK                            x       y       z     vdW  Elec       q    Type
REMARK                         _______ _______ _______ _____ _____    ______ ____
ROOT
ATOM      1  N   UNL     1      38.001   2.086  15.416  0.00  0.00    +0.000 NA
ATOM      2  C   UNL     1      37.830   3.209  16.169  0.00  0.00    +0.000 C 
ATOM      3  O   UNL     1      37.136   3.141  17.203  0.00  0.00    +0.000 OA
ENDROOT
BRANCH   1   5
ATOM      4  C   UNL     1      38.087  -0.479  15.273  0.00  0.00    +0.000 A 
ATOM      5  C   UNL     1      37.579   0.757  15.482  0.00  0.00    +0.000 A 
ATOM      6  S   UNL     1      35.939   0.389  15.957  0.00  0.00    +0.000 S 
ATOM      7  C   UNL     1      35.994  -1.301  15.863  0.00  0.00    +0.000 A 
ATOM      8  C   UNL     1      37.283  -1.547  15.465  0.00  0.00    +0.000 A 
ATOM      9  C   UNL     1      37.798  -2.976  15.246  0.00  0.00    +0.000 C 
ATOM     10  C   UNL     1      37.032  -3.602  14.100  0.00  0.00    +0.000 C 
ATOM     11  C   UNL     1      35.671  -4.061  14.586  0.00  0.00    +0.000 C 
ATOM     12  C   UNL     1      35.427  -3.658  16.023  0.00  0.00    +0.000 C 
ATOM     13  C   UNL     1      34.881  -2.275  16.153  0.00  0.00    +0.000 C 
BRANCH   4  15
ATOM     14  N   UNL     1      40.608  -0.757  14.473  0.00  0.00    +0.000 NA
ATOM     15  C   UNL     1      39.492  -0.644  14.844  0.00  0.00    +0.000 C 
ENDBRANCH   4  15
ENDBRANCH   1   5
BRANCH   2  16
ATOM     16  C   UNL     1      38.407   4.539  15.864  0.00  0.00    +0.000 C 
BRANCH  16  17
ATOM     17  C   UNL     1      38.264   5.536  16.932  0.00  0.00    +0.000 C 
BRANCH  17  18
ATOM     18  C   UNL     1      39.477   5.866  17.674  0.00  0.00    +0.000 A 
ATOM     19  C   UNL     1      40.660   6.120  17.039  0.00  0.00    +0.000 A 
ATOM     20  C   UNL     1      41.826   6.435  17.719  0.00  0.00    +0.000 A 
ATOM     21  C   UNL     1      41.739   6.482  19.097  0.00  0.00    +0.000 A 
ATOM     22  C   UNL     1      40.582   6.237  19.786  0.00  0.00    +0.000 A 
ATOM     23  C   UNL     1      39.432   5.923  19.056  0.00  0.00    +0.000 A 
ENDBRANCH  17  18
ENDBRANCH  16  17
BRANCH  16  24
ATOM     24  C   UNL     1      38.151   5.006  14.477  0.00  0.00    +0.000 C 
BRANCH  24  25
ATOM     25  C   UNL     1      39.471   5.371  13.869  0.00  0.00    +0.000 A 
ATOM     26  C   UNL     1      39.726   6.664  13.451  0.00  0.00    +0.000 A 
ATOM     27  C   UNL     1      40.918   7.057  12.886  0.00  0.00    +0.000 A 
ATOM     28  C   UNL     1      41.903   6.112  12.731  0.00  0.00    +0.000 A 
ATOM     29  C   UNL     1      41.660   4.829  13.141  0.00  0.00    +0.000 A 
ATOM     30  C   UNL     1      40.480   4.437  13.702  0.00  0.00    +0.000 A 
ENDBRANCH  24  25
ENDBRANCH  16  24
ENDBRANCH   2  16
TORSDOF 7
ENDMDL
MODEL 10
REMARK VINA RESULT:      -7.2      2.108      8.816
REMARK  Name = 
REMARK  7 active torsions:
REMARK  status: ('A' for Active; 'I' for Inactive)
REMARK    1  A    between atoms: C_2  and  C_3
REMARK    2  A    between atoms: C_4  and  N_5
REMARK    3  A    between atoms: C_6  and  C_8
REMARK    4  A    between atoms: C_8  and  C_9
REMARK    5  A    between atoms: C_8  and  C_16
REMARK    6  A    between atoms: C_9  and  C_10
REMARK    7  A    between atoms: C_16  and  C_17
REMARK                            x       y       z     vdW  Elec       q    Type
REMARK                         _______ _______ _______ _____ _____    ______ ____
ROOT
ATOM      1  N   UNL     1      37.759   2.950  16.268  0.00  0.00    +0.000 NA
ATOM      2  C   UNL     1      36.667   2.142  16.158  0.00  0.00    +0.000 C 
ATOM      3  O   UNL     1      35.547   2.599  16.461  0.00  0.00    +0.000 OA
ENDROOT
BRANCH   1   5
ATOM      4  C   UNL     1      37.942   5.510  16.129  0.00  0.00    +0.000 A 
ATOM      5  C   UNL     1      38.000   4.268  16.661  0.00  0.00    +0.000 A 
ATOM      6  S   UNL     1      38.544   4.605  18.285  0.00  0.00    +0.000 S 
ATOM      7  C   UNL     1      38.664   6.292  18.195  0.00  0.00    +0.000 A 
ATOM      8  C   UNL     1      38.281   6.561  16.907  0.00  0.00    +0.000 A 
ATOM      9  C   UNL     1      38.235   7.995  16.365  0.00  0.00    +0.000 C 
ATOM     10  C   UNL     1      39.639   8.561  16.357  0.00  0.00    +0.000 C 
ATOM     11  C   UNL     1      40.022   8.997  17.757  0.00  0.00    +0.000 C 
ATOM     12  C   UNL     1      38.954   8.636  18.765  0.00  0.00    +0.000 C 
ATOM     13  C   UNL     1      39.093   7.243  19.283  0.00  0.00    +0.000 C 
BRANCH   4  15
ATOM     14  N   UNL     1      37.189   5.824  13.597  0.00  0.00    +0.000 NA
ATOM     15  C   UNL     1      37.514   5.701  14.726  0.00  0.00    +0.000 C 
ENDBRANCH   4  15
ENDBRANCH   1   5
BRANCH   2  16
ATOM     16  C   UNL     1      36.689   0.733  15.701  0.00  0.00    +0.000 C 
BRANCH  16  17
ATOM     17  C   UNL     1      37.156   0.535  14.324  0.00  0.00    +0.000 C 
BRANCH  17  18
ATOM     18  C   UNL     1      38.175  -0.492  14.130  0.00  0.00    +0.000 A 
ATOM     19  C   UNL     1      38.032  -1.479  13.197  0.00  0.00    +0.000 A 
ATOM     20  C   UNL     1      38.984  -2.466  12.993  0.00  0.00    +0.000 A 
ATOM     21  C   UNL     1      40.111  -2.405  13.791  0.00  0.00    +0.000 A 
ATOM     22  C   UNL     1      40.307  -1.440  14.741  0.00  0.00    +0.000 A 
ATOM     23  C   UNL     1      39.319  -0.467  14.910  0.00  0.00    +0.000 A 
ENDBRANCH  17  18
ENDBRANCH  16  17
BRANCH  16  24
ATOM     24  C   UNL     1      35.504  -0.058  16.124  0.00  0.00    +0.000 C 
BRANCH  24  25
ATOM     25  C   UNL     1      35.945  -1.479  16.304  0.00  0.00    +0.000 A 
ATOM     26  C   UNL     1      35.419  -2.489  15.521  0.00  0.00    +0.000 A 
ATOM     27  C   UNL     1      35.786  -3.810  15.640  0.00  0.00    +0.000 A 
ATOM     28  C   UNL     1      36.723  -4.137  16.589  0.00  0.00    +0.000 A 
ATOM     29  C   UNL     1      37.250  -3.144  17.370  0.00  0.00    +0.000 A 
ATOM     30  C   UNL     1      36.889  -1.834  17.253  0.00  0.00    +0.000 A 
ENDBRANCH  24  25
ENDBRANCH  16  24
ENDBRANCH   2  16
TORSDOF 7
ENDMDL
