MODEL 1
REMARK VINA RESULT:      -5.8      0.000      0.000
REMARK  Name = 
REMARK  2 active torsions:
REMARK  status: ('A' for Active; 'I' for Inactive)
REMARK    1  A    between atoms: O_2  and  C_3
REMARK    2  A    between atoms: C_9  and  C_10
REMARK                            x       y       z     vdW  Elec       q    Type
REMARK                         _______ _______ _______ _____ _____    ______ ____
ROOT
ATOM      1  C   UNL     1      26.692  23.695  29.467  0.00  0.00    +0.000 A 
ATOM      2  C   UNL     1      27.668  23.153  30.292  0.00  0.00    +0.000 A 
ATOM      3  C   UNL     1      28.847  22.710  29.731  0.00  0.00    +0.000 A 
ATOM      4  C   UNL     1      29.052  22.805  28.370  0.00  0.00    +0.000 A 
ATOM      5  C   UNL     1      28.080  23.345  27.552  0.00  0.00    +0.000 A 
ATOM      6  C   UNL     1      26.916  23.783  28.095  0.00  0.00    +0.000 A 
ATOM      7  C   UNL     1      28.552  23.312  26.269  0.00  0.00    +0.000 A 
ATOM      8  C   UNL     1      29.803  22.759  26.292  0.00  0.00    +0.000 A 
ATOM      9  C   UNL     1      30.648  22.550  25.095  0.00  0.00    +0.000 C 
ATOM     10  N   UNL     1      30.094  22.456  27.572  0.00  0.00    +0.000 N 
ATOM     11  C   UNL     1      31.334  21.854  27.982  0.00  0.00    +0.000 C 
ENDROOT
BRANCH   7  12
ATOM     12  C   UNL     1      27.775  23.813  25.108  0.00  0.00    +0.000 A 
ATOM     13  C   UNL     1      27.848  25.133  24.747  0.00  0.00    +0.000 A 
ATOM     14  S   UNL     1      26.785  25.163  23.384  0.00  0.00    +0.000 S 
ATOM     15  C   UNL     1      26.342  23.521  23.385  0.00  0.00    +0.000 A 
ATOM     16  N   UNL     1      25.461  22.783  22.516  0.00  0.00    +0.000 NA
ATOM     17  N   UNL     1      27.013  23.036  24.404  0.00  0.00    +0.000 NA
ENDBRANCH   7  12
BRANCH   1  19
ATOM     18  C   UNL     1      25.198  25.512  29.993  0.00  0.00    +0.000 C 
ATOM     19  O   UNL     1      25.512  24.135  30.041  0.00  0.00    +0.000 OA
ENDBRANCH   1  19
TORSDOF 2
ENDMDL
MODEL 2
REMARK VINA RESULT:      -5.6     32.260     32.732
REMARK  Name = 
REMARK  2 active torsions:
REMARK  status: ('A' for Active; 'I' for Inactive)
REMARK    1  A    between atoms: O_2  and  C_3
REMARK    2  A    between atoms: C_9  and  C_10
REMARK                            x       y       z     vdW  Elec       q    Type
REMARK                         _______ _______ _______ _____ _____    ______ ____
ROOT
ATOM      1  C   UNL     1      18.653  -6.979  26.762  0.00  0.00    +0.000 A 
ATOM      2  C   UNL     1      18.197  -7.753  27.820  0.00  0.00    +0.000 A 
ATOM      3  C   UNL     1      18.864  -8.920  28.130  0.00  0.00    +0.000 A 
ATOM      4  C   UNL     1      19.967  -9.310  27.399  0.00  0.00    +0.000 A 
ATOM      5  C   UNL     1      20.418  -8.537  26.347  0.00  0.00    +0.000 A 
ATOM      6  C   UNL     1      19.768  -7.387  26.035  0.00  0.00    +0.000 A 
ATOM      7  C   UNL     1      21.512  -9.160  25.814  0.00  0.00    +0.000 A 
ATOM      8  C   UNL     1      21.737 -10.306  26.528  0.00  0.00    +0.000 A 
ATOM      9  C   UNL     1      22.836 -11.258  26.255  0.00  0.00    +0.000 C 
ATOM     10  N   UNL     1      20.793 -10.384  27.485  0.00  0.00    +0.000 N 
ATOM     11  C   UNL     1      20.713 -11.463  28.432  0.00  0.00    +0.000 C 
ENDROOT
BRANCH   7  12
ATOM     12  C   UNL     1      22.269  -8.617  24.659  0.00  0.00    +0.000 A 
ATOM     13  C   UNL     1      21.875  -8.905  23.378  0.00  0.00    +0.000 A 
ATOM     14  S   UNL     1      23.066  -8.048  22.465  0.00  0.00    +0.000 S 
ATOM     15  C   UNL     1      23.953  -7.404  23.765  0.00  0.00    +0.000 A 
ATOM     16  N   UNL     1      25.121  -6.559  23.781  0.00  0.00    +0.000 NA
ATOM     17  N   UNL     1      23.312  -7.862  24.814  0.00  0.00    +0.000 NA
ENDBRANCH   7  12
BRANCH   1  19
ATOM     18  C   UNL     1      18.670  -4.581  26.514  0.00  0.00    +0.000 C 
ATOM     19  O   UNL     1      17.975  -5.810  26.460  0.00  0.00    +0.000 OA
ENDBRANCH   1  19
TORSDOF 2
ENDMDL
MODEL 3
REMARK VINA RESULT:      -5.5      1.765      2.730
REMARK  Name = 
REMARK  2 active torsions:
REMARK  status: ('A' for Active; 'I' for Inactive)
REMARK    1  A    between atoms: O_2  and  C_3
REMARK    2  A    between atoms: C_9  and  C_10
REMARK                            x       y       z     vdW  Elec       q    Type
REMARK                         _______ _______ _______ _____ _____    ______ ____
ROOT
ATOM      1  C   UNL     1      24.459  26.120  28.904  0.00  0.00    +0.000 A 
ATOM      2  C   UNL     1      24.792  25.722  30.192  0.00  0.00    +0.000 A 
ATOM      3  C   UNL     1      25.741  24.735  30.361  0.00  0.00    +0.000 A 
ATOM      4  C   UNL     1      26.348  24.154  29.267  0.00  0.00    +0.000 A 
ATOM      5  C   UNL     1      26.015  24.553  27.988  0.00  0.00    +0.000 A 
ATOM      6  C   UNL     1      25.082  25.524  27.811  0.00  0.00    +0.000 A 
ATOM      7  C   UNL     1      26.765  23.815  27.115  0.00  0.00    +0.000 A 
ATOM      8  C   UNL     1      27.555  22.970  27.844  0.00  0.00    +0.000 A 
ATOM      9  C   UNL     1      28.513  22.006  27.258  0.00  0.00    +0.000 C 
ATOM     10  N   UNL     1      27.292  23.185  29.148  0.00  0.00    +0.000 N 
ATOM     11  C   UNL     1      27.939  22.471  30.215  0.00  0.00    +0.000 C 
ENDROOT
BRANCH   7  12
ATOM     12  C   UNL     1      26.677  23.971  25.641  0.00  0.00    +0.000 A 
ATOM     13  C   UNL     1      27.412  24.936  25.003  0.00  0.00    +0.000 A 
ATOM     14  S   UNL     1      26.942  24.678  23.360  0.00  0.00    +0.000 S 
ATOM     15  C   UNL     1      25.867  23.385  23.614  0.00  0.00    +0.000 A 
ATOM     16  N   UNL     1      25.073  22.624  22.683  0.00  0.00    +0.000 NA
ATOM     17  N   UNL     1      25.916  23.213  24.915  0.00  0.00    +0.000 NA
ENDBRANCH   7  12
BRANCH   1  19
ATOM     18  C   UNL     1      22.189  26.875  29.203  0.00  0.00    +0.000 C 
ATOM     19  O   UNL     1      23.505  27.111  28.746  0.00  0.00    +0.000 OA
ENDBRANCH   1  19
TORSDOF 2
ENDMDL
MODEL 4
REMARK VINA RESULT:      -5.4      2.984      5.263
REMARK  Name = 
REMARK  2 active torsions:
REMARK  status: ('A' for Active; 'I' for Inactive)
REMARK    1  A    between atoms: O_2  and  C_3
REMARK    2  A    between atoms: C_9  and  C_10
REMARK                            x       y       z     vdW  Elec       q    Type
REMARK                         _______ _______ _______ _____ _____    ______ ____
ROOT
ATOM      1  C   UNL     1      31.482  23.453  26.851  0.00  0.00    +0.000 A 
ATOM      2  C   UNL     1      31.707  23.365  25.483  0.00  0.00    +0.000 A 
ATOM      3  C   UNL     1      30.625  23.314  24.631  0.00  0.00    +0.000 A 
ATOM      4  C   UNL     1      29.339  23.350  25.130  0.00  0.00    +0.000 A 
ATOM      5  C   UNL     1      29.119  23.437  26.490  0.00  0.00    +0.000 A 
ATOM      6  C   UNL     1      30.178  23.488  27.337  0.00  0.00    +0.000 A 
ATOM      7  C   UNL     1      27.766  23.454  26.691  0.00  0.00    +0.000 A 
ATOM      8  C   UNL     1      27.156  23.379  25.470  0.00  0.00    +0.000 A 
ATOM      9  C   UNL     1      25.690  23.371  25.267  0.00  0.00    +0.000 C 
ATOM     10  N   UNL     1      28.120  23.316  24.532  0.00  0.00    +0.000 N 
ATOM     11  C   UNL     1      27.851  23.227  23.123  0.00  0.00    +0.000 C 
ENDROOT
BRANCH   7  12
ATOM     12  C   UNL     1      27.150  23.542  28.039  0.00  0.00    +0.000 A 
ATOM     13  C   UNL     1      26.850  24.764  28.582  0.00  0.00    +0.000 A 
ATOM     14  S   UNL     1      26.179  24.294  30.103  0.00  0.00    +0.000 S 
ATOM     15  C   UNL     1      26.333  22.610  29.928  0.00  0.00    +0.000 A 
ATOM     16  N   UNL     1      25.975  21.534  30.817  0.00  0.00    +0.000 NA
ATOM     17  N   UNL     1      26.877  22.486  28.740  0.00  0.00    +0.000 NA
ENDBRANCH   7  12
BRANCH   1  19
ATOM     18  C   UNL     1      32.373  23.361  29.089  0.00  0.00    +0.000 C 
ATOM     19  O   UNL     1      32.577  23.502  27.698  0.00  0.00    +0.000 OA
ENDBRANCH   1  19
TORSDOF 2
ENDMDL
MODEL 5
REMARK VINA RESULT:      -5.2     19.685     21.387
REMARK  Name = 
REMARK  2 active torsions:
REMARK  status: ('A' for Active; 'I' for Inactive)
REMARK    1  A    between atoms: O_2  and  C_3
REMARK    2  A    between atoms: C_9  and  C_10
REMARK                            x       y       z     vdW  Elec       q    Type
REMARK                         _______ _______ _______ _____ _____    ______ ____
ROOT
ATOM      1  C   UNL     1      15.941  11.350  37.501  0.00  0.00    +0.000 A 
ATOM      2  C   UNL     1      16.716  12.346  36.922  0.00  0.00    +0.000 A 
ATOM      3  C   UNL     1      18.067  12.386  37.196  0.00  0.00    +0.000 A 
ATOM      4  C   UNL     1      18.638  11.448  38.031  0.00  0.00    +0.000 A 
ATOM      5  C   UNL     1      17.866  10.458  38.605  0.00  0.00    +0.000 A 
ATOM      6  C   UNL     1      16.534  10.412  38.341  0.00  0.00    +0.000 A 
ATOM      7  C   UNL     1      18.688   9.683  39.374  0.00  0.00    +0.000 A 
ATOM      8  C   UNL     1      19.957  10.186  39.277  0.00  0.00    +0.000 A 
ATOM      9  C   UNL     1      21.136   9.620  39.969  0.00  0.00    +0.000 C 
ATOM     10  N   UNL     1      19.913  11.256  38.460  0.00  0.00    +0.000 N 
ATOM     11  C   UNL     1      21.066  12.045  38.124  0.00  0.00    +0.000 C 
ENDROOT
BRANCH   7  12
ATOM     12  C   UNL     1      18.205   8.512  40.148  0.00  0.00    +0.000 A 
ATOM     13  C   UNL     1      18.586   7.245  39.792  0.00  0.00    +0.000 A 
ATOM     14  S   UNL     1      17.764   6.304  40.987  0.00  0.00    +0.000 S 
ATOM     15  C   UNL     1      17.017   7.579  41.828  0.00  0.00    +0.000 A 
ATOM     16  N   UNL     1      16.149   7.567  42.979  0.00  0.00    +0.000 NA
ATOM     17  N   UNL     1      17.421   8.642  41.172  0.00  0.00    +0.000 NA
ENDBRANCH   7  12
BRANCH   1  19
ATOM     18  C   UNL     1      13.674  11.065  38.269  0.00  0.00    +0.000 C 
ATOM     19  O   UNL     1      14.586  11.321  37.220  0.00  0.00    +0.000 OA
ENDBRANCH   1  19
TORSDOF 2
ENDMDL
MODEL 6
REMARK VINA RESULT:      -5.1      3.258      5.181
REMARK  Name = 
REMARK  2 active torsions:
REMARK  status: ('A' for Active; 'I' for Inactive)
REMARK    1  A    between atoms: O_2  and  C_3
REMARK    2  A    between atoms: C_9  and  C_10
REMARK                            x       y       z     vdW  Elec       q    Type
REMARK                         _______ _______ _______ _____ _____    ______ ____
ROOT
ATOM      1  C   UNL     1      23.660  26.120  27.276  0.00  0.00    +0.000 A 
ATOM      2  C   UNL     1      23.599  26.422  25.922  0.00  0.00    +0.000 A 
ATOM      3  C   UNL     1      24.528  25.861  25.071  0.00  0.00    +0.000 A 
ATOM      4  C   UNL     1      25.501  25.013  25.559  0.00  0.00    +0.000 A 
ATOM      5  C   UNL     1      25.558  24.715  26.905  0.00  0.00    +0.000 A 
ATOM      6  C   UNL     1      24.648  25.263  27.751  0.00  0.00    +0.000 A 
ATOM      7  C   UNL     1      26.609  23.862  27.097  0.00  0.00    +0.000 A 
ATOM      8  C   UNL     1      27.196  23.633  25.883  0.00  0.00    +0.000 A 
ATOM      9  C   UNL     1      28.371  22.759  25.673  0.00  0.00    +0.000 C 
ATOM     10  N   UNL     1      26.514  24.337  24.958  0.00  0.00    +0.000 N 
ATOM     11  C   UNL     1      26.849  24.341  23.561  0.00  0.00    +0.000 C 
ENDROOT
BRANCH   7  12
ATOM     12  C   UNL     1      26.980  23.322  28.429  0.00  0.00    +0.000 A 
ATOM     13  C   UNL     1      28.182  23.652  28.997  0.00  0.00    +0.000 A 
ATOM     14  S   UNL     1      28.095  22.780  30.487  0.00  0.00    +0.000 S 
ATOM     15  C   UNL     1      26.562  22.077  30.268  0.00  0.00    +0.000 A 
ATOM     16  N   UNL     1      25.800  21.198  31.118  0.00  0.00    +0.000 NA
ATOM     17  N   UNL     1      26.194  22.533  29.093  0.00  0.00    +0.000 NA
ENDBRANCH   7  12
BRANCH   1  19
ATOM     18  C   UNL     1      23.162  27.306  29.315  0.00  0.00    +0.000 C 
ATOM     19  O   UNL     1      22.723  26.690  28.121  0.00  0.00    +0.000 OA
ENDBRANCH   1  19
TORSDOF 2
ENDMDL
MODEL 7
REMARK VINA RESULT:      -5.1      3.469      6.279
REMARK  Name = 
REMARK  2 active torsions:
REMARK  status: ('A' for Active; 'I' for Inactive)
REMARK    1  A    between atoms: O_2  and  C_3
REMARK    2  A    between atoms: C_9  and  C_10
REMARK                            x       y       z     vdW  Elec       q    Type
REMARK                         _______ _______ _______ _____ _____    ______ ____
ROOT
ATOM      1  C   UNL     1      27.344  23.886  24.441  0.00  0.00    +0.000 A 
ATOM      2  C   UNL     1      26.644  24.873  23.762  0.00  0.00    +0.000 A 
ATOM      3  C   UNL     1      25.816  25.715  24.474  0.00  0.00    +0.000 A 
ATOM      4  C   UNL     1      25.686  25.576  25.841  0.00  0.00    +0.000 A 
ATOM      5  C   UNL     1      26.384  24.593  26.514  0.00  0.00    +0.000 A 
ATOM      6  C   UNL     1      27.202  23.760  25.821  0.00  0.00    +0.000 A 
ATOM      7  C   UNL     1      26.065  24.691  27.840  0.00  0.00    +0.000 A 
ATOM      8  C   UNL     1      25.180  25.724  27.987  0.00  0.00    +0.000 A 
ATOM      9  C   UNL     1      24.596  26.147  29.279  0.00  0.00    +0.000 C 
ATOM     10  N   UNL     1      24.959  26.252  26.767  0.00  0.00    +0.000 N 
ATOM     11  C   UNL     1      24.077  27.362  26.533  0.00  0.00    +0.000 C 
ENDROOT
BRANCH   7  12
ATOM     12  C   UNL     1      26.630  23.791  28.876  0.00  0.00    +0.000 A 
ATOM     13  C   UNL     1      27.950  23.889  29.230  0.00  0.00    +0.000 A 
ATOM     14  S   UNL     1      28.063  22.651  30.432  0.00  0.00    +0.000 S 
ATOM     15  C   UNL     1      26.448  22.119  30.385  0.00  0.00    +0.000 A 
ATOM     16  N   UNL     1      25.776  21.085  31.131  0.00  0.00    +0.000 NA
ATOM     17  N   UNL     1      25.908  22.896  29.475  0.00  0.00    +0.000 NA
ENDBRANCH   7  12
BRANCH   1  19
ATOM     18  C   UNL     1      29.473  22.782  24.199  0.00  0.00    +0.000 C 
ATOM     19  O   UNL     1      28.172  23.046  23.716  0.00  0.00    +0.000 OA
ENDBRANCH   1  19
TORSDOF 2
ENDMDL
MODEL 8
REMARK VINA RESULT:      -5.1      2.602      4.830
REMARK  Name = 
REMARK  2 active torsions:
REMARK  status: ('A' for Active; 'I' for Inactive)
REMARK    1  A    between atoms: O_2  and  C_3
REMARK    2  A    between atoms: C_9  and  C_10
REMARK                            x       y       z     vdW  Elec       q    Type
REMARK                         _______ _______ _______ _____ _____    ______ ____
ROOT
ATOM      1  C   UNL     1      26.740  23.551  28.100  0.00  0.00    +0.000 A 
ATOM      2  C   UNL     1      26.018  23.494  26.915  0.00  0.00    +0.000 A 
ATOM      3  C   UNL     1      26.700  23.368  25.723  0.00  0.00    +0.000 A 
ATOM      4  C   UNL     1      28.078  23.298  25.711  0.00  0.00    +0.000 A 
ATOM      5  C   UNL     1      28.793  23.354  26.890  0.00  0.00    +0.000 A 
ATOM      6  C   UNL     1      28.130  23.479  28.069  0.00  0.00    +0.000 A 
ATOM      7  C   UNL     1      30.120  23.263  26.576  0.00  0.00    +0.000 A 
ATOM      8  C   UNL     1      30.227  23.151  25.217  0.00  0.00    +0.000 A 
ATOM      9  C   UNL     1      31.508  23.030  24.486  0.00  0.00    +0.000 C 
ATOM     10  N   UNL     1      28.981  23.174  24.704  0.00  0.00    +0.000 N 
ATOM     11  C   UNL     1      28.702  23.078  23.298  0.00  0.00    +0.000 C 
ENDROOT
BRANCH   7  12
ATOM     12  C   UNL     1      31.197  23.288  27.598  0.00  0.00    +0.000 A 
ATOM     13  C   UNL     1      31.820  24.467  27.915  0.00  0.00    +0.000 A 
ATOM     14  S   UNL     1      32.944  23.934  29.115  0.00  0.00    +0.000 S 
ATOM     15  C   UNL     1      32.537  22.283  29.114  0.00  0.00    +0.000 A 
ATOM     16  N   UNL     1      33.067  21.183  29.880  0.00  0.00    +0.000 NA
ATOM     17  N   UNL     1      31.580  22.217  28.218  0.00  0.00    +0.000 NA
ENDBRANCH   7  12
BRANCH   1  19
ATOM     18  C   UNL     1      26.480  22.950  30.420  0.00  0.00    +0.000 C 
ATOM     19  O   UNL     1      26.045  23.679  29.291  0.00  0.00    +0.000 OA
ENDBRANCH   1  19
TORSDOF 2
ENDMDL
MODEL 9
REMARK VINA RESULT:      -5.0     32.855     33.372
REMARK  Name = 
REMARK  2 active torsions:
REMARK  status: ('A' for Active; 'I' for Inactive)
REMARK    1  A    between atoms: O_2  and  C_3
REMARK    2  A    between atoms: C_9  and  C_10
REMARK                            x       y       z     vdW  Elec       q    Type
REMARK                         _______ _______ _______ _____ _____    ______ ____
ROOT
ATOM      1  C   UNL     1      18.528  -9.897  27.820  0.00  0.00    +0.000 A 
ATOM      2  C   UNL     1      17.777  -8.754  28.063  0.00  0.00    +0.000 A 
ATOM      3  C   UNL     1      18.172  -7.562  27.493  0.00  0.00    +0.000 A 
ATOM      4  C   UNL     1      19.297  -7.508  26.695  0.00  0.00    +0.000 A 
ATOM      5  C   UNL     1      20.041  -8.646  26.456  0.00  0.00    +0.000 A 
ATOM      6  C   UNL     1      19.659  -9.824  27.012  0.00  0.00    +0.000 A 
ATOM      7  C   UNL     1      21.083  -8.297  25.642  0.00  0.00    +0.000 A 
ATOM      8  C   UNL     1      20.985  -6.958  25.380  0.00  0.00    +0.000 A 
ATOM      9  C   UNL     1      21.932  -6.201  24.532  0.00  0.00    +0.000 C 
ATOM     10  N   UNL     1      19.898  -6.492  26.024  0.00  0.00    +0.000 N 
ATOM     11  C   UNL     1      19.478  -5.118  25.978  0.00  0.00    +0.000 C 
ENDROOT
BRANCH   7  12
ATOM     12  C   UNL     1      22.101  -9.268  25.170  0.00  0.00    +0.000 A 
ATOM     13  C   UNL     1      21.957  -9.882  23.953  0.00  0.00    +0.000 A 
ATOM     14  S   UNL     1      23.373 -10.872  23.913  0.00  0.00    +0.000 S 
ATOM     15  C   UNL     1      24.021 -10.433  25.422  0.00  0.00    +0.000 A 
ATOM     16  N   UNL     1      25.223 -10.861  26.092  0.00  0.00    +0.000 NA
ATOM     17  N   UNL     1      23.145  -9.567  25.877  0.00  0.00    +0.000 NA
ENDBRANCH   7  12
BRANCH   1  19
ATOM     18  C   UNL     1      17.418 -11.051  29.623  0.00  0.00    +0.000 C 
ATOM     19  O   UNL     1      18.122 -11.088  28.398  0.00  0.00    +0.000 OA
ENDBRANCH   1  19
TORSDOF 2
ENDMDL
MODEL 10
REMARK VINA RESULT:      -5.0     34.118     34.575
REMARK  Name = 
REMARK  2 active torsions:
REMARK  status: ('A' for Active; 'I' for Inactive)
REMARK    1  A    between atoms: O_2  and  C_3
REMARK    2  A    between atoms: C_9  and  C_10
REMARK                            x       y       z     vdW  Elec       q    Type
REMARK                         _______ _______ _______ _____ _____    ______ ____
ROOT
ATOM      1  C   UNL     1      17.576  -6.797  26.799  0.00  0.00    +0.000 A 
ATOM      2  C   UNL     1      18.423  -7.534  27.615  0.00  0.00    +0.000 A 
ATOM      3  C   UNL     1      18.122  -8.855  27.871  0.00  0.00    +0.000 A 
ATOM      4  C   UNL     1      16.995  -9.434  27.322  0.00  0.00    +0.000 A 
ATOM      5  C   UNL     1      16.156  -8.698  26.510  0.00  0.00    +0.000 A 
ATOM      6  C   UNL     1      16.445  -7.396  26.253  0.00  0.00    +0.000 A 
ATOM      7  C   UNL     1      15.136  -9.519  26.115  0.00  0.00    +0.000 A 
ATOM      8  C   UNL     1      15.342 -10.750  26.676  0.00  0.00    +0.000 A 
ATOM      9  C   UNL     1      14.451 -11.915  26.485  0.00  0.00    +0.000 C 
ATOM     10  N   UNL     1      16.473 -10.684  27.405  0.00  0.00    +0.000 N 
ATOM     11  C   UNL     1      17.005 -11.797  28.143  0.00  0.00    +0.000 C 
ENDROOT
BRANCH   7  12
ATOM     12  C   UNL     1      14.034  -9.070  25.227  0.00  0.00    +0.000 A 
ATOM     13  C   UNL     1      12.817  -8.730  25.757  0.00  0.00    +0.000 A 
ATOM     14  S   UNL     1      11.944  -8.300  24.328  0.00  0.00    +0.000 S 
ATOM     15  C   UNL     1      13.178  -8.584  23.194  0.00  0.00    +0.000 A 
ATOM     16  N   UNL     1      13.190  -8.440  21.760  0.00  0.00    +0.000 NA
ATOM     17  N   UNL     1      14.179  -8.985  23.942  0.00  0.00    +0.000 NA
ENDBRANCH   7  12
BRANCH   1  19
ATOM     18  C   UNL     1      19.238  -5.115  26.325  0.00  0.00    +0.000 C 
ATOM     19  O   UNL     1      17.889  -5.471  26.550  0.00  0.00    +0.000 OA
ENDBRANCH   1  19
TORSDOF 2
ENDMDL
