MODEL 1
REMARK VINA RESULT:      -7.9      0.000      0.000
REMARK  Name = 
REMARK  2 active torsions:
REMARK  status: ('A' for Active; 'I' for Inactive)
REMARK    1  A    between atoms: C_3  and  C_4
REMARK    2  A    between atoms: C_13  and  C_14
REMARK                            x       y       z     vdW  Elec       q    Type
REMARK                         _______ _______ _______ _____ _____    ______ ____
ROOT
ATOM      1  C   UNL     1      17.376  11.232  33.838  0.00  0.00    +0.000 C 
ATOM      2  C   UNL     1      16.328  11.398  34.931  0.00  0.00    +0.000 A 
ATOM      3  C   UNL     1      15.144  11.957  34.511  0.00  0.00    +0.000 A 
ATOM      4  S   UNL     1      14.208  12.011  35.912  0.00  0.00    +0.000 S 
ATOM      5  C   UNL     1      15.312  11.331  37.011  0.00  0.00    +0.000 A 
ATOM      6  N   UNL     1      15.117  11.091  38.417  0.00  0.00    +0.000 NA
ATOM      7  C   UNL     1      16.442  11.064  36.220  0.00  0.00    +0.000 A 
ENDROOT
BRANCH   7   8
ATOM      8  C   UNL     1      17.601  10.460  36.886  0.00  0.00    +0.000 C 
ATOM      9  O   UNL     1      17.759   9.163  36.786  0.00  0.00    +0.000 OA
ATOM     10  N   UNL     1      18.612  11.056  37.642  0.00  0.00    +0.000 N 
ATOM     11  C   UNL     1      18.823  12.418  37.993  0.00  0.00    +0.000 C 
ATOM     12  C   UNL     1      20.283  12.766  38.174  0.00  0.00    +0.000 C 
ATOM     13  C   UNL     1      20.914  11.903  39.273  0.00  0.00    +0.000 C 
ATOM     14  C   UNL     1      20.024  10.694  39.525  0.00  0.00    +0.000 C 
ATOM     15  C   UNL     1      19.656  10.110  38.178  0.00  0.00    +0.000 C 
ENDBRANCH   7   8
BRANCH   3  16
ATOM     16  C   UNL     1      14.721  12.419  33.189  0.00  0.00    +0.000 A 
ATOM     17  C   UNL     1      14.121  13.655  33.023  0.00  0.00    +0.000 A 
ATOM     18  C   UNL     1      13.712  14.119  31.796  0.00  0.00    +0.000 A 
ATOM     19  C   UNL     1      13.891  13.350  30.665  0.00  0.00    +0.000 A 
ATOM     20  C   UNL     1      14.489  12.118  30.821  0.00  0.00    +0.000 A 
ATOM     21  C   UNL     1      14.896  11.657  32.054  0.00  0.00    +0.000 A 
ENDBRANCH   3  16
TORSDOF 2
ENDMDL
MODEL 2
REMARK VINA RESULT:      -6.9     19.985     21.689
REMARK  Name = 
REMARK  2 active torsions:
REMARK  status: ('A' for Active; 'I' for Inactive)
REMARK    1  A    between atoms: C_3  and  C_4
REMARK    2  A    between atoms: C_13  and  C_14
REMARK                            x       y       z     vdW  Elec       q    Type
REMARK                         _______ _______ _______ _____ _____    ______ ____
ROOT
ATOM      1  C   UNL     1      29.031  24.827  24.995  0.00  0.00    +0.000 C 
ATOM      2  C   UNL     1      27.836  24.232  24.261  0.00  0.00    +0.000 A 
ATOM      3  C   UNL     1      26.912  23.618  25.072  0.00  0.00    +0.000 A 
ATOM      4  S   UNL     1      25.735  23.072  23.995  0.00  0.00    +0.000 S 
ATOM      5  C   UNL     1      26.416  23.621  22.538  0.00  0.00    +0.000 A 
ATOM      6  N   UNL     1      25.883  23.469  21.208  0.00  0.00    +0.000 NA
ATOM      7  C   UNL     1      27.605  24.249  22.945  0.00  0.00    +0.000 A 
ENDROOT
BRANCH   7   8
ATOM      8  C   UNL     1      28.445  24.842  21.898  0.00  0.00    +0.000 C 
ATOM      9  O   UNL     1      29.438  24.127  21.431  0.00  0.00    +0.000 OA
ATOM     10  N   UNL     1      28.364  26.094  21.286  0.00  0.00    +0.000 N 
ATOM     11  C   UNL     1      27.451  27.165  21.490  0.00  0.00    +0.000 C 
ATOM     12  C   UNL     1      27.224  27.998  20.248  0.00  0.00    +0.000 C 
ATOM     13  C   UNL     1      28.543  28.603  19.753  0.00  0.00    +0.000 C 
ATOM     14  C   UNL     1      29.703  27.843  20.380  0.00  0.00    +0.000 C 
ATOM     15  C   UNL     1      29.410  26.364  20.236  0.00  0.00    +0.000 C 
ENDBRANCH   7   8
BRANCH   3  16
ATOM     16  C   UNL     1      26.882  23.439  26.523  0.00  0.00    +0.000 A 
ATOM     17  C   UNL     1      27.759  22.575  27.155  0.00  0.00    +0.000 A 
ATOM     18  C   UNL     1      27.759  22.384  28.515  0.00  0.00    +0.000 A 
ATOM     19  C   UNL     1      26.862  23.064  29.313  0.00  0.00    +0.000 A 
ATOM     20  C   UNL     1      25.985  23.927  28.693  0.00  0.00    +0.000 A 
ATOM     21  C   UNL     1      25.989  24.115  27.329  0.00  0.00    +0.000 A 
ENDBRANCH   3  16
TORSDOF 2
ENDMDL
MODEL 3
REMARK VINA RESULT:      -6.5     20.889     22.671
REMARK  Name = 
REMARK  2 active torsions:
REMARK  status: ('A' for Active; 'I' for Inactive)
REMARK    1  A    between atoms: C_3  and  C_4
REMARK    2  A    between atoms: C_13  and  C_14
REMARK                            x       y       z     vdW  Elec       q    Type
REMARK                         _______ _______ _______ _____ _____    ______ ____
ROOT
ATOM      1  C   UNL     1      30.889  24.949  24.253  0.00  0.00    +0.000 C 
ATOM      2  C   UNL     1      29.536  24.303  23.987  0.00  0.00    +0.000 A 
ATOM      3  C   UNL     1      29.038  23.562  25.032  0.00  0.00    +0.000 A 
ATOM      4  S   UNL     1      27.564  22.987  24.447  0.00  0.00    +0.000 S 
ATOM      5  C   UNL     1      27.589  23.684  22.897  0.00  0.00    +0.000 A 
ATOM      6  N   UNL     1      26.587  23.573  21.868  0.00  0.00    +0.000 NA
ATOM      7  C   UNL     1      28.807  24.384  22.870  0.00  0.00    +0.000 A 
ENDROOT
BRANCH   7   8
ATOM      8  C   UNL     1      29.136  25.112  21.639  0.00  0.00    +0.000 C 
ATOM      9  O   UNL     1      29.763  24.462  20.691  0.00  0.00    +0.000 OA
ATOM     10  N   UNL     1      28.885  26.439  21.289  0.00  0.00    +0.000 N 
ATOM     11  C   UNL     1      28.240  27.480  22.012  0.00  0.00    +0.000 C 
ATOM     12  C   UNL     1      27.548  28.485  21.119  0.00  0.00    +0.000 C 
ATOM     13  C   UNL     1      28.550  29.141  20.163  0.00  0.00    +0.000 C 
ATOM     14  C   UNL     1      29.808  28.286  20.101  0.00  0.00    +0.000 C 
ATOM     15  C   UNL     1      29.374  26.847  19.923  0.00  0.00    +0.000 C 
ENDBRANCH   7   8
BRANCH   3  16
ATOM     16  C   UNL     1      29.589  23.288  26.358  0.00  0.00    +0.000 A 
ATOM     17  C   UNL     1      29.186  24.017  27.463  0.00  0.00    +0.000 A 
ATOM     18  C   UNL     1      29.683  23.786  28.723  0.00  0.00    +0.000 A 
ATOM     19  C   UNL     1      30.622  22.797  28.930  0.00  0.00    +0.000 A 
ATOM     20  C   UNL     1      31.029  22.065  27.836  0.00  0.00    +0.000 A 
ATOM     21  C   UNL     1      30.528  22.302  26.575  0.00  0.00    +0.000 A 
ENDBRANCH   3  16
TORSDOF 2
ENDMDL
MODEL 4
REMARK VINA RESULT:      -6.5     19.925     21.838
REMARK  Name = 
REMARK  2 active torsions:
REMARK  status: ('A' for Active; 'I' for Inactive)
REMARK    1  A    between atoms: C_3  and  C_4
REMARK    2  A    between atoms: C_13  and  C_14
REMARK                            x       y       z     vdW  Elec       q    Type
REMARK                         _______ _______ _______ _____ _____    ______ ____
ROOT
ATOM      1  C   UNL     1      31.653  23.429  24.894  0.00  0.00    +0.000 C 
ATOM      2  C   UNL     1      30.316  23.198  25.586  0.00  0.00    +0.000 A 
ATOM      3  C   UNL     1      30.408  22.869  26.918  0.00  0.00    +0.000 A 
ATOM      4  S   UNL     1      28.801  22.679  27.394  0.00  0.00    +0.000 S 
ATOM      5  C   UNL     1      28.031  23.014  25.916  0.00  0.00    +0.000 A 
ATOM      6  N   UNL     1      26.617  23.021  25.645  0.00  0.00    +0.000 NA
ATOM      7  C   UNL     1      29.098  23.280  25.042  0.00  0.00    +0.000 A 
ENDROOT
BRANCH   7   8
ATOM      8  C   UNL     1      28.762  23.612  23.653  0.00  0.00    +0.000 C 
ATOM      9  O   UNL     1      28.220  22.678  22.912  0.00  0.00    +0.000 OA
ATOM     10  N   UNL     1      28.927  24.808  22.952  0.00  0.00    +0.000 N 
ATOM     11  C   UNL     1      29.467  26.057  23.368  0.00  0.00    +0.000 C 
ATOM     12  C   UNL     1      28.862  27.238  22.643  0.00  0.00    +0.000 C 
ATOM     13  C   UNL     1      29.087  27.118  21.131  0.00  0.00    +0.000 C 
ATOM     14  C   UNL     1      29.444  25.677  20.796  0.00  0.00    +0.000 C 
ATOM     15  C   UNL     1      28.460  24.783  21.519  0.00  0.00    +0.000 C 
ENDBRANCH   7   8
BRANCH   3  16
ATOM     16  C   UNL     1      31.574  22.704  27.784  0.00  0.00    +0.000 A 
ATOM     17  C   UNL     1      31.784  21.530  28.484  0.00  0.00    +0.000 A 
ATOM     18  C   UNL     1      32.870  21.343  29.305  0.00  0.00    +0.000 A 
ATOM     19  C   UNL     1      33.806  22.343  29.461  0.00  0.00    +0.000 A 
ATOM     20  C   UNL     1      33.606  23.517  28.766  0.00  0.00    +0.000 A 
ATOM     21  C   UNL     1      32.516  23.699  27.944  0.00  0.00    +0.000 A 
ENDBRANCH   3  16
TORSDOF 2
ENDMDL
MODEL 5
REMARK VINA RESULT:      -6.4     20.567     22.586
REMARK  Name = 
REMARK  2 active torsions:
REMARK  status: ('A' for Active; 'I' for Inactive)
REMARK    1  A    between atoms: C_3  and  C_4
REMARK    2  A    between atoms: C_13  and  C_14
REMARK                            x       y       z     vdW  Elec       q    Type
REMARK                         _______ _______ _______ _____ _____    ______ ____
ROOT
ATOM      1  C   UNL     1      23.186   4.392  18.433  0.00  0.00    +0.000 C 
ATOM      2  C   UNL     1      23.862   3.432  17.463  0.00  0.00    +0.000 A 
ATOM      3  C   UNL     1      25.158   3.759  17.141  0.00  0.00    +0.000 A 
ATOM      4  S   UNL     1      25.625   2.538  16.075  0.00  0.00    +0.000 S 
ATOM      5  C   UNL     1      24.188   1.631  16.045  0.00  0.00    +0.000 A 
ATOM      6  N   UNL     1      23.926   0.425  15.302  0.00  0.00    +0.000 NA
ATOM      7  C   UNL     1      23.335   2.335  16.910  0.00  0.00    +0.000 A 
ENDROOT
BRANCH   7   8
ATOM      8  C   UNL     1      21.983   1.798  17.107  0.00  0.00    +0.000 C 
ATOM      9  O   UNL     1      21.748   1.112  18.197  0.00  0.00    +0.000 OA
ATOM     10  N   UNL     1      20.853   1.898  16.294  0.00  0.00    +0.000 N 
ATOM     11  C   UNL     1      20.669   2.544  15.040  0.00  0.00    +0.000 C 
ATOM     12  C   UNL     1      19.256   3.037  14.826  0.00  0.00    +0.000 C 
ATOM     13  C   UNL     1      18.259   1.874  14.897  0.00  0.00    +0.000 C 
ATOM     14  C   UNL     1      18.927   0.690  15.582  0.00  0.00    +0.000 C 
ATOM     15  C   UNL     1      19.619   1.212  16.823  0.00  0.00    +0.000 C 
ENDBRANCH   7   8
BRANCH   3  16
ATOM     16  C   UNL     1      25.999   4.874  17.574  0.00  0.00    +0.000 A 
ATOM     17  C   UNL     1      26.070   6.043  16.837  0.00  0.00    +0.000 A 
ATOM     18  C   UNL     1      26.848   7.109  17.215  0.00  0.00    +0.000 A 
ATOM     19  C   UNL     1      27.602   7.047  18.369  0.00  0.00    +0.000 A 
ATOM     20  C   UNL     1      27.537   5.887  19.110  0.00  0.00    +0.000 A 
ATOM     21  C   UNL     1      26.755   4.820  18.726  0.00  0.00    +0.000 A 
ENDBRANCH   3  16
TORSDOF 2
ENDMDL
MODEL 6
REMARK VINA RESULT:      -6.4      3.664      7.846
REMARK  Name = 
REMARK  2 active torsions:
REMARK  status: ('A' for Active; 'I' for Inactive)
REMARK    1  A    between atoms: C_3  and  C_4
REMARK    2  A    between atoms: C_13  and  C_14
REMARK                            x       y       z     vdW  Elec       q    Type
REMARK                         _______ _______ _______ _____ _____    ______ ____
ROOT
ATOM      1  C   UNL     1      15.625  10.156  39.448  0.00  0.00    +0.000 C 
ATOM      2  C   UNL     1      17.122   9.966  39.237  0.00  0.00    +0.000 A 
ATOM      3  C   UNL     1      17.744   9.201  40.196  0.00  0.00    +0.000 A 
ATOM      4  S   UNL     1      19.356   9.174  39.700  0.00  0.00    +0.000 S 
ATOM      5  C   UNL     1      19.231  10.122  38.296  0.00  0.00    +0.000 A 
ATOM      6  N   UNL     1      20.287  10.487  37.386  0.00  0.00    +0.000 NA
ATOM      7  C   UNL     1      17.868  10.455  38.243  0.00  0.00    +0.000 A 
ENDROOT
BRANCH   7   8
ATOM      8  C   UNL     1      17.423  11.289  37.120  0.00  0.00    +0.000 C 
ATOM      9  O   UNL     1      17.221  12.564  37.344  0.00  0.00    +0.000 OA
ATOM     10  N   UNL     1      17.165  10.942  35.793  0.00  0.00    +0.000 N 
ATOM     11  C   UNL     1      17.255   9.686  35.132  0.00  0.00    +0.000 C 
ATOM     12  C   UNL     1      17.590   9.810  33.662  0.00  0.00    +0.000 C 
ATOM     13  C   UNL     1      16.529  10.641  32.932  0.00  0.00    +0.000 C 
ATOM     14  C   UNL     1      15.730  11.435  33.957  0.00  0.00    +0.000 C 
ATOM     15  C   UNL     1      16.718  12.077  34.907  0.00  0.00    +0.000 C 
ENDBRANCH   7   8
BRANCH   3  16
ATOM     16  C   UNL     1      17.210   8.538  41.385  0.00  0.00    +0.000 A 
ATOM     17  C   UNL     1      16.904   9.256  42.526  0.00  0.00    +0.000 A 
ATOM     18  C   UNL     1      16.400   8.665  43.659  0.00  0.00    +0.000 A 
ATOM     19  C   UNL     1      16.180   7.303  43.695  0.00  0.00    +0.000 A 
ATOM     20  C   UNL     1      16.482   6.579  42.562  0.00  0.00    +0.000 A 
ATOM     21  C   UNL     1      16.987   7.178  41.429  0.00  0.00    +0.000 A 
ENDBRANCH   3  16
TORSDOF 2
ENDMDL
MODEL 7
REMARK VINA RESULT:      -6.4     21.416     22.575
REMARK  Name = 
REMARK  2 active torsions:
REMARK  status: ('A' for Active; 'I' for Inactive)
REMARK    1  A    between atoms: C_3  and  C_4
REMARK    2  A    between atoms: C_13  and  C_14
REMARK                            x       y       z     vdW  Elec       q    Type
REMARK                         _______ _______ _______ _____ _____    ______ ____
ROOT
ATOM      1  C   UNL     1      20.743  -9.652  26.013  0.00  0.00    +0.000 C 
ATOM      2  C   UNL     1      20.101  -8.275  26.119  0.00  0.00    +0.000 A 
ATOM      3  C   UNL     1      20.758  -7.281  25.433  0.00  0.00    +0.000 A 
ATOM      4  S   UNL     1      19.828  -5.906  25.735  0.00  0.00    +0.000 S 
ATOM      5  C   UNL     1      18.625  -6.595  26.718  0.00  0.00    +0.000 A 
ATOM      6  N   UNL     1      17.499  -5.931  27.323  0.00  0.00    +0.000 NA
ATOM      7  C   UNL     1      18.994  -7.948  26.792  0.00  0.00    +0.000 A 
ENDROOT
BRANCH   7   8
ATOM      8  C   UNL     1      18.138  -8.836  27.588  0.00  0.00    +0.000 C 
ATOM      9  O   UNL     1      16.967  -9.160  27.098  0.00  0.00    +0.000 OA
ATOM     10  N   UNL     1      18.367  -9.422  28.833  0.00  0.00    +0.000 N 
ATOM     11  C   UNL     1      19.490  -9.338  29.703  0.00  0.00    +0.000 C 
ATOM     12  C   UNL     1      19.686 -10.579  30.544  0.00  0.00    +0.000 C 
ATOM     13  C   UNL     1      18.451 -10.846  31.411  0.00  0.00    +0.000 C 
ATOM     14  C   UNL     1      17.272 -10.065  30.848  0.00  0.00    +0.000 C 
ATOM     15  C   UNL     1      17.248 -10.289  29.352  0.00  0.00    +0.000 C 
ENDBRANCH   7   8
BRANCH   3  16
ATOM     16  C   UNL     1      21.971  -7.322  24.618  0.00  0.00    +0.000 A 
ATOM     17  C   UNL     1      23.070  -6.542  24.932  0.00  0.00    +0.000 A 
ATOM     18  C   UNL     1      24.225  -6.558  24.188  0.00  0.00    +0.000 A 
ATOM     19  C   UNL     1      24.327  -7.370  23.078  0.00  0.00    +0.000 A 
ATOM     20  C   UNL     1      23.238  -8.152  22.758  0.00  0.00    +0.000 A 
ATOM     21  C   UNL     1      22.082  -8.132  23.507  0.00  0.00    +0.000 A 
ENDBRANCH   3  16
TORSDOF 2
ENDMDL
MODEL 8
REMARK VINA RESULT:      -6.3     18.719     20.913
REMARK  Name = 
REMARK  2 active torsions:
REMARK  status: ('A' for Active; 'I' for Inactive)
REMARK    1  A    between atoms: C_3  and  C_4
REMARK    2  A    between atoms: C_13  and  C_14
REMARK                            x       y       z     vdW  Elec       q    Type
REMARK                         _______ _______ _______ _____ _____    ______ ____
ROOT
ATOM      1  C   UNL     1      34.440   2.775  37.477  0.00  0.00    +0.000 C 
ATOM      2  C   UNL     1      34.112   2.444  36.027  0.00  0.00    +0.000 A 
ATOM      3  C   UNL     1      34.228   3.502  35.157  0.00  0.00    +0.000 A 
ATOM      4  S   UNL     1      33.810   2.838  33.664  0.00  0.00    +0.000 S 
ATOM      5  C   UNL     1      33.494   1.240  34.149  0.00  0.00    +0.000 A 
ATOM      6  N   UNL     1      33.080   0.137  33.320  0.00  0.00    +0.000 NA
ATOM      7  C   UNL     1      33.734   1.262  35.532  0.00  0.00    +0.000 A 
ENDROOT
BRANCH   7   8
ATOM      8  C   UNL     1      33.546   0.005  36.267  0.00  0.00    +0.000 C 
ATOM      9  O   UNL     1      32.333  -0.303  36.655  0.00  0.00    +0.000 OA
ATOM     10  N   UNL     1      34.479  -0.962  36.642  0.00  0.00    +0.000 N 
ATOM     11  C   UNL     1      35.884  -1.024  36.427  0.00  0.00    +0.000 C 
ATOM     12  C   UNL     1      36.409  -2.439  36.325  0.00  0.00    +0.000 C 
ATOM     13  C   UNL     1      36.103  -3.224  37.605  0.00  0.00    +0.000 C 
ATOM     14  C   UNL     1      35.010  -2.501  38.380  0.00  0.00    +0.000 C 
ATOM     15  C   UNL     1      33.917  -2.139  37.398  0.00  0.00    +0.000 C 
ENDBRANCH   7   8
BRANCH   3  16
ATOM     16  C   UNL     1      34.614   4.893  35.389  0.00  0.00    +0.000 A 
ATOM     17  C   UNL     1      35.942   5.278  35.370  0.00  0.00    +0.000 A 
ATOM     18  C   UNL     1      36.339   6.576  35.583  0.00  0.00    +0.000 A 
ATOM     19  C   UNL     1      35.402   7.559  35.829  0.00  0.00    +0.000 A 
ATOM     20  C   UNL     1      34.076   7.185  35.849  0.00  0.00    +0.000 A 
ATOM     21  C   UNL     1      33.684   5.882  35.635  0.00  0.00    +0.000 A 
ENDBRANCH   3  16
TORSDOF 2
ENDMDL
MODEL 9
REMARK VINA RESULT:      -6.3     19.015     21.159
REMARK  Name = 
REMARK  2 active torsions:
REMARK  status: ('A' for Active; 'I' for Inactive)
REMARK    1  A    between atoms: C_3  and  C_4
REMARK    2  A    between atoms: C_13  and  C_14
REMARK                            x       y       z     vdW  Elec       q    Type
REMARK                         _______ _______ _______ _____ _____    ______ ____
ROOT
ATOM      1  C   UNL     1      30.202  21.616  27.006  0.00  0.00    +0.000 C 
ATOM      2  C   UNL     1      30.816  23.007  26.920  0.00  0.00    +0.000 A 
ATOM      3  C   UNL     1      31.581  23.365  28.005  0.00  0.00    +0.000 A 
ATOM      4  S   UNL     1      32.111  24.920  27.624  0.00  0.00    +0.000 S 
ATOM      5  C   UNL     1      31.368  25.103  26.106  0.00  0.00    +0.000 A 
ATOM      6  N   UNL     1      31.432  26.244  25.229  0.00  0.00    +0.000 NA
ATOM      7  C   UNL     1      30.689  23.887  25.923  0.00  0.00    +0.000 A 
ENDROOT
BRANCH   7   8
ATOM      8  C   UNL     1      29.930  23.722  24.678  0.00  0.00    +0.000 C 
ATOM      9  O   UNL     1      30.600  23.641  23.556  0.00  0.00    +0.000 OA
ATOM     10  N   UNL     1      28.552  23.632  24.474  0.00  0.00    +0.000 N 
ATOM     11  C   UNL     1      27.475  23.673  25.403  0.00  0.00    +0.000 C 
ATOM     12  C   UNL     1      26.272  22.874  24.955  0.00  0.00    +0.000 C 
ATOM     13  C   UNL     1      25.744  23.395  23.614  0.00  0.00    +0.000 C 
ATOM     14  C   UNL     1      26.825  24.237  22.949  0.00  0.00    +0.000 C 
ATOM     15  C   UNL     1      28.124  23.464  23.039  0.00  0.00    +0.000 C 
ENDBRANCH   7   8
BRANCH   3  16
ATOM     16  C   UNL     1      31.904  22.635  29.230  0.00  0.00    +0.000 A 
ATOM     17  C   UNL     1      31.008  22.573  30.282  0.00  0.00    +0.000 A 
ATOM     18  C   UNL     1      31.280  21.895  31.446  0.00  0.00    +0.000 A 
ATOM     19  C   UNL     1      32.484  21.241  31.606  0.00  0.00    +0.000 A 
ATOM     20  C   UNL     1      33.382  21.296  30.562  0.00  0.00    +0.000 A 
ATOM     21  C   UNL     1      33.105  21.977  29.398  0.00  0.00    +0.000 A 
ENDBRANCH   3  16
TORSDOF 2
ENDMDL
MODEL 10
REMARK VINA RESULT:      -6.1     21.718     23.049
REMARK  Name = 
REMARK  2 active torsions:
REMARK  status: ('A' for Active; 'I' for Inactive)
REMARK    1  A    between atoms: C_3  and  C_4
REMARK    2  A    between atoms: C_13  and  C_14
REMARK                            x       y       z     vdW  Elec       q    Type
REMARK                         _______ _______ _______ _____ _____    ______ ____
ROOT
ATOM      1  C   UNL     1      21.056  -9.624  26.513  0.00  0.00    +0.000 C 
ATOM      2  C   UNL     1      20.216  -8.355  26.442  0.00  0.00    +0.000 A 
ATOM      3  C   UNL     1      20.715  -7.383  25.607  0.00  0.00    +0.000 A 
ATOM      4  S   UNL     1      19.594  -6.130  25.738  0.00  0.00    +0.000 S 
ATOM      5  C   UNL     1      18.511  -6.840  26.839  0.00  0.00    +0.000 A 
ATOM      6  N   UNL     1      17.302  -6.268  27.375  0.00  0.00    +0.000 NA
ATOM      7  C   UNL     1      19.077  -8.100  27.092  0.00  0.00    +0.000 A 
ENDROOT
BRANCH   7   8
ATOM      8  C   UNL     1      18.366  -8.981  28.026  0.00  0.00    +0.000 C 
ATOM      9  O   UNL     1      18.793  -9.037  29.263  0.00  0.00    +0.000 OA
ATOM     10  N   UNL     1      17.263  -9.809  27.814  0.00  0.00    +0.000 N 
ATOM     11  C   UNL     1      16.499 -10.047  26.637  0.00  0.00    +0.000 C 
ATOM     12  C   UNL     1      15.056 -10.397  26.926  0.00  0.00    +0.000 C 
ATOM     13  C   UNL     1      14.968 -11.656  27.797  0.00  0.00    +0.000 C 
ATOM     14  C   UNL     1      16.319 -11.900  28.453  0.00  0.00    +0.000 C 
ATOM     15  C   UNL     1      16.795 -10.580  29.021  0.00  0.00    +0.000 C 
ENDBRANCH   7   8
BRANCH   3  16
ATOM     16  C   UNL     1      21.917  -7.362  24.775  0.00  0.00    +0.000 A 
ATOM     17  C   UNL     1      22.930  -6.448  25.004  0.00  0.00    +0.000 A 
ATOM     18  C   UNL     1      24.072  -6.402  24.242  0.00  0.00    +0.000 A 
ATOM     19  C   UNL     1      24.248  -7.287  23.198  0.00  0.00    +0.000 A 
ATOM     20  C   UNL     1      23.244  -8.202  22.962  0.00  0.00    +0.000 A 
ATOM     21  C   UNL     1      22.101  -8.243  23.730  0.00  0.00    +0.000 A 
ENDBRANCH   3  16
TORSDOF 2
ENDMDL
