MODEL 1
REMARK VINA RESULT:      -8.4      0.000      0.000
REMARK  Name = 
REMARK  7 active torsions:
REMARK  status: ('A' for Active; 'I' for Inactive)
REMARK    1  A    between atoms: C_5  and  O_6
REMARK    2  A    between atoms: O_6  and  C_7
REMARK    3  A    between atoms: C_7  and  C_8
REMARK    4  A    between atoms: N_10  and  C_11
REMARK    5  A    between atoms: C_15  and  C_16
REMARK    6  A    between atoms: N_18  and  C_19
REMARK    7  A    between atoms: C_19  and  C_20
REMARK                            x       y       z     vdW  Elec       q    Type
REMARK                         _______ _______ _______ _____ _____    ______ ____
ROOT
ATOM      1  C   UNL     1      36.236   2.234  15.781  0.00  0.00    +0.000 A 
ATOM      2  S   UNL     1      34.962   1.663  16.748  0.00  0.00    +0.000 S 
ATOM      3  C   UNL     1      35.163  -0.007  16.517  0.00  0.00    +0.000 A 
ATOM      4  C   UNL     1      36.237  -0.084  15.677  0.00  0.00    +0.000 A 
ATOM      5  C   UNL     1      36.805   1.085  15.285  0.00  0.00    +0.000 A 
ATOM      6  C   UNL     1      36.614  -1.521  15.317  0.00  0.00    +0.000 C 
ATOM      7  C   UNL     1      36.758  -2.230  16.646  0.00  0.00    +0.000 C 
ATOM      8  C   UNL     1      35.414  -2.371  17.271  0.00  0.00    +0.000 C 
ATOM      9  C   UNL     1      34.458  -1.252  17.011  0.00  0.00    +0.000 C 
ENDROOT
BRANCH   1  12
ATOM     10  C   UNL     1      37.551   4.189  16.438  0.00  0.00    +0.000 C 
ATOM     11  O   UNL     1      37.925   3.497  17.419  0.00  0.00    +0.000 OA
ATOM     12  N   UNL     1      36.651   3.598  15.513  0.00  0.00    +0.000 NA
BRANCH  10  13
ATOM     13  C   UNL     1      38.046   5.594  16.263  0.00  0.00    +0.000 C 
BRANCH  13  14
ATOM     14  O   UNL     1      38.248   6.149  17.526  0.00  0.00    +0.000 OA
BRANCH  14  19
ATOM     15  C   UNL     1      43.310   6.685  19.982  0.00  0.00    +0.000 C 
ATOM     16  C   UNL     1      41.955   6.547  19.392  0.00  0.00    +0.000 A 
ATOM     17  C   UNL     1      40.818   6.544  20.153  0.00  0.00    +0.000 A 
ATOM     18  C   UNL     1      39.572   6.411  19.549  0.00  0.00    +0.000 A 
ATOM     19  C   UNL     1      39.433   6.283  18.199  0.00  0.00    +0.000 A 
ATOM     20  C   UNL     1      40.590   6.287  17.429  0.00  0.00    +0.000 A 
ATOM     21  C   UNL     1      41.837   6.418  18.023  0.00  0.00    +0.000 A 
ENDBRANCH  14  19
ENDBRANCH  13  14
ENDBRANCH  10  13
ENDBRANCH   1  12
BRANCH   5  22
ATOM     22  C   UNL     1      37.984   1.111  14.369  0.00  0.00    +0.000 C 
ATOM     23  O   UNL     1      37.791   0.947  13.148  0.00  0.00    +0.000 OA
ATOM     24  N   UNL     1      39.304   1.309  14.809  0.00  0.00    +0.000 NA
BRANCH  24  25
ATOM     25  C   UNL     1      40.461   1.341  13.974  0.00  0.00    +0.000 C 
BRANCH  25  26
ATOM     26  C   UNL     1      41.324   0.156  14.055  0.00  0.00    +0.000 A 
ATOM     27  C   UNL     1      42.667   0.349  13.736  0.00  0.00    +0.000 A 
ATOM     28  C   UNL     1      43.601  -0.661  13.763  0.00  0.00    +0.000 A 
ATOM     29  C   UNL     1      43.162  -1.926  14.130  0.00  0.00    +0.000 A 
ATOM     30  C   UNL     1      41.834  -2.151  14.454  0.00  0.00    +0.000 A 
ATOM     31  C   UNL     1      40.925  -1.090  14.409  0.00  0.00    +0.000 A 
ENDBRANCH  25  26
ENDBRANCH  24  25
ENDBRANCH   5  22
TORSDOF 7
ENDMDL
MODEL 2
REMARK VINA RESULT:      -8.1      2.216      5.763
REMARK  Name = 
REMARK  7 active torsions:
REMARK  status: ('A' for Active; 'I' for Inactive)
REMARK    1  A    between atoms: C_5  and  O_6
REMARK    2  A    between atoms: O_6  and  C_7
REMARK    3  A    between atoms: C_7  and  C_8
REMARK    4  A    between atoms: N_10  and  C_11
REMARK    5  A    between atoms: C_15  and  C_16
REMARK    6  A    between atoms: N_18  and  C_19
REMARK    7  A    between atoms: C_19  and  C_20
REMARK                            x       y       z     vdW  Elec       q    Type
REMARK                         _______ _______ _______ _____ _____    ______ ____
ROOT
ATOM      1  C   UNL     1      40.481   0.350  14.275  0.00  0.00    +0.000 A 
ATOM      2  S   UNL     1      41.940   0.637  13.452  0.00  0.00    +0.000 S 
ATOM      3  C   UNL     1      42.311  -0.950  12.978  0.00  0.00    +0.000 A 
ATOM      4  C   UNL     1      41.272  -1.681  13.480  0.00  0.00    +0.000 A 
ATOM      5  C   UNL     1      40.309  -1.009  14.161  0.00  0.00    +0.000 A 
ATOM      6  C   UNL     1      41.389  -3.174  13.174  0.00  0.00    +0.000 C 
ATOM      7  C   UNL     1      41.594  -3.250  11.676  0.00  0.00    +0.000 C 
ATOM      8  C   UNL     1      42.945  -2.722  11.342  0.00  0.00    +0.000 C 
ATOM      9  C   UNL     1      43.435  -1.605  12.205  0.00  0.00    +0.000 C 
ENDROOT
BRANCH   1  12
ATOM     10  C   UNL     1      38.708   2.029  14.138  0.00  0.00    +0.000 C 
ATOM     11  O   UNL     1      38.735   1.828  12.897  0.00  0.00    +0.000 OA
ATOM     12  N   UNL     1      39.603   1.286  14.950  0.00  0.00    +0.000 NA
BRANCH  10  13
ATOM     13  C   UNL     1      37.756   3.027  14.728  0.00  0.00    +0.000 C 
BRANCH  13  14
ATOM     14  O   UNL     1      38.424   4.242  14.868  0.00  0.00    +0.000 OA
BRANCH  14  19
ATOM     15  C   UNL     1      40.318   6.294  19.782  0.00  0.00    +0.000 C 
ATOM     16  C   UNL     1      39.866   5.784  18.463  0.00  0.00    +0.000 A 
ATOM     17  C   UNL     1      40.509   6.093  17.295  0.00  0.00    +0.000 A 
ATOM     18  C   UNL     1      40.043   5.589  16.086  0.00  0.00    +0.000 A 
ATOM     19  C   UNL     1      38.947   4.780  16.013  0.00  0.00    +0.000 A 
ATOM     20  C   UNL     1      38.298   4.469  17.202  0.00  0.00    +0.000 A 
ATOM     21  C   UNL     1      38.755   4.968  18.413  0.00  0.00    +0.000 A 
ENDBRANCH  14  19
ENDBRANCH  13  14
ENDBRANCH  10  13
ENDBRANCH   1  12
BRANCH   5  22
ATOM     22  C   UNL     1      39.131  -1.715  14.748  0.00  0.00    +0.000 C 
ATOM     23  O   UNL     1      39.271  -2.289  15.846  0.00  0.00    +0.000 OA
ATOM     24  N   UNL     1      37.872  -1.769  14.127  0.00  0.00    +0.000 NA
BRANCH  24  25
ATOM     25  C   UNL     1      36.718  -2.431  14.647  0.00  0.00    +0.000 C 
BRANCH  25  26
ATOM     26  C   UNL     1      35.921  -1.645  15.596  0.00  0.00    +0.000 A 
ATOM     27  C   UNL     1      36.050  -0.260  15.511  0.00  0.00    +0.000 A 
ATOM     28  C   UNL     1      35.370   0.613  16.329  0.00  0.00    +0.000 A 
ATOM     29  C   UNL     1      34.520   0.065  17.280  0.00  0.00    +0.000 A 
ATOM     30  C   UNL     1      34.369  -1.308  17.391  0.00  0.00    +0.000 A 
ATOM     31  C   UNL     1      35.083  -2.151  16.535  0.00  0.00    +0.000 A 
ENDBRANCH  25  26
ENDBRANCH  24  25
ENDBRANCH   5  22
TORSDOF 7
ENDMDL
MODEL 3
REMARK VINA RESULT:      -7.8      2.119      2.690
REMARK  Name = 
REMARK  7 active torsions:
REMARK  status: ('A' for Active; 'I' for Inactive)
REMARK    1  A    between atoms: C_5  and  O_6
REMARK    2  A    between atoms: O_6  and  C_7
REMARK    3  A    between atoms: C_7  and  C_8
REMARK    4  A    between atoms: N_10  and  C_11
REMARK    5  A    between atoms: C_15  and  C_16
REMARK    6  A    between atoms: N_18  and  C_19
REMARK    7  A    between atoms: C_19  and  C_20
REMARK                            x       y       z     vdW  Elec       q    Type
REMARK                         _______ _______ _______ _____ _____    ______ ____
ROOT
ATOM      1  C   UNL     1      36.565   0.120  16.118  0.00  0.00    +0.000 A 
ATOM      2  S   UNL     1      35.124  -0.638  16.603  0.00  0.00    +0.000 S 
ATOM      3  C   UNL     1      35.338  -2.149  15.859  0.00  0.00    +0.000 A 
ATOM      4  C   UNL     1      36.549  -2.027  15.239  0.00  0.00    +0.000 A 
ATOM      5  C   UNL     1      37.199  -0.842  15.368  0.00  0.00    +0.000 A 
ATOM      6  C   UNL     1      36.964  -3.290  14.484  0.00  0.00    +0.000 C 
ATOM      7  C   UNL     1      36.845  -4.407  15.499  0.00  0.00    +0.000 C 
ATOM      8  C   UNL     1      35.406  -4.641  15.800  0.00  0.00    +0.000 C 
ATOM      9  C   UNL     1      34.534  -3.428  15.774  0.00  0.00    +0.000 C 
ENDROOT
BRANCH   1  12
ATOM     10  C   UNL     1      36.632   2.491  15.520  0.00  0.00    +0.000 C 
ATOM     11  O   UNL     1      35.885   2.179  14.558  0.00  0.00    +0.000 OA
ATOM     12  N   UNL     1      37.045   1.459  16.403  0.00  0.00    +0.000 NA
BRANCH  10  13
ATOM     13  C   UNL     1      37.067   3.913  15.717  0.00  0.00    +0.000 C 
BRANCH  13  14
ATOM     14  O   UNL     1      37.732   4.003  16.940  0.00  0.00    +0.000 OA
BRANCH  14  19
ATOM     15  C   UNL     1      42.030   7.280  18.590  0.00  0.00    +0.000 C 
ATOM     16  C   UNL     1      40.919   6.427  18.099  0.00  0.00    +0.000 A 
ATOM     17  C   UNL     1      40.736   6.150  16.772  0.00  0.00    +0.000 A 
ATOM     18  C   UNL     1      39.678   5.344  16.365  0.00  0.00    +0.000 A 
ATOM     19  C   UNL     1      38.795   4.804  17.254  0.00  0.00    +0.000 A 
ATOM     20  C   UNL     1      38.986   5.088  18.602  0.00  0.00    +0.000 A 
ATOM     21  C   UNL     1      40.038   5.892  19.016  0.00  0.00    +0.000 A 
ENDBRANCH  14  19
ENDBRANCH  13  14
ENDBRANCH  10  13
ENDBRANCH   1  12
BRANCH   5  22
ATOM     22  C   UNL     1      38.529  -0.608  14.730  0.00  0.00    +0.000 C 
ATOM     23  O   UNL     1      39.548  -0.660  15.446  0.00  0.00    +0.000 OA
ATOM     24  N   UNL     1      38.694  -0.331  13.362  0.00  0.00    +0.000 NA
BRANCH  24  25
ATOM     25  C   UNL     1      39.941  -0.101  12.707  0.00  0.00    +0.000 C 
BRANCH  25  26
ATOM     26  C   UNL     1      40.588  -1.297  12.154  0.00  0.00    +0.000 A 
ATOM     27  C   UNL     1      40.041  -1.806  10.978  0.00  0.00    +0.000 A 
ATOM     28  C   UNL     1      40.532  -2.920  10.338  0.00  0.00    +0.000 A 
ATOM     29  C   UNL     1      41.628  -3.552  10.909  0.00  0.00    +0.000 A 
ATOM     30  C   UNL     1      42.197  -3.071  12.077  0.00  0.00    +0.000 A 
ATOM     31  C   UNL     1      41.658  -1.935  12.689  0.00  0.00    +0.000 A 
ENDBRANCH  25  26
ENDBRANCH  24  25
ENDBRANCH   5  22
TORSDOF 7
ENDMDL
MODEL 4
REMARK VINA RESULT:      -7.8      4.097      8.021
REMARK  Name = 
REMARK  7 active torsions:
REMARK  status: ('A' for Active; 'I' for Inactive)
REMARK    1  A    between atoms: C_5  and  O_6
REMARK    2  A    between atoms: O_6  and  C_7
REMARK    3  A    between atoms: C_7  and  C_8
REMARK    4  A    between atoms: N_10  and  C_11
REMARK    5  A    between atoms: C_15  and  C_16
REMARK    6  A    between atoms: N_18  and  C_19
REMARK    7  A    between atoms: C_19  and  C_20
REMARK                            x       y       z     vdW  Elec       q    Type
REMARK                         _______ _______ _______ _____ _____    ______ ____
ROOT
ATOM      1  C   UNL     1      37.760   0.267  14.081  0.00  0.00    +0.000 A 
ATOM      2  S   UNL     1      37.625  -1.401  14.377  0.00  0.00    +0.000 S 
ATOM      3  C   UNL     1      36.738  -1.357  15.824  0.00  0.00    +0.000 A 
ATOM      4  C   UNL     1      36.563  -0.021  16.048  0.00  0.00    +0.000 A 
ATOM      5  C   UNL     1      37.096   0.837  15.141  0.00  0.00    +0.000 A 
ATOM      6  C   UNL     1      35.775   0.274  17.324  0.00  0.00    +0.000 C 
ATOM      7  C   UNL     1      34.512  -0.551  17.200  0.00  0.00    +0.000 C 
ATOM      8  C   UNL     1      34.856  -1.993  17.332  0.00  0.00    +0.000 C 
ATOM      9  C   UNL     1      36.184  -2.395  16.775  0.00  0.00    +0.000 C 
ENDROOT
BRANCH   1  12
ATOM     10  C   UNL     1      37.682   1.094  11.780  0.00  0.00    +0.000 C 
ATOM     11  O   UNL     1      36.523   0.606  11.739  0.00  0.00    +0.000 OA
ATOM     12  N   UNL     1      38.415   0.960  12.988  0.00  0.00    +0.000 NA
BRANCH  10  13
ATOM     13  C   UNL     1      38.259   1.790  10.584  0.00  0.00    +0.000 C 
BRANCH  13  14
ATOM     14  O   UNL     1      37.291   2.650  10.067  0.00  0.00    +0.000 OA
BRANCH  14  19
ATOM     15  C   UNL     1      35.155   3.146   4.859  0.00  0.00    +0.000 C 
ATOM     16  C   UNL     1      35.739   2.962   6.211  0.00  0.00    +0.000 A 
ATOM     17  C   UNL     1      36.460   1.852   6.555  0.00  0.00    +0.000 A 
ATOM     18  C   UNL     1      36.985   1.729   7.837  0.00  0.00    +0.000 A 
ATOM     19  C   UNL     1      36.810   2.691   8.787  0.00  0.00    +0.000 A 
ATOM     20  C   UNL     1      36.077   3.818   8.432  0.00  0.00    +0.000 A 
ATOM     21  C   UNL     1      35.548   3.949   7.156  0.00  0.00    +0.000 A 
ENDBRANCH  14  19
ENDBRANCH  13  14
ENDBRANCH  10  13
ENDBRANCH   1  12
BRANCH   5  22
ATOM     22  C   UNL     1      36.960   2.317  15.293  0.00  0.00    +0.000 C 
ATOM     23  O   UNL     1      36.052   2.897  14.667  0.00  0.00    +0.000 OA
ATOM     24  N   UNL     1      37.803   3.093  16.107  0.00  0.00    +0.000 NA
BRANCH  24  25
ATOM     25  C   UNL     1      37.714   4.507  16.285  0.00  0.00    +0.000 C 
BRANCH  25  26
ATOM     26  C   UNL     1      38.799   5.109  17.069  0.00  0.00    +0.000 A 
ATOM     27  C   UNL     1      39.889   5.589  16.346  0.00  0.00    +0.000 A 
ATOM     28  C   UNL     1      40.984   6.178  16.935  0.00  0.00    +0.000 A 
ATOM     29  C   UNL     1      40.981   6.290  18.319  0.00  0.00    +0.000 A 
ATOM     30  C   UNL     1      39.912   5.823  19.067  0.00  0.00    +0.000 A 
ATOM     31  C   UNL     1      38.824   5.231  18.419  0.00  0.00    +0.000 A 
ENDBRANCH  25  26
ENDBRANCH  24  25
ENDBRANCH   5  22
TORSDOF 7
ENDMDL
MODEL 5
REMARK VINA RESULT:      -7.6      4.284      6.683
REMARK  Name = 
REMARK  7 active torsions:
REMARK  status: ('A' for Active; 'I' for Inactive)
REMARK    1  A    between atoms: C_5  and  O_6
REMARK    2  A    between atoms: O_6  and  C_7
REMARK    3  A    between atoms: C_7  and  C_8
REMARK    4  A    between atoms: N_10  and  C_11
REMARK    5  A    between atoms: C_15  and  C_16
REMARK    6  A    between atoms: N_18  and  C_19
REMARK    7  A    between atoms: C_19  and  C_20
REMARK                            x       y       z     vdW  Elec       q    Type
REMARK                         _______ _______ _______ _____ _____    ______ ____
ROOT
ATOM      1  C   UNL     1      37.195   1.567  13.384  0.00  0.00    +0.000 A 
ATOM      2  S   UNL     1      37.620   2.614  12.115  0.00  0.00    +0.000 S 
ATOM      3  C   UNL     1      39.130   1.956  11.704  0.00  0.00    +0.000 A 
ATOM      4  C   UNL     1      39.272   0.917  12.579  0.00  0.00    +0.000 A 
ATOM      5  C   UNL     1      38.264   0.706  13.464  0.00  0.00    +0.000 A 
ATOM      6  C   UNL     1      40.586   0.157  12.399  0.00  0.00    +0.000 C 
ATOM      7  C   UNL     1      40.629  -0.201  10.929  0.00  0.00    +0.000 C 
ATOM      8  C   UNL     1      40.834   1.038  10.130  0.00  0.00    +0.000 C 
ATOM      9  C   UNL     1      40.197   2.274  10.679  0.00  0.00    +0.000 C 
ENDROOT
BRANCH   1  12
ATOM     10  C   UNL     1      35.921   2.536  15.234  0.00  0.00    +0.000 C 
ATOM     11  O   UNL     1      36.879   3.342  15.355  0.00  0.00    +0.000 OA
ATOM     12  N   UNL     1      36.003   1.556  14.211  0.00  0.00    +0.000 NA
BRANCH  10  13
ATOM     13  C   UNL     1      34.736   2.618  16.150  0.00  0.00    +0.000 C 
BRANCH  13  14
ATOM     14  O   UNL     1      34.354   1.321  16.490  0.00  0.00    +0.000 OA
BRANCH  14  19
ATOM     15  C   UNL     1      37.418  -2.193  19.684  0.00  0.00    +0.000 C 
ATOM     16  C   UNL     1      36.595  -1.317  18.812  0.00  0.00    +0.000 A 
ATOM     17  C   UNL     1      35.856  -1.804  17.769  0.00  0.00    +0.000 A 
ATOM     18  C   UNL     1      35.103  -0.940  16.982  0.00  0.00    +0.000 A 
ATOM     19  C   UNL     1      35.067   0.404  17.213  0.00  0.00    +0.000 A 
ATOM     20  C   UNL     1      35.819   0.894  18.274  0.00  0.00    +0.000 A 
ATOM     21  C   UNL     1      36.574   0.039  19.064  0.00  0.00    +0.000 A 
ENDBRANCH  14  19
ENDBRANCH  13  14
ENDBRANCH  10  13
ENDBRANCH   1  12
BRANCH   5  22
ATOM     22  C   UNL     1      38.321  -0.403  14.462  0.00  0.00    +0.000 C 
ATOM     23  O   UNL     1      38.322  -0.111  15.674  0.00  0.00    +0.000 OA
ATOM     24  N   UNL     1      38.376  -1.762  14.108  0.00  0.00    +0.000 NA
BRANCH  24  25
ATOM     25  C   UNL     1      38.432  -2.856  15.024  0.00  0.00    +0.000 C 
BRANCH  25  26
ATOM     26  C   UNL     1      37.195  -3.638  15.141  0.00  0.00    +0.000 A 
ATOM     27  C   UNL     1      37.194  -4.650  16.100  0.00  0.00    +0.000 A 
ATOM     28  C   UNL     1      36.113  -5.469  16.330  0.00  0.00    +0.000 A 
ATOM     29  C   UNL     1      34.979  -5.261  15.558  0.00  0.00    +0.000 A 
ATOM     30  C   UNL     1      34.947  -4.264  14.596  0.00  0.00    +0.000 A 
ATOM     31  C   UNL     1      36.073  -3.458  14.401  0.00  0.00    +0.000 A 
ENDBRANCH  25  26
ENDBRANCH  24  25
ENDBRANCH   5  22
TORSDOF 7
ENDMDL
MODEL 6
REMARK VINA RESULT:      -7.5      2.351      8.150
REMARK  Name = 
REMARK  7 active torsions:
REMARK  status: ('A' for Active; 'I' for Inactive)
REMARK    1  A    between atoms: C_5  and  O_6
REMARK    2  A    between atoms: O_6  and  C_7
REMARK    3  A    between atoms: C_7  and  C_8
REMARK    4  A    between atoms: N_10  and  C_11
REMARK    5  A    between atoms: C_15  and  C_16
REMARK    6  A    between atoms: N_18  and  C_19
REMARK    7  A    between atoms: C_19  and  C_20
REMARK                            x       y       z     vdW  Elec       q    Type
REMARK                         _______ _______ _______ _____ _____    ______ ____
ROOT
ATOM      1  C   UNL     1      38.783   3.432  14.483  0.00  0.00    +0.000 A 
ATOM      2  S   UNL     1      40.112   4.489  14.447  0.00  0.00    +0.000 S 
ATOM      3  C   UNL     1      39.833   5.339  15.890  0.00  0.00    +0.000 A 
ATOM      4  C   UNL     1      38.690   4.770  16.376  0.00  0.00    +0.000 A 
ATOM      5  C   UNL     1      38.133   3.771  15.646  0.00  0.00    +0.000 A 
ATOM      6  C   UNL     1      38.231   5.385  17.698  0.00  0.00    +0.000 C 
ATOM      7  C   UNL     1      39.443   5.317  18.601  0.00  0.00    +0.000 C 
ATOM      8  C   UNL     1      40.470   6.278  18.111  0.00  0.00    +0.000 C 
ATOM      9  C   UNL     1      40.531   6.460  16.629  0.00  0.00    +0.000 C 
ENDROOT
BRANCH   1  12
ATOM     10  C   UNL     1      38.850   1.089  13.783  0.00  0.00    +0.000 C 
ATOM     11  O   UNL     1      39.558   0.896  14.805  0.00  0.00    +0.000 OA
ATOM     12  N   UNL     1      38.392   2.408  13.532  0.00  0.00    +0.000 NA
BRANCH  10  13
ATOM     13  C   UNL     1      38.509  -0.048  12.867  0.00  0.00    +0.000 C 
BRANCH  13  14
ATOM     14  O   UNL     1      39.148  -1.196  13.335  0.00  0.00    +0.000 OA
BRANCH  14  19
ATOM     15  C   UNL     1      42.735  -4.338  10.303  0.00  0.00    +0.000 C 
ATOM     16  C   UNL     1      41.827  -3.523  11.148  0.00  0.00    +0.000 A 
ATOM     17  C   UNL     1      42.049  -3.321  12.483  0.00  0.00    +0.000 A 
ATOM     18  C   UNL     1      41.166  -2.548  13.230  0.00  0.00    +0.000 A 
ATOM     19  C   UNL     1      40.064  -1.969  12.674  0.00  0.00    +0.000 A 
ATOM     20  C   UNL     1      39.843  -2.177  11.318  0.00  0.00    +0.000 A 
ATOM     21  C   UNL     1      40.717  -2.947  10.565  0.00  0.00    +0.000 A 
ENDBRANCH  14  19
ENDBRANCH  13  14
ENDBRANCH  10  13
ENDBRANCH   1  12
BRANCH   5  22
ATOM     22  C   UNL     1      36.884   3.083  16.090  0.00  0.00    +0.000 C 
ATOM     23  O   UNL     1      35.786   3.559  15.738  0.00  0.00    +0.000 OA
ATOM     24  N   UNL     1      36.878   1.925  16.887  0.00  0.00    +0.000 NA
BRANCH  24  25
ATOM     25  C   UNL     1      35.713   1.233  17.336  0.00  0.00    +0.000 C 
BRANCH  25  26
ATOM     26  C   UNL     1      35.537  -0.117  16.788  0.00  0.00    +0.000 A 
ATOM     27  C   UNL     1      34.549  -0.900  17.383  0.00  0.00    +0.000 A 
ATOM     28  C   UNL     1      34.263  -2.185  16.984  0.00  0.00    +0.000 A 
ATOM     29  C   UNL     1      35.007  -2.708  15.934  0.00  0.00    +0.000 A 
ATOM     30  C   UNL     1      35.996  -1.956  15.321  0.00  0.00    +0.000 A 
ATOM     31  C   UNL     1      36.247  -0.654  15.765  0.00  0.00    +0.000 A 
ENDBRANCH  25  26
ENDBRANCH  24  25
ENDBRANCH   5  22
TORSDOF 7
ENDMDL
MODEL 7
REMARK VINA RESULT:      -7.5      1.250      1.785
REMARK  Name = 
REMARK  7 active torsions:
REMARK  status: ('A' for Active; 'I' for Inactive)
REMARK    1  A    between atoms: C_5  and  O_6
REMARK    2  A    between atoms: O_6  and  C_7
REMARK    3  A    between atoms: C_7  and  C_8
REMARK    4  A    between atoms: N_10  and  C_11
REMARK    5  A    between atoms: C_15  and  C_16
REMARK    6  A    between atoms: N_18  and  C_19
REMARK    7  A    between atoms: C_19  and  C_20
REMARK                            x       y       z     vdW  Elec       q    Type
REMARK                         _______ _______ _______ _____ _____    ______ ____
ROOT
ATOM      1  C   UNL     1      36.057   2.018  15.619  0.00  0.00    +0.000 A 
ATOM      2  S   UNL     1      34.951   1.427  16.766  0.00  0.00    +0.000 S 
ATOM      3  C   UNL     1      35.130  -0.239  16.495  0.00  0.00    +0.000 A 
ATOM      4  C   UNL     1      36.064  -0.299  15.500  0.00  0.00    +0.000 A 
ATOM      5  C   UNL     1      36.555   0.878  15.035  0.00  0.00    +0.000 A 
ATOM      6  C   UNL     1      36.395  -1.730  15.076  0.00  0.00    +0.000 C 
ATOM      7  C   UNL     1      36.747  -2.446  16.362  0.00  0.00    +0.000 C 
ATOM      8  C   UNL     1      35.515  -2.605  17.184  0.00  0.00    +0.000 C 
ATOM      9  C   UNL     1      34.521  -1.494  17.081  0.00  0.00    +0.000 C 
ENDROOT
BRANCH   1  12
ATOM     10  C   UNL     1      37.399   4.001  16.119  0.00  0.00    +0.000 C 
ATOM     11  O   UNL     1      37.893   3.322  17.056  0.00  0.00    +0.000 OA
ATOM     12  N   UNL     1      36.414   3.387  15.302  0.00  0.00    +0.000 NA
BRANCH  10  13
ATOM     13  C   UNL     1      37.845   5.414  15.884  0.00  0.00    +0.000 C 
BRANCH  13  14
ATOM     14  O   UNL     1      38.788   5.744  16.856  0.00  0.00    +0.000 OA
BRANCH  14  19
ATOM     15  C   UNL     1      38.554   9.481  21.090  0.00  0.00    +0.000 C 
ATOM     16  C   UNL     1      38.583   8.537  19.944  0.00  0.00    +0.000 A 
ATOM     17  C   UNL     1      37.988   8.819  18.744  0.00  0.00    +0.000 A 
ATOM     18  C   UNL     1      38.045   7.900  17.702  0.00  0.00    +0.000 A 
ATOM     19  C   UNL     1      38.685   6.702  17.828  0.00  0.00    +0.000 A 
ATOM     20  C   UNL     1      39.288   6.420  19.049  0.00  0.00    +0.000 A 
ATOM     21  C   UNL     1      39.236   7.331  20.094  0.00  0.00    +0.000 A 
ENDBRANCH  14  19
ENDBRANCH  13  14
ENDBRANCH  10  13
ENDBRANCH   1  12
BRANCH   5  22
ATOM     22  C   UNL     1      37.580   0.921  13.949  0.00  0.00    +0.000 C 
ATOM     23  O   UNL     1      37.191   0.884  12.765  0.00  0.00    +0.000 OA
ATOM     24  N   UNL     1      38.962   1.000  14.191  0.00  0.00    +0.000 NA
BRANCH  24  25
ATOM     25  C   UNL     1      39.978   1.043  13.189  0.00  0.00    +0.000 C 
BRANCH  25  26
ATOM     26  C   UNL     1      41.239   0.381  13.547  0.00  0.00    +0.000 A 
ATOM     27  C   UNL     1      42.408   1.078  13.247  0.00  0.00    +0.000 A 
ATOM     28  C   UNL     1      43.666   0.592  13.520  0.00  0.00    +0.000 A 
ATOM     29  C   UNL     1      43.751  -0.655  14.124  0.00  0.00    +0.000 A 
ATOM     30  C   UNL     1      42.608  -1.373  14.435  0.00  0.00    +0.000 A 
ATOM     31  C   UNL     1      41.353  -0.835  14.137  0.00  0.00    +0.000 A 
ENDBRANCH  25  26
ENDBRANCH  24  25
ENDBRANCH   5  22
TORSDOF 7
ENDMDL
MODEL 8
REMARK VINA RESULT:      -7.5      2.384      5.257
REMARK  Name = 
REMARK  7 active torsions:
REMARK  status: ('A' for Active; 'I' for Inactive)
REMARK    1  A    between atoms: C_5  and  O_6
REMARK    2  A    between atoms: O_6  and  C_7
REMARK    3  A    between atoms: C_7  and  C_8
REMARK    4  A    between atoms: N_10  and  C_11
REMARK    5  A    between atoms: C_15  and  C_16
REMARK    6  A    between atoms: N_18  and  C_19
REMARK    7  A    between atoms: C_19  and  C_20
REMARK                            x       y       z     vdW  Elec       q    Type
REMARK                         _______ _______ _______ _____ _____    ______ ____
ROOT
ATOM      1  C   UNL     1      39.835   0.970  14.373  0.00  0.00    +0.000 A 
ATOM      2  S   UNL     1      41.332   0.728  13.608  0.00  0.00    +0.000 S 
ATOM      3  C   UNL     1      41.151  -0.895  13.146  0.00  0.00    +0.000 A 
ATOM      4  C   UNL     1      39.907  -1.218  13.606  0.00  0.00    +0.000 A 
ATOM      5  C   UNL     1      39.210  -0.248  14.251  0.00  0.00    +0.000 A 
ATOM      6  C   UNL     1      39.513  -2.664  13.302  0.00  0.00    +0.000 C 
ATOM      7  C   UNL     1      39.734  -2.823  11.813  0.00  0.00    +0.000 C 
ATOM      8  C   UNL     1      41.196  -2.796  11.531  0.00  0.00    +0.000 C 
ATOM      9  C   UNL     1      42.008  -1.905  12.415  0.00  0.00    +0.000 C 
ENDROOT
BRANCH   1  12
ATOM     10  C   UNL     1      38.621   3.086  14.191  0.00  0.00    +0.000 C 
ATOM     11  O   UNL     1      38.514   2.817  12.967  0.00  0.00    +0.000 OA
ATOM     12  N   UNL     1      39.309   2.159  15.017  0.00  0.00    +0.000 NA
BRANCH  10  13
ATOM     13  C   UNL     1      38.037   4.350  14.748  0.00  0.00    +0.000 C 
BRANCH  13  14
ATOM     14  O   UNL     1      39.082   5.226  15.038  0.00  0.00    +0.000 OA
BRANCH  14  19
ATOM     15  C   UNL     1      40.872   6.382  20.272  0.00  0.00    +0.000 C 
ATOM     16  C   UNL     1      40.452   6.105  18.876  0.00  0.00    +0.000 A 
ATOM     17  C   UNL     1      41.205   6.473  17.795  0.00  0.00    +0.000 A 
ATOM     18  C   UNL     1      40.765   6.189  16.507  0.00  0.00    +0.000 A 
ATOM     19  C   UNL     1      39.587   5.544  16.270  0.00  0.00    +0.000 A 
ATOM     20  C   UNL     1      38.825   5.172  17.372  0.00  0.00    +0.000 A 
ATOM     21  C   UNL     1      39.256   5.452  18.660  0.00  0.00    +0.000 A 
ENDBRANCH  14  19
ENDBRANCH  13  14
ENDBRANCH  10  13
ENDBRANCH   1  12
BRANCH   5  22
ATOM     22  C   UNL     1      37.840  -0.499  14.791  0.00  0.00    +0.000 C 
ATOM     23  O   UNL     1      36.863  -0.038  14.169  0.00  0.00    +0.000 OA
ATOM     24  N   UNL     1      37.593  -1.229  15.966  0.00  0.00    +0.000 NA
BRANCH  24  25
ATOM     25  C   UNL     1      36.305  -1.495  16.522  0.00  0.00    +0.000 C 
BRANCH  25  26
ATOM     26  C   UNL     1      35.614  -2.666  15.967  0.00  0.00    +0.000 A 
ATOM     27  C   UNL     1      36.415  -3.605  15.320  0.00  0.00    +0.000 A 
ATOM     28  C   UNL     1      35.918  -4.754  14.748  0.00  0.00    +0.000 A 
ATOM     29  C   UNL     1      34.549  -4.967  14.832  0.00  0.00    +0.000 A 
ATOM     30  C   UNL     1      33.725  -4.053  15.468  0.00  0.00    +0.000 A 
ATOM     31  C   UNL     1      34.280  -2.901  16.033  0.00  0.00    +0.000 A 
ENDBRANCH  25  26
ENDBRANCH  24  25
ENDBRANCH   5  22
TORSDOF 7
ENDMDL
MODEL 9
REMARK VINA RESULT:      -7.5      3.683      8.054
REMARK  Name = 
REMARK  7 active torsions:
REMARK  status: ('A' for Active; 'I' for Inactive)
REMARK    1  A    between atoms: C_5  and  O_6
REMARK    2  A    between atoms: O_6  and  C_7
REMARK    3  A    between atoms: C_7  and  C_8
REMARK    4  A    between atoms: N_10  and  C_11
REMARK    5  A    between atoms: C_15  and  C_16
REMARK    6  A    between atoms: N_18  and  C_19
REMARK    7  A    between atoms: C_19  and  C_20
REMARK                            x       y       z     vdW  Elec       q    Type
REMARK                         _______ _______ _______ _____ _____    ______ ____
ROOT
ATOM      1  C   UNL     1      38.836   3.376  14.589  0.00  0.00    +0.000 A 
ATOM      2  S   UNL     1      39.701   4.733  14.045  0.00  0.00    +0.000 S 
ATOM      3  C   UNL     1      38.404   5.777  13.713  0.00  0.00    +0.000 A 
ATOM      4  C   UNL     1      37.307   5.032  14.039  0.00  0.00    +0.000 A 
ATOM      5  C   UNL     1      37.523   3.772  14.498  0.00  0.00    +0.000 A 
ATOM      6  C   UNL     1      35.990   5.776  13.818  0.00  0.00    +0.000 C 
ATOM      7  C   UNL     1      36.152   7.083  14.564  0.00  0.00    +0.000 C 
ATOM      8  C   UNL     1      37.151   7.929  13.855  0.00  0.00    +0.000 C 
ATOM      9  C   UNL     1      38.269   7.191  13.192  0.00  0.00    +0.000 C 
ENDROOT
BRANCH   1  12
ATOM     10  C   UNL     1      39.619   1.123  14.044  0.00  0.00    +0.000 C 
ATOM     11  O   UNL     1      39.432   1.444  12.843  0.00  0.00    +0.000 OA
ATOM     12  N   UNL     1      39.329   2.089  15.043  0.00  0.00    +0.000 NA
BRANCH  10  13
ATOM     13  C   UNL     1      40.133  -0.241  14.398  0.00  0.00    +0.000 C 
BRANCH  13  14
ATOM     14  O   UNL     1      39.319  -1.190  13.780  0.00  0.00    +0.000 OA
BRANCH  14  19
ATOM     15  C   UNL     1      36.663  -5.355  16.524  0.00  0.00    +0.000 C 
ATOM     16  C   UNL     1      37.322  -4.268  15.757  0.00  0.00    +0.000 A 
ATOM     17  C   UNL     1      36.893  -3.878  14.518  0.00  0.00    +0.000 A 
ATOM     18  C   UNL     1      37.547  -2.854  13.842  0.00  0.00    +0.000 A 
ATOM     19  C   UNL     1      38.622  -2.205  14.375  0.00  0.00    +0.000 A 
ATOM     20  C   UNL     1      39.053  -2.605  15.635  0.00  0.00    +0.000 A 
ATOM     21  C   UNL     1      38.408  -3.627  16.316  0.00  0.00    +0.000 A 
ENDBRANCH  14  19
ENDBRANCH  13  14
ENDBRANCH  10  13
ENDBRANCH   1  12
BRANCH   5  22
ATOM     22  C   UNL     1      36.391   2.877  14.883  0.00  0.00    +0.000 C 
ATOM     23  O   UNL     1      35.842   2.199  13.992  0.00  0.00    +0.000 OA
ATOM     24  N   UNL     1      35.911   2.757  16.198  0.00  0.00    +0.000 NA
BRANCH  24  25
ATOM     25  C   UNL     1      34.833   1.917  16.614  0.00  0.00    +0.000 C 
BRANCH  25  26
ATOM     26  C   UNL     1      35.232   0.622  17.179  0.00  0.00    +0.000 A 
ATOM     27  C   UNL     1      36.020   0.668  18.328  0.00  0.00    +0.000 A 
ATOM     28  C   UNL     1      36.474  -0.458  18.976  0.00  0.00    +0.000 A 
ATOM     29  C   UNL     1      36.119  -1.689  18.441  0.00  0.00    +0.000 A 
ATOM     30  C   UNL     1      35.337  -1.769  17.300  0.00  0.00    +0.000 A 
ATOM     31  C   UNL     1      34.902  -0.595  16.679  0.00  0.00    +0.000 A 
ENDBRANCH  25  26
ENDBRANCH  24  25
ENDBRANCH   5  22
TORSDOF 7
ENDMDL
MODEL 10
REMARK VINA RESULT:      -7.4      2.621      3.643
REMARK  Name = 
REMARK  7 active torsions:
REMARK  status: ('A' for Active; 'I' for Inactive)
REMARK    1  A    between atoms: C_5  and  O_6
REMARK    2  A    between atoms: O_6  and  C_7
REMARK    3  A    between atoms: C_7  and  C_8
REMARK    4  A    between atoms: N_10  and  C_11
REMARK    5  A    between atoms: C_15  and  C_16
REMARK    6  A    between atoms: N_18  and  C_19
REMARK    7  A    between atoms: C_19  and  C_20
REMARK                            x       y       z     vdW  Elec       q    Type
REMARK                         _______ _______ _______ _____ _____    ______ ____
ROOT
ATOM      1  C   UNL     1      36.628   1.186  16.249  0.00  0.00    +0.000 A 
ATOM      2  S   UNL     1      35.333   0.536  17.136  0.00  0.00    +0.000 S 
ATOM      3  C   UNL     1      35.279  -1.018  16.454  0.00  0.00    +0.000 A 
ATOM      4  C   UNL     1      36.290  -0.995  15.536  0.00  0.00    +0.000 A 
ATOM      5  C   UNL     1      37.002   0.155  15.421  0.00  0.00    +0.000 A 
ATOM      6  C   UNL     1      36.438  -2.314  14.777  0.00  0.00    +0.000 C 
ATOM      7  C   UNL     1      36.541  -3.373  15.853  0.00  0.00    +0.000 C 
ATOM      8  C   UNL     1      35.222  -3.510  16.530  0.00  0.00    +0.000 C 
ATOM      9  C   UNL     1      34.427  -2.251  16.658  0.00  0.00    +0.000 C 
ENDROOT
BRANCH   1  12
ATOM     10  C   UNL     1      36.753   3.474  15.392  0.00  0.00    +0.000 C 
ATOM     11  O   UNL     1      35.860   3.123  14.579  0.00  0.00    +0.000 OA
ATOM     12  N   UNL     1      37.223   2.507  16.319  0.00  0.00    +0.000 NA
BRANCH  10  13
ATOM     13  C   UNL     1      37.297   4.872  15.372  0.00  0.00    +0.000 C 
BRANCH  13  14
ATOM     14  O   UNL     1      38.429   4.914  16.185  0.00  0.00    +0.000 OA
BRANCH  14  19
ATOM     15  C   UNL     1      39.032   8.348  20.633  0.00  0.00    +0.000 C 
ATOM     16  C   UNL     1      38.911   7.407  19.491  0.00  0.00    +0.000 A 
ATOM     17  C   UNL     1      39.550   6.198  19.465  0.00  0.00    +0.000 A 
ATOM     18  C   UNL     1      39.403   5.352  18.370  0.00  0.00    +0.000 A 
ATOM     19  C   UNL     1      38.628   5.685  17.298  0.00  0.00    +0.000 A 
ATOM     20  C   UNL     1      37.979   6.914  17.330  0.00  0.00    +0.000 A 
ATOM     21  C   UNL     1      38.122   7.764  18.418  0.00  0.00    +0.000 A 
ENDBRANCH  14  19
ENDBRANCH  13  14
ENDBRANCH  10  13
ENDBRANCH   1  12
BRANCH   5  22
ATOM     22  C   UNL     1      38.127   0.282  14.447  0.00  0.00    +0.000 C 
ATOM     23  O   UNL     1      39.294   0.271  14.885  0.00  0.00    +0.000 OA
ATOM     24  N   UNL     1      37.941   0.415  13.061  0.00  0.00    +0.000 NA
BRANCH  24  25
ATOM     25  C   UNL     1      38.982   0.539  12.092  0.00  0.00    +0.000 C 
BRANCH  25  26
ATOM     26  C   UNL     1      38.535   0.853  10.729  0.00  0.00    +0.000 A 
ATOM     27  C   UNL     1      37.204   1.242  10.591  0.00  0.00    +0.000 A 
ATOM     28  C   UNL     1      36.635   1.567   9.382  0.00  0.00    +0.000 A 
ATOM     29  C   UNL     1      37.445   1.498   8.257  0.00  0.00    +0.000 A 
ATOM     30  C   UNL     1      38.773   1.115   8.359  0.00  0.00    +0.000 A 
ATOM     31  C   UNL     1      39.302   0.794   9.612  0.00  0.00    +0.000 A 
ENDBRANCH  25  26
ENDBRANCH  24  25
ENDBRANCH   5  22
TORSDOF 7
ENDMDL
