MODEL 1
REMARK VINA RESULT:      -5.9      0.000      0.000
REMARK  Name = 
REMARK  4 active torsions:
REMARK  status: ('A' for Active; 'I' for Inactive)
REMARK    1  A    between atoms: C_2  and  O_3
REMARK    2  A    between atoms: O_3  and  C_4
REMARK    3  A    between atoms: C_4  and  C_6
REMARK    4  A    between atoms: C_17  and  C_18
REMARK                            x       y       z     vdW  Elec       q    Type
REMARK                         _______ _______ _______ _____ _____    ______ ____
ROOT
ATOM      1  C   UNL     1      26.346  23.784  24.943  0.00  0.00    +0.000 C 
ATOM      2  C   UNL     1      25.555  24.674  25.426  0.00  0.00    +0.000 C 
ATOM      3  N   UNL     1      24.834  25.537  24.528  0.00  0.00    +0.000 NA
ATOM      4  O   UNL     1      25.337  24.874  26.772  0.00  0.00    +0.000 OA
ATOM      5  C   UNL     1      26.027  24.050  27.643  0.00  0.00    +0.000 A 
ATOM      6  C   UNL     1      25.784  24.278  29.015  0.00  0.00    +0.000 A 
ATOM      7  C   UNL     1      26.446  23.484  29.926  0.00  0.00    +0.000 A 
ATOM      8  O   UNL     1      26.221  23.693  31.269  0.00  0.00    +0.000 OA
ATOM      9  C   UNL     1      27.320  22.496  29.489  0.00  0.00    +0.000 A 
ATOM     10  C   UNL     1      27.550  22.281  28.157  0.00  0.00    +0.000 A 
ATOM     11  C   UNL     1      26.868  23.098  27.231  0.00  0.00    +0.000 A 
ATOM     12  C   UNL     1      27.180  22.795  25.750  0.00  0.00    +0.000 C 
ENDROOT
BRANCH  12  13
ATOM     13  C   UNL     1      28.606  23.627  25.644  0.00  0.00    +0.000 C 
ATOM     14  C   UNL     1      29.647  22.663  25.280  0.00  0.00    +0.000 C 
ATOM     15  C   UNL     1      28.750  24.429  26.848  0.00  0.00    +0.000 C 
ENDBRANCH  12  13
BRANCH   1  16
ATOM     16  C   UNL     1      26.485  23.678  23.495  0.00  0.00    +0.000 C 
ATOM     17  O   UNL     1      25.788  22.853  22.819  0.00  0.00    +0.000 OA
BRANCH  16  18
ATOM     18  O   UNL     1      27.369  24.453  22.748  0.00  0.00    +0.000 OA
BRANCH  18  20
ATOM     19  C   UNL     1      29.267  24.892  21.367  0.00  0.00    +0.000 C 
ATOM     20  C   UNL     1      28.352  23.839  21.907  0.00  0.00    +0.000 C 
ENDBRANCH  18  20
ENDBRANCH  16  18
ENDBRANCH   1  16
TORSDOF 4
ENDMDL
MODEL 2
REMARK VINA RESULT:      -5.9      3.065      6.242
REMARK  Name = 
REMARK  4 active torsions:
REMARK  status: ('A' for Active; 'I' for Inactive)
REMARK    1  A    between atoms: C_2  and  O_3
REMARK    2  A    between atoms: O_3  and  C_4
REMARK    3  A    between atoms: C_4  and  C_6
REMARK    4  A    between atoms: C_17  and  C_18
REMARK                            x       y       z     vdW  Elec       q    Type
REMARK                         _______ _______ _______ _____ _____    ______ ____
ROOT
ATOM      1  C   UNL     1      27.427  22.754  29.195  0.00  0.00    +0.000 C 
ATOM      2  C   UNL     1      28.649  22.661  29.583  0.00  0.00    +0.000 C 
ATOM      3  N   UNL     1      28.937  22.588  30.991  0.00  0.00    +0.000 NA
ATOM      4  O   UNL     1      29.733  22.627  28.734  0.00  0.00    +0.000 OA
ATOM      5  C   UNL     1      29.466  22.697  27.378  0.00  0.00    +0.000 A 
ATOM      6  C   UNL     1      30.597  22.660  26.533  0.00  0.00    +0.000 A 
ATOM      7  C   UNL     1      30.386  22.727  25.174  0.00  0.00    +0.000 A 
ATOM      8  O   UNL     1      31.478  22.691  24.335  0.00  0.00    +0.000 OA
ATOM      9  C   UNL     1      29.096  22.828  24.669  0.00  0.00    +0.000 A 
ATOM     10  C   UNL     1      28.004  22.863  25.495  0.00  0.00    +0.000 A 
ATOM     11  C   UNL     1      28.229  22.795  26.886  0.00  0.00    +0.000 A 
ATOM     12  C   UNL     1      26.950  22.841  27.749  0.00  0.00    +0.000 C 
ENDROOT
BRANCH  12  13
ATOM     13  C   UNL     1      26.722  24.478  27.728  0.00  0.00    +0.000 C 
ATOM     14  C   UNL     1      25.416  24.730  27.115  0.00  0.00    +0.000 C 
ATOM     15  C   UNL     1      27.915  25.093  27.169  0.00  0.00    +0.000 C 
ENDBRANCH  12  13
BRANCH   1  16
ATOM     16  C   UNL     1      26.371  22.780  30.201  0.00  0.00    +0.000 C 
ATOM     17  O   UNL     1      25.973  21.715  30.775  0.00  0.00    +0.000 OA
BRANCH  16  18
ATOM     18  O   UNL     1      25.725  23.945  30.608  0.00  0.00    +0.000 OA
BRANCH  18  20
ATOM     19  C   UNL     1      25.433  25.996  31.796  0.00  0.00    +0.000 C 
ATOM     20  C   UNL     1      26.388  24.899  31.445  0.00  0.00    +0.000 C 
ENDBRANCH  18  20
ENDBRANCH  16  18
ENDBRANCH   1  16
TORSDOF 4
ENDMDL
MODEL 3
REMARK VINA RESULT:      -5.7     31.591     32.879
REMARK  Name = 
REMARK  4 active torsions:
REMARK  status: ('A' for Active; 'I' for Inactive)
REMARK    1  A    between atoms: C_2  and  O_3
REMARK    2  A    between atoms: O_3  and  C_4
REMARK    3  A    between atoms: C_4  and  C_6
REMARK    4  A    between atoms: C_17  and  C_18
REMARK                            x       y       z     vdW  Elec       q    Type
REMARK                         _______ _______ _______ _____ _____    ______ ____
ROOT
ATOM      1  C   UNL     1      19.129  -7.554  26.644  0.00  0.00    +0.000 C 
ATOM      2  C   UNL     1      19.294  -6.381  26.145  0.00  0.00    +0.000 C 
ATOM      3  N   UNL     1      18.279  -5.382  26.347  0.00  0.00    +0.000 NA
ATOM      4  O   UNL     1      20.394  -5.996  25.411  0.00  0.00    +0.000 OA
ATOM      5  C   UNL     1      21.374  -6.951  25.210  0.00  0.00    +0.000 A 
ATOM      6  C   UNL     1      22.489  -6.527  24.454  0.00  0.00    +0.000 A 
ATOM      7  C   UNL     1      23.495  -7.440  24.226  0.00  0.00    +0.000 A 
ATOM      8  O   UNL     1      24.591  -7.043  23.490  0.00  0.00    +0.000 OA
ATOM      9  C   UNL     1      23.398  -8.730  24.730  0.00  0.00    +0.000 A 
ATOM     10  C   UNL     1      22.314  -9.134  25.463  0.00  0.00    +0.000 A 
ATOM     11  C   UNL     1      21.289  -8.193  25.692  0.00  0.00    +0.000 A 
ATOM     12  C   UNL     1      20.102  -8.723  26.524  0.00  0.00    +0.000 C 
ENDROOT
BRANCH  12  13
ATOM     13  C   UNL     1      19.301  -9.504  25.306  0.00  0.00    +0.000 C 
ATOM     14  C   UNL     1      19.067 -10.880  25.748  0.00  0.00    +0.000 C 
ATOM     15  C   UNL     1      20.016  -9.253  24.064  0.00  0.00    +0.000 C 
ENDBRANCH  12  13
BRANCH   1  16
ATOM     16  C   UNL     1      17.915  -7.831  27.403  0.00  0.00    +0.000 C 
ATOM     17  O   UNL     1      17.956  -8.420  28.533  0.00  0.00    +0.000 OA
BRANCH  16  18
ATOM     18  O   UNL     1      16.639  -7.483  26.967  0.00  0.00    +0.000 OA
BRANCH  18  20
ATOM     19  C   UNL     1      15.609  -9.521  26.265  0.00  0.00    +0.000 C 
ATOM     20  C   UNL     1      16.037  -8.149  25.851  0.00  0.00    +0.000 C 
ENDBRANCH  18  20
ENDBRANCH  16  18
ENDBRANCH   1  16
TORSDOF 4
ENDMDL
MODEL 4
REMARK VINA RESULT:      -5.5     19.863     21.350
REMARK  Name = 
REMARK  4 active torsions:
REMARK  status: ('A' for Active; 'I' for Inactive)
REMARK    1  A    between atoms: C_2  and  O_3
REMARK    2  A    between atoms: O_3  and  C_4
REMARK    3  A    between atoms: C_4  and  C_6
REMARK    4  A    between atoms: C_17  and  C_18
REMARK                            x       y       z     vdW  Elec       q    Type
REMARK                         _______ _______ _______ _____ _____    ______ ____
ROOT
ATOM      1  C   UNL     1      27.967   5.273  15.775  0.00  0.00    +0.000 C 
ATOM      2  C   UNL     1      27.209   4.989  14.777  0.00  0.00    +0.000 C 
ATOM      3  N   UNL     1      27.694   5.206  13.440  0.00  0.00    +0.000 NA
ATOM      4  O   UNL     1      25.933   4.481  14.890  0.00  0.00    +0.000 OA
ATOM      5  C   UNL     1      25.458   4.270  16.172  0.00  0.00    +0.000 A 
ATOM      6  C   UNL     1      24.148   3.748  16.256  0.00  0.00    +0.000 A 
ATOM      7  C   UNL     1      23.627   3.520  17.510  0.00  0.00    +0.000 A 
ATOM      8  O   UNL     1      22.350   3.010  17.610  0.00  0.00    +0.000 OA
ATOM      9  C   UNL     1      24.380   3.799  18.643  0.00  0.00    +0.000 A 
ATOM     10  C   UNL     1      25.649   4.304  18.554  0.00  0.00    +0.000 A 
ATOM     11  C   UNL     1      26.175   4.536  17.266  0.00  0.00    +0.000 A 
ATOM     12  C   UNL     1      27.609   5.106  17.248  0.00  0.00    +0.000 C 
ENDROOT
BRANCH  12  13
ATOM     13  C   UNL     1      27.227   6.690  17.526  0.00  0.00    +0.000 C 
ATOM     14  C   UNL     1      27.827   7.065  18.809  0.00  0.00    +0.000 C 
ATOM     15  C   UNL     1      25.797   6.852  17.320  0.00  0.00    +0.000 C 
ENDBRANCH  12  13
BRANCH   1  16
ATOM     16  C   UNL     1      29.299   5.807  15.515  0.00  0.00    +0.000 C 
ATOM     17  O   UNL     1      29.486   7.046  15.286  0.00  0.00    +0.000 OA
BRANCH  16  18
ATOM     18  O   UNL     1      30.452   5.024  15.497  0.00  0.00    +0.000 OA
BRANCH  18  20
ATOM     19  C   UNL     1      31.177   3.804  17.418  0.00  0.00    +0.000 C 
ATOM     20  C   UNL     1      31.368   5.040  16.598  0.00  0.00    +0.000 C 
ENDBRANCH  18  20
ENDBRANCH  16  18
ENDBRANCH   1  16
TORSDOF 4
ENDMDL
MODEL 5
REMARK VINA RESULT:      -5.5      2.308      3.387
REMARK  Name = 
REMARK  4 active torsions:
REMARK  status: ('A' for Active; 'I' for Inactive)
REMARK    1  A    between atoms: C_2  and  O_3
REMARK    2  A    between atoms: O_3  and  C_4
REMARK    3  A    between atoms: C_4  and  C_6
REMARK    4  A    between atoms: C_17  and  C_18
REMARK                            x       y       z     vdW  Elec       q    Type
REMARK                         _______ _______ _______ _____ _____    ______ ____
ROOT
ATOM      1  C   UNL     1      28.865  24.328  22.995  0.00  0.00    +0.000 C 
ATOM      2  C   UNL     1      27.706  23.777  23.058  0.00  0.00    +0.000 C 
ATOM      3  N   UNL     1      26.851  23.804  21.901  0.00  0.00    +0.000 NA
ATOM      4  O   UNL     1      27.204  23.147  24.175  0.00  0.00    +0.000 OA
ATOM      5  C   UNL     1      28.019  23.116  25.292  0.00  0.00    +0.000 A 
ATOM      6  C   UNL     1      27.478  22.463  26.421  0.00  0.00    +0.000 A 
ATOM      7  C   UNL     1      28.249  22.405  27.561  0.00  0.00    +0.000 A 
ATOM      8  O   UNL     1      27.737  21.771  28.672  0.00  0.00    +0.000 OA
ATOM      9  C   UNL     1      29.516  22.975  27.580  0.00  0.00    +0.000 A 
ATOM     10  C   UNL     1      30.034  23.606  26.481  0.00  0.00    +0.000 A 
ATOM     11  C   UNL     1      29.237  23.662  25.318  0.00  0.00    +0.000 A 
ATOM     12  C   UNL     1      29.890  24.389  24.123  0.00  0.00    +0.000 C 
ENDROOT
BRANCH  12  13
ATOM     13  C   UNL     1      29.557  25.939  24.592  0.00  0.00    +0.000 C 
ATOM     14  C   UNL     1      30.837  26.600  24.857  0.00  0.00    +0.000 C 
ATOM     15  C   UNL     1      28.540  25.887  25.629  0.00  0.00    +0.000 C 
ENDBRANCH  12  13
BRANCH   1  16
ATOM     16  C   UNL     1      29.275  24.963  21.748  0.00  0.00    +0.000 C 
ATOM     17  O   UNL     1      29.736  24.282  20.775  0.00  0.00    +0.000 OA
BRANCH  16  18
ATOM     18  O   UNL     1      29.200  26.336  21.522  0.00  0.00    +0.000 OA
BRANCH  18  20
ATOM     19  C   UNL     1      27.263  27.585  22.150  0.00  0.00    +0.000 C 
ATOM     20  C   UNL     1      27.998  26.932  21.022  0.00  0.00    +0.000 C 
ENDBRANCH  18  20
ENDBRANCH  16  18
ENDBRANCH   1  16
TORSDOF 4
ENDMDL
MODEL 6
REMARK VINA RESULT:      -5.4      2.229      6.179
REMARK  Name = 
REMARK  4 active torsions:
REMARK  status: ('A' for Active; 'I' for Inactive)
REMARK    1  A    between atoms: C_2  and  O_3
REMARK    2  A    between atoms: O_3  and  C_4
REMARK    3  A    between atoms: C_4  and  C_6
REMARK    4  A    between atoms: C_17  and  C_18
REMARK                            x       y       z     vdW  Elec       q    Type
REMARK                         _______ _______ _______ _____ _____    ______ ____
ROOT
ATOM      1  C   UNL     1      27.467  24.294  26.651  0.00  0.00    +0.000 C 
ATOM      2  C   UNL     1      28.746  24.420  26.621  0.00  0.00    +0.000 C 
ATOM      3  N   UNL     1      29.472  24.527  27.858  0.00  0.00    +0.000 NA
ATOM      4  O   UNL     1      29.496  24.462  25.466  0.00  0.00    +0.000 OA
ATOM      5  C   UNL     1      28.806  24.360  24.271  0.00  0.00    +0.000 A 
ATOM      6  C   UNL     1      29.602  24.407  23.105  0.00  0.00    +0.000 A 
ATOM      7  C   UNL     1      28.964  24.309  21.888  0.00  0.00    +0.000 A 
ATOM      8  O   UNL     1      29.725  24.352  20.740  0.00  0.00    +0.000 OA
ATOM      9  C   UNL     1      27.583  24.171  21.830  0.00  0.00    +0.000 A 
ATOM     10  C   UNL     1      26.818  24.126  22.965  0.00  0.00    +0.000 A 
ATOM     11  C   UNL     1      27.479  24.227  24.207  0.00  0.00    +0.000 A 
ATOM     12  C   UNL     1      26.551  24.169  25.438  0.00  0.00    +0.000 C 
ENDROOT
BRANCH  12  13
ATOM     13  C   UNL     1      26.052  25.746  25.420  0.00  0.00    +0.000 C 
ATOM     14  C   UNL     1      24.603  25.743  25.207  0.00  0.00    +0.000 C 
ATOM     15  C   UNL     1      26.917  26.481  24.511  0.00  0.00    +0.000 C 
ENDBRANCH  12  13
BRANCH   1  16
ATOM     16  C   UNL     1      26.794  24.264  27.944  0.00  0.00    +0.000 C 
ATOM     17  O   UNL     1      26.468  25.337  28.550  0.00  0.00    +0.000 OA
BRANCH  16  18
ATOM     18  O   UNL     1      26.458  23.087  28.610  0.00  0.00    +0.000 OA
BRANCH  18  20
ATOM     19  C   UNL     1      26.329  21.564  30.444  0.00  0.00    +0.000 C 
ATOM     20  C   UNL     1      26.947  22.825  29.930  0.00  0.00    +0.000 C 
ENDBRANCH  18  20
ENDBRANCH  16  18
ENDBRANCH   1  16
TORSDOF 4
ENDMDL
MODEL 7
REMARK VINA RESULT:      -5.3      3.162      4.386
REMARK  Name = 
REMARK  4 active torsions:
REMARK  status: ('A' for Active; 'I' for Inactive)
REMARK    1  A    between atoms: C_2  and  O_3
REMARK    2  A    between atoms: O_3  and  C_4
REMARK    3  A    between atoms: C_4  and  C_6
REMARK    4  A    between atoms: C_17  and  C_18
REMARK                            x       y       z     vdW  Elec       q    Type
REMARK                         _______ _______ _______ _____ _____    ______ ____
ROOT
ATOM      1  C   UNL     1      28.539  25.288  22.823  0.00  0.00    +0.000 C 
ATOM      2  C   UNL     1      29.392  24.430  22.389  0.00  0.00    +0.000 C 
ATOM      3  N   UNL     1      29.687  24.381  20.982  0.00  0.00    +0.000 NA
ATOM      4  O   UNL     1      30.062  23.529  23.186  0.00  0.00    +0.000 OA
ATOM      5  C   UNL     1      29.784  23.568  24.541  0.00  0.00    +0.000 A 
ATOM      6  C   UNL     1      30.486  22.632  25.332  0.00  0.00    +0.000 A 
ATOM      7  C   UNL     1      30.246  22.629  26.688  0.00  0.00    +0.000 A 
ATOM      8  O   UNL     1      30.923  21.723  27.476  0.00  0.00    +0.000 OA
ATOM      9  C   UNL     1      29.339  23.524  27.241  0.00  0.00    +0.000 A 
ATOM     10  C   UNL     1      28.662  24.429  26.468  0.00  0.00    +0.000 A 
ATOM     11  C   UNL     1      28.914  24.425  25.080  0.00  0.00    +0.000 A 
ATOM     12  C   UNL     1      28.113  25.471  24.276  0.00  0.00    +0.000 C 
ENDROOT
BRANCH  12  13
ATOM     13  C   UNL     1      26.694  24.631  24.160  0.00  0.00    +0.000 C 
ATOM     14  C   UNL     1      25.659  25.427  24.823  0.00  0.00    +0.000 C 
ATOM     15  C   UNL     1      26.943  23.264  24.589  0.00  0.00    +0.000 C 
ENDBRANCH  12  13
BRANCH   1  16
ATOM     16  C   UNL     1      27.899  26.187  21.870  0.00  0.00    +0.000 C 
ATOM     17  O   UNL     1      26.920  25.804  21.149  0.00  0.00    +0.000 OA
BRANCH  16  18
ATOM     18  O   UNL     1      28.294  27.508  21.672  0.00  0.00    +0.000 OA
BRANCH  18  20
ATOM     19  C   UNL     1      29.713  27.759  19.767  0.00  0.00    +0.000 C 
ATOM     20  C   UNL     1      28.371  28.062  20.353  0.00  0.00    +0.000 C 
ENDBRANCH  18  20
ENDBRANCH  16  18
ENDBRANCH   1  16
TORSDOF 4
ENDMDL
MODEL 8
REMARK VINA RESULT:      -5.2      3.356      5.941
REMARK  Name = 
REMARK  4 active torsions:
REMARK  status: ('A' for Active; 'I' for Inactive)
REMARK    1  A    between atoms: C_2  and  O_3
REMARK    2  A    between atoms: O_3  and  C_4
REMARK    3  A    between atoms: C_4  and  C_6
REMARK    4  A    between atoms: C_17  and  C_18
REMARK                            x       y       z     vdW  Elec       q    Type
REMARK                         _______ _______ _______ _____ _____    ______ ____
ROOT
ATOM      1  C   UNL     1      30.124  23.131  26.512  0.00  0.00    +0.000 C 
ATOM      2  C   UNL     1      30.587  23.310  25.327  0.00  0.00    +0.000 C 
ATOM      3  N   UNL     1      32.006  23.466  25.141  0.00  0.00    +0.000 NA
ATOM      4  O   UNL     1      29.812  23.367  24.190  0.00  0.00    +0.000 OA
ATOM      5  C   UNL     1      28.447  23.219  24.359  0.00  0.00    +0.000 A 
ATOM      6  C   UNL     1      27.678  23.282  23.176  0.00  0.00    +0.000 A 
ATOM      7  C   UNL     1      26.312  23.141  23.288  0.00  0.00    +0.000 A 
ATOM      8  O   UNL     1      25.547  23.199  22.144  0.00  0.00    +0.000 OA
ATOM      9  C   UNL     1      25.729  22.942  24.533  0.00  0.00    +0.000 A 
ATOM     10  C   UNL     1      26.481  22.882  25.676  0.00  0.00    +0.000 A 
ATOM     11  C   UNL     1      27.878  23.028  25.552  0.00  0.00    +0.000 A 
ATOM     12  C   UNL     1      28.656  22.949  26.882  0.00  0.00    +0.000 C 
ENDROOT
BRANCH  12  13
ATOM     13  C   UNL     1      28.400  24.503  27.387  0.00  0.00    +0.000 C 
ATOM     14  C   UNL     1      27.636  24.436  28.635  0.00  0.00    +0.000 C 
ATOM     15  C   UNL     1      27.883  25.263  26.261  0.00  0.00    +0.000 C 
ENDBRANCH  12  13
BRANCH   1  16
ATOM     16  C   UNL     1      31.057  23.090  27.632  0.00  0.00    +0.000 C 
ATOM     17  O   UNL     1      31.490  24.158  28.177  0.00  0.00    +0.000 OA
BRANCH  16  18
ATOM     18  O   UNL     1      31.542  21.908  28.188  0.00  0.00    +0.000 OA
BRANCH  18  20
ATOM     19  C   UNL     1      33.448  21.667  29.607  0.00  0.00    +0.000 C 
ATOM     20  C   UNL     1      31.965  21.858  29.555  0.00  0.00    +0.000 C 
ENDBRANCH  18  20
ENDBRANCH  16  18
ENDBRANCH   1  16
TORSDOF 4
ENDMDL
MODEL 9
REMARK VINA RESULT:      -5.1      2.273      2.947
REMARK  Name = 
REMARK  4 active torsions:
REMARK  status: ('A' for Active; 'I' for Inactive)
REMARK    1  A    between atoms: C_2  and  O_3
REMARK    2  A    between atoms: O_3  and  C_4
REMARK    3  A    between atoms: C_4  and  C_6
REMARK    4  A    between atoms: C_17  and  C_18
REMARK                            x       y       z     vdW  Elec       q    Type
REMARK                         _______ _______ _______ _____ _____    ______ ____
ROOT
ATOM      1  C   UNL     1      28.986  23.528  24.826  0.00  0.00    +0.000 C 
ATOM      2  C   UNL     1      28.020  23.957  25.557  0.00  0.00    +0.000 C 
ATOM      3  N   UNL     1      26.871  24.552  24.927  0.00  0.00    +0.000 NA
ATOM      4  O   UNL     1      27.999  23.893  26.933  0.00  0.00    +0.000 OA
ATOM      5  C   UNL     1      29.100  23.323  27.547  0.00  0.00    +0.000 A 
ATOM      6  C   UNL     1      29.049  23.271  28.957  0.00  0.00    +0.000 A 
ATOM      7  C   UNL     1      30.121  22.713  29.618  0.00  0.00    +0.000 A 
ATOM      8  O   UNL     1      30.088  22.654  30.995  0.00  0.00    +0.000 OA
ATOM      9  C   UNL     1      31.207  22.223  28.904  0.00  0.00    +0.000 A 
ATOM     10  C   UNL     1      31.249  22.277  27.537  0.00  0.00    +0.000 A 
ATOM     11  C   UNL     1      30.148  22.850  26.868  0.00  0.00    +0.000 A 
ATOM     12  C   UNL     1      30.269  22.875  25.329  0.00  0.00    +0.000 C 
ENDROOT
BRANCH  12  13
ATOM     13  C   UNL     1      31.223  24.219  25.199  0.00  0.00    +0.000 C 
ATOM     14  C   UNL     1      32.482  23.803  24.577  0.00  0.00    +0.000 C 
ATOM     15  C   UNL     1      31.239  24.888  26.490  0.00  0.00    +0.000 C 
ENDBRANCH  12  13
BRANCH   1  16
ATOM     16  C   UNL     1      28.882  23.657  23.377  0.00  0.00    +0.000 C 
ATOM     17  O   UNL     1      28.339  22.749  22.665  0.00  0.00    +0.000 OA
BRANCH  16  18
ATOM     18  O   UNL     1      29.355  24.758  22.666  0.00  0.00    +0.000 OA
BRANCH  18  20
ATOM     19  C   UNL     1      29.424  26.291  20.836  0.00  0.00    +0.000 C 
ATOM     20  C   UNL     1      29.088  24.898  21.266  0.00  0.00    +0.000 C 
ENDBRANCH  18  20
ENDBRANCH  16  18
ENDBRANCH   1  16
TORSDOF 4
ENDMDL
MODEL 10
REMARK VINA RESULT:      -5.0     31.695     32.739
REMARK  Name = 
REMARK  4 active torsions:
REMARK  status: ('A' for Active; 'I' for Inactive)
REMARK    1  A    between atoms: C_2  and  O_3
REMARK    2  A    between atoms: O_3  and  C_4
REMARK    3  A    between atoms: C_4  and  C_6
REMARK    4  A    between atoms: C_17  and  C_18
REMARK                            x       y       z     vdW  Elec       q    Type
REMARK                         _______ _______ _______ _____ _____    ______ ____
ROOT
ATOM      1  C   UNL     1      21.895  -8.365  24.582  0.00  0.00    +0.000 C 
ATOM      2  C   UNL     1      22.072  -7.160  24.993  0.00  0.00    +0.000 C 
ATOM      3  N   UNL     1      23.357  -6.538  24.816  0.00  0.00    +0.000 NA
ATOM      4  O   UNL     1      21.103  -6.398  25.608  0.00  0.00    +0.000 OA
ATOM      5  C   UNL     1      19.864  -6.988  25.783  0.00  0.00    +0.000 A 
ATOM      6  C   UNL     1      18.892  -6.183  26.416  0.00  0.00    +0.000 A 
ATOM      7  C   UNL     1      17.641  -6.724  26.615  0.00  0.00    +0.000 A 
ATOM      8  O   UNL     1      16.679  -5.951  27.230  0.00  0.00    +0.000 OA
ATOM      9  C   UNL     1      17.363  -8.020  26.200  0.00  0.00    +0.000 A 
ATOM     10  C   UNL     1      18.312  -8.795  25.587  0.00  0.00    +0.000 A 
ATOM     11  C   UNL     1      19.590  -8.234  25.388  0.00  0.00    +0.000 A 
ATOM     12  C   UNL     1      20.603  -9.168  24.692  0.00  0.00    +0.000 C 
ENDROOT
BRANCH  12  13
ATOM     13  C   UNL     1      21.046 -10.050  26.019  0.00  0.00    +0.000 C 
ATOM     14  C   UNL     1      20.766 -11.456  25.722  0.00  0.00    +0.000 C 
ATOM     15  C   UNL     1      20.457  -9.425  27.192  0.00  0.00    +0.000 C 
ENDBRANCH  12  13
BRANCH   1  16
ATOM     16  C   UNL     1      23.008  -9.061  23.947  0.00  0.00    +0.000 C 
ATOM     17  O   UNL     1      24.011  -9.465  24.620  0.00  0.00    +0.000 OA
BRANCH  16  18
ATOM     18  O   UNL     1      23.065  -9.337  22.583  0.00  0.00    +0.000 OA
BRANCH  18  20
ATOM     19  C   UNL     1      22.563  -8.304  20.489  0.00  0.00    +0.000 C 
ATOM     20  C   UNL     1      23.505  -8.344  21.650  0.00  0.00    +0.000 C 
ENDBRANCH  18  20
ENDBRANCH  16  18
ENDBRANCH   1  16
TORSDOF 4
ENDMDL
