MODEL 1
REMARK VINA RESULT:      -8.0      0.000      0.000
REMARK  Name = 
REMARK  7 active torsions:
REMARK  status: ('A' for Active; 'I' for Inactive)
REMARK    1  A    between atoms: C_2  and  C_4
REMARK    2  A    between atoms: C_4  and  O_5
REMARK    3  A    between atoms: O_5  and  C_6
REMARK    4  A    between atoms: C_10  and  C_11
REMARK    5  A    between atoms: C_13  and  C_14
REMARK    6  A    between atoms: N_16  and  N_17
REMARK    7  A    between atoms: C_18  and  C_19
REMARK                            x       y       z     vdW  Elec       q    Type
REMARK                         _______ _______ _______ _____ _____    ______ ____
ROOT
ATOM      1  C   UNL     1      26.706  15.466  36.183  0.00  0.00    +0.000 A 
ATOM      2  C   UNL     1      26.004  15.232  37.351  0.00  0.00    +0.000 A 
ATOM      3  C   UNL     1      26.659  15.108  38.554  0.00  0.00    +0.000 A 
ATOM      4  C   UNL     1      28.032  15.226  38.544  0.00  0.00    +0.000 A 
ATOM      5  C   UNL     1      28.764  15.114  39.703  0.00  0.00    +0.000 A 
ATOM      6  C   UNL     1      30.120  15.234  39.672  0.00  0.00    +0.000 A 
ATOM      7  C   UNL     1      30.825  15.466  38.512  0.00  0.00    +0.000 A 
ATOM      8  C   UNL     1      30.115  15.580  37.347  0.00  0.00    +0.000 A 
ATOM      9  C   UNL     1      28.731  15.462  37.359  0.00  0.00    +0.000 A 
ATOM     10  N   UNL     1      28.047  15.576  36.207  0.00  0.00    +0.000 NA
ENDROOT
BRANCH   1  15
ATOM     11  C   UNL     1      24.622  16.874  33.374  0.00  0.00    +0.000 A 
ATOM     12  C   UNL     1      24.701  15.863  32.443  0.00  0.00    +0.000 A 
ATOM     13  C   UNL     1      25.434  14.721  32.732  0.00  0.00    +0.000 A 
ATOM     14  C   UNL     1      26.092  14.590  33.956  0.00  0.00    +0.000 A 
ATOM     15  C   UNL     1      26.015  15.600  34.892  0.00  0.00    +0.000 A 
ATOM     16  C   UNL     1      25.288  16.723  34.596  0.00  0.00    +0.000 A 
BRANCH  11  17
ATOM     17  O   UNL     1      23.924  18.048  33.192  0.00  0.00    +0.000 OA
BRANCH  17  18
ATOM     18  C   UNL     1      23.945  18.810  32.017  0.00  0.00    +0.000 C 
BRANCH  18  20
ATOM     19  C   UNL     1      23.803  20.534  33.737  0.00  0.00    +0.000 C 
ATOM     20  C   UNL     1      23.849  20.284  32.248  0.00  0.00    +0.000 C 
ATOM     21  C   UNL     1      22.551  20.802  31.661  0.00  0.00    +0.000 C 
ENDBRANCH  18  20
ENDBRANCH  17  18
ENDBRANCH  11  17
ENDBRANCH   1  15
BRANCH   3  22
ATOM     22  C   UNL     1      25.954  14.862  39.811  0.00  0.00    +0.000 C 
ATOM     23  O   UNL     1      25.423  15.849  40.383  0.00  0.00    +0.000 OA
ATOM     24  N   UNL     1      25.837  13.605  40.413  0.00  0.00    +0.000 NA
BRANCH  24  25
ATOM     25  N   UNL     1      25.168  13.353  41.611  0.00  0.00    +0.000 NA
ATOM     26  C   UNL     1      25.503  12.311  42.280  0.00  0.00    +0.000 C 
BRANCH  26  27
ATOM     27  C   UNL     1      26.546  11.461  41.764  0.00  0.00    +0.000 A 
ATOM     28  C   UNL     1      27.887  11.758  41.831  0.00  0.00    +0.000 A 
ATOM     29  C   UNL     1      28.549  10.707  41.235  0.00  0.00    +0.000 A 
ATOM     30  C   UNL     1      27.576   9.818  40.834  0.00  0.00    +0.000 A 
ATOM     31  O   UNL     1      26.416  10.325  41.177  0.00  0.00    +0.000 OA
ENDBRANCH  26  27
ENDBRANCH  24  25
ENDBRANCH   3  22
TORSDOF 7
ENDMDL
MODEL 2
REMARK VINA RESULT:      -7.9     28.671     31.531
REMARK  Name = 
REMARK  7 active torsions:
REMARK  status: ('A' for Active; 'I' for Inactive)
REMARK    1  A    between atoms: C_2  and  C_4
REMARK    2  A    between atoms: C_4  and  O_5
REMARK    3  A    between atoms: O_5  and  C_6
REMARK    4  A    between atoms: C_10  and  C_11
REMARK    5  A    between atoms: C_13  and  C_14
REMARK    6  A    between atoms: N_16  and  N_17
REMARK    7  A    between atoms: C_18  and  C_19
REMARK                            x       y       z     vdW  Elec       q    Type
REMARK                         _______ _______ _______ _____ _____    ______ ____
ROOT
ATOM      1  C   UNL     1      41.141  -1.828  13.844  0.00  0.00    +0.000 A 
ATOM      2  C   UNL     1      40.444  -2.129  14.999  0.00  0.00    +0.000 A 
ATOM      3  C   UNL     1      39.150  -1.697  15.174  0.00  0.00    +0.000 A 
ATOM      4  C   UNL     1      38.585  -0.956  14.158  0.00  0.00    +0.000 A 
ATOM      5  C   UNL     1      37.298  -0.483  14.252  0.00  0.00    +0.000 A 
ATOM      6  C   UNL     1      36.758   0.246  13.238  0.00  0.00    +0.000 A 
ATOM      7  C   UNL     1      37.448   0.550  12.085  0.00  0.00    +0.000 A 
ATOM      8  C   UNL     1      38.732   0.090  11.971  0.00  0.00    +0.000 A 
ATOM      9  C   UNL     1      39.299  -0.657  12.996  0.00  0.00    +0.000 A 
ATOM     10  N   UNL     1      40.561  -1.102  12.870  0.00  0.00    +0.000 NA
ENDROOT
BRANCH   1  15
ATOM     11  C   UNL     1      44.842  -2.344  14.348  0.00  0.00    +0.000 A 
ATOM     12  C   UNL     1      45.152  -3.155  13.280  0.00  0.00    +0.000 A 
ATOM     13  C   UNL     1      44.153  -3.535  12.396  0.00  0.00    +0.000 A 
ATOM     14  C   UNL     1      42.839  -3.101  12.579  0.00  0.00    +0.000 A 
ATOM     15  C   UNL     1      42.525  -2.287  13.647  0.00  0.00    +0.000 A 
ATOM     16  C   UNL     1      43.519  -1.919  14.514  0.00  0.00    +0.000 A 
BRANCH  11  17
ATOM     17  O   UNL     1      45.754  -1.907  15.285  0.00  0.00    +0.000 OA
BRANCH  17  18
ATOM     18  C   UNL     1      45.877  -2.435  16.577  0.00  0.00    +0.000 C 
BRANCH  18  20
ATOM     19  C   UNL     1      45.571  -0.090  17.174  0.00  0.00    +0.000 C 
ATOM     20  C   UNL     1      46.151  -1.408  17.629  0.00  0.00    +0.000 C 
ATOM     21  C   UNL     1      47.648  -1.220  17.771  0.00  0.00    +0.000 C 
ENDBRANCH  18  20
ENDBRANCH  17  18
ENDBRANCH  11  17
ENDBRANCH   1  15
BRANCH   3  22
ATOM     22  C   UNL     1      38.378  -1.994  16.380  0.00  0.00    +0.000 C 
ATOM     23  O   UNL     1      37.902  -3.153  16.493  0.00  0.00    +0.000 OA
ATOM     24  N   UNL     1      38.137  -1.075  17.405  0.00  0.00    +0.000 NA
BRANCH  24  25
ATOM     25  N   UNL     1      37.403  -1.343  18.561  0.00  0.00    +0.000 NA
ATOM     26  C   UNL     1      36.386  -0.604  18.813  0.00  0.00    +0.000 C 
BRANCH  26  27
ATOM     27  C   UNL     1      36.054   0.457  17.896  0.00  0.00    +0.000 A 
ATOM     28  C   UNL     1      35.001   0.412  17.013  0.00  0.00    +0.000 A 
ATOM     29  C   UNL     1      35.021   1.604  16.322  0.00  0.00    +0.000 A 
ATOM     30  C   UNL     1      36.088   2.319  16.820  0.00  0.00    +0.000 A 
ATOM     31  O   UNL     1      36.655   1.584  17.747  0.00  0.00    +0.000 OA
ENDBRANCH  26  27
ENDBRANCH  24  25
ENDBRANCH   3  22
TORSDOF 7
ENDMDL
MODEL 3
REMARK VINA RESULT:      -7.8     24.029     26.848
REMARK  Name = 
REMARK  7 active torsions:
REMARK  status: ('A' for Active; 'I' for Inactive)
REMARK    1  A    between atoms: C_2  and  C_4
REMARK    2  A    between atoms: C_4  and  O_5
REMARK    3  A    between atoms: O_5  and  C_6
REMARK    4  A    between atoms: C_10  and  C_11
REMARK    5  A    between atoms: C_13  and  C_14
REMARK    6  A    between atoms: N_16  and  N_17
REMARK    7  A    between atoms: C_18  and  C_19
REMARK                            x       y       z     vdW  Elec       q    Type
REMARK                         _______ _______ _______ _____ _____    ______ ____
ROOT
ATOM      1  C   UNL     1      38.644   4.933  17.203  0.00  0.00    +0.000 A 
ATOM      2  C   UNL     1      37.497   4.171  17.317  0.00  0.00    +0.000 A 
ATOM      3  C   UNL     1      37.148   3.272  16.338  0.00  0.00    +0.000 A 
ATOM      4  C   UNL     1      37.983   3.165  15.247  0.00  0.00    +0.000 A 
ATOM      5  C   UNL     1      37.708   2.292  14.221  0.00  0.00    +0.000 A 
ATOM      6  C   UNL     1      38.546   2.201  13.153  0.00  0.00    +0.000 A 
ATOM      7  C   UNL     1      39.690   2.958  13.032  0.00  0.00    +0.000 A 
ATOM      8  C   UNL     1      39.983   3.835  14.041  0.00  0.00    +0.000 A 
ATOM      9  C   UNL     1      39.140   3.941  15.140  0.00  0.00    +0.000 A 
ATOM     10  N   UNL     1      39.440   4.806  16.125  0.00  0.00    +0.000 NA
ENDROOT
BRANCH   1  15
ATOM     11  C   UNL     1      40.576   6.651  19.948  0.00  0.00    +0.000 A 
ATOM     12  C   UNL     1      39.759   7.723  20.226  0.00  0.00    +0.000 A 
ATOM     13  C   UNL     1      38.578   7.886  19.518  0.00  0.00    +0.000 A 
ATOM     14  C   UNL     1      38.211   6.974  18.527  0.00  0.00    +0.000 A 
ATOM     15  C   UNL     1      39.027   5.897  18.246  0.00  0.00    +0.000 A 
ATOM     16  C   UNL     1      40.191   5.747  18.952  0.00  0.00    +0.000 A 
BRANCH  11  17
ATOM     17  O   UNL     1      41.769   6.393  20.588  0.00  0.00    +0.000 OA
BRANCH  17  18
ATOM     18  C   UNL     1      42.741   7.360  20.874  0.00  0.00    +0.000 C 
BRANCH  18  20
ATOM     19  C   UNL     1      44.766   6.602  19.747  0.00  0.00    +0.000 C 
ATOM     20  C   UNL     1      44.110   6.799  21.092  0.00  0.00    +0.000 C 
ATOM     21  C   UNL     1      43.998   5.438  21.747  0.00  0.00    +0.000 C 
ENDBRANCH  18  20
ENDBRANCH  17  18
ENDBRANCH  11  17
ENDBRANCH   1  15
BRANCH   3  22
ATOM     22  C   UNL     1      35.944   2.446  16.420  0.00  0.00    +0.000 C 
ATOM     23  O   UNL     1      34.891   2.901  15.902  0.00  0.00    +0.000 OA
ATOM     24  N   UNL     1      35.891   1.192  17.036  0.00  0.00    +0.000 NA
BRANCH  24  25
ATOM     25  N   UNL     1      34.752   0.392  17.122  0.00  0.00    +0.000 NA
ATOM     26  C   UNL     1      34.894  -0.817  17.524  0.00  0.00    +0.000 C 
BRANCH  26  27
ATOM     27  C   UNL     1      36.215  -1.284  17.865  0.00  0.00    +0.000 A 
ATOM     28  C   UNL     1      36.705  -1.343  19.148  0.00  0.00    +0.000 A 
ATOM     29  C   UNL     1      37.988  -1.839  19.053  0.00  0.00    +0.000 A 
ATOM     30  C   UNL     1      38.215  -2.059  17.712  0.00  0.00    +0.000 A 
ATOM     31  O   UNL     1      37.128  -1.711  17.067  0.00  0.00    +0.000 OA
ENDBRANCH  26  27
ENDBRANCH  24  25
ENDBRANCH   3  22
TORSDOF 7
ENDMDL
MODEL 4
REMARK VINA RESULT:      -7.8     24.479     28.089
REMARK  Name = 
REMARK  7 active torsions:
REMARK  status: ('A' for Active; 'I' for Inactive)
REMARK    1  A    between atoms: C_2  and  C_4
REMARK    2  A    between atoms: C_4  and  O_5
REMARK    3  A    between atoms: O_5  and  C_6
REMARK    4  A    between atoms: C_10  and  C_11
REMARK    5  A    between atoms: C_13  and  C_14
REMARK    6  A    between atoms: N_16  and  N_17
REMARK    7  A    between atoms: C_18  and  C_19
REMARK                            x       y       z     vdW  Elec       q    Type
REMARK                         _______ _______ _______ _____ _____    ______ ____
ROOT
ATOM      1  C   UNL     1      36.446   2.202  16.017  0.00  0.00    +0.000 A 
ATOM      2  C   UNL     1      36.079   2.887  14.874  0.00  0.00    +0.000 A 
ATOM      3  C   UNL     1      36.489   4.183  14.667  0.00  0.00    +0.000 A 
ATOM      4  C   UNL     1      37.274   4.764  15.640  0.00  0.00    +0.000 A 
ATOM      5  C   UNL     1      37.726   6.056  15.513  0.00  0.00    +0.000 A 
ATOM      6  C   UNL     1      38.500   6.611  16.485  0.00  0.00    +0.000 A 
ATOM      7  C   UNL     1      38.869   5.934  17.627  0.00  0.00    +0.000 A 
ATOM      8  C   UNL     1      38.429   4.646  17.773  0.00  0.00    +0.000 A 
ATOM      9  C   UNL     1      37.638   4.063  16.791  0.00  0.00    +0.000 A 
ATOM     10  N   UNL     1      37.213   2.797  16.949  0.00  0.00    +0.000 NA
ENDROOT
BRANCH   1  15
ATOM     11  C   UNL     1      36.314  -1.565  15.915  0.00  0.00    +0.000 A 
ATOM     12  C   UNL     1      35.198  -1.819  16.679  0.00  0.00    +0.000 A 
ATOM     13  C   UNL     1      34.487  -0.762  17.228  0.00  0.00    +0.000 A 
ATOM     14  C   UNL     1      34.895   0.556  17.012  0.00  0.00    +0.000 A 
ATOM     15  C   UNL     1      36.013   0.815  16.246  0.00  0.00    +0.000 A 
ATOM     16  C   UNL     1      36.706  -0.238  15.710  0.00  0.00    +0.000 A 
BRANCH  11  17
ATOM     17  O   UNL     1      37.092  -2.537  15.324  0.00  0.00    +0.000 OA
BRANCH  17  18
ATOM     18  C   UNL     1      37.524  -3.706  15.964  0.00  0.00    +0.000 C 
BRANCH  18  20
ATOM     19  C   UNL     1      38.700  -2.959  17.966  0.00  0.00    +0.000 C 
ATOM     20  C   UNL     1      38.870  -3.586  16.603  0.00  0.00    +0.000 C 
ATOM     21  C   UNL     1      39.737  -2.655  15.780  0.00  0.00    +0.000 C 
ENDBRANCH  18  20
ENDBRANCH  17  18
ENDBRANCH  11  17
ENDBRANCH   1  15
BRANCH   3  22
ATOM     22  C   UNL     1      36.123   4.943  13.472  0.00  0.00    +0.000 C 
ATOM     23  O   UNL     1      36.857   4.819  12.458  0.00  0.00    +0.000 OA
ATOM     24  N   UNL     1      35.016   5.793  13.389  0.00  0.00    +0.000 NA
BRANCH  24  25
ATOM     25  N   UNL     1      34.654   6.523  12.258  0.00  0.00    +0.000 NA
ATOM     26  C   UNL     1      34.400   7.771  12.402  0.00  0.00    +0.000 C 
BRANCH  26  27
ATOM     27  C   UNL     1      34.501   8.352  13.718  0.00  0.00    +0.000 A 
ATOM     28  C   UNL     1      35.641   8.938  14.216  0.00  0.00    +0.000 A 
ATOM     29  C   UNL     1      35.335   9.366  15.489  0.00  0.00    +0.000 A 
ATOM     30  C   UNL     1      34.019   9.019  15.705  0.00  0.00    +0.000 A 
ATOM     31  O   UNL     1      33.587   8.424  14.618  0.00  0.00    +0.000 OA
ENDBRANCH  26  27
ENDBRANCH  24  25
ENDBRANCH   3  22
TORSDOF 7
ENDMDL
MODEL 5
REMARK VINA RESULT:      -7.8     24.299     27.069
REMARK  Name = 
REMARK  7 active torsions:
REMARK  status: ('A' for Active; 'I' for Inactive)
REMARK    1  A    between atoms: C_2  and  C_4
REMARK    2  A    between atoms: C_4  and  O_5
REMARK    3  A    between atoms: O_5  and  C_6
REMARK    4  A    between atoms: C_10  and  C_11
REMARK    5  A    between atoms: C_13  and  C_14
REMARK    6  A    between atoms: N_16  and  N_17
REMARK    7  A    between atoms: C_18  and  C_19
REMARK                            x       y       z     vdW  Elec       q    Type
REMARK                         _______ _______ _______ _____ _____    ______ ____
ROOT
ATOM      1  C   UNL     1      38.428   3.864  15.635  0.00  0.00    +0.000 A 
ATOM      2  C   UNL     1      37.352   3.232  16.229  0.00  0.00    +0.000 A 
ATOM      3  C   UNL     1      36.628   2.283  15.547  0.00  0.00    +0.000 A 
ATOM      4  C   UNL     1      37.019   1.991  14.258  0.00  0.00    +0.000 A 
ATOM      5  C   UNL     1      36.350   1.054  13.506  0.00  0.00    +0.000 A 
ATOM      6  C   UNL     1      36.752   0.780  12.235  0.00  0.00    +0.000 A 
ATOM      7  C   UNL     1      37.823   1.406  11.637  0.00  0.00    +0.000 A 
ATOM      8  C   UNL     1      38.503   2.342  12.368  0.00  0.00    +0.000 A 
ATOM      9  C   UNL     1      38.108   2.635  13.667  0.00  0.00    +0.000 A 
ATOM     10  N   UNL     1      38.785   3.557  14.374  0.00  0.00    +0.000 NA
ENDROOT
BRANCH   1  15
ATOM     11  C   UNL     1      39.621   6.195  18.348  0.00  0.00    +0.000 A 
ATOM     12  C   UNL     1      40.686   6.809  17.730  0.00  0.00    +0.000 A 
ATOM     13  C   UNL     1      41.017   6.463  16.429  0.00  0.00    +0.000 A 
ATOM     14  C   UNL     1      40.278   5.498  15.741  0.00  0.00    +0.000 A 
ATOM     15  C   UNL     1      39.209   4.881  16.356  0.00  0.00    +0.000 A 
ATOM     16  C   UNL     1      38.893   5.231  17.642  0.00  0.00    +0.000 A 
BRANCH  11  17
ATOM     17  O   UNL     1      39.206   6.462  19.635  0.00  0.00    +0.000 OA
BRANCH  17  18
ATOM     18  C   UNL     1      39.456   7.660  20.317  0.00  0.00    +0.000 C 
BRANCH  18  20
ATOM     19  C   UNL     1      37.381   8.556  19.401  0.00  0.00    +0.000 C 
ATOM     20  C   UNL     1      38.223   8.438  20.649  0.00  0.00    +0.000 C 
ATOM     21  C   UNL     1      38.611   9.840  21.070  0.00  0.00    +0.000 C 
ENDBRANCH  18  20
ENDBRANCH  17  18
ENDBRANCH  11  17
ENDBRANCH   1  15
BRANCH   3  22
ATOM     22  C   UNL     1      35.483   1.591  16.139  0.00  0.00    +0.000 C 
ATOM     23  O   UNL     1      34.430   2.256  16.314  0.00  0.00    +0.000 OA
ATOM     24  N   UNL     1      35.489   0.246  16.519  0.00  0.00    +0.000 NA
BRANCH  24  25
ATOM     25  N   UNL     1      34.406  -0.429  17.083  0.00  0.00    +0.000 NA
ATOM     26  C   UNL     1      34.652  -1.422  17.857  0.00  0.00    +0.000 C 
BRANCH  26  27
ATOM     27  C   UNL     1      36.024  -1.787  18.102  0.00  0.00    +0.000 A 
ATOM     28  C   UNL     1      36.808  -1.228  19.083  0.00  0.00    +0.000 A 
ATOM     29  C   UNL     1      38.040  -1.839  18.994  0.00  0.00    +0.000 A 
ATOM     30  C   UNL     1      37.945  -2.744  17.960  0.00  0.00    +0.000 A 
ATOM     31  O   UNL     1      36.729  -2.663  17.477  0.00  0.00    +0.000 OA
ENDBRANCH  26  27
ENDBRANCH  24  25
ENDBRANCH   3  22
TORSDOF 7
ENDMDL
MODEL 6
REMARK VINA RESULT:      -7.8     27.156     29.873
REMARK  Name = 
REMARK  7 active torsions:
REMARK  status: ('A' for Active; 'I' for Inactive)
REMARK    1  A    between atoms: C_2  and  C_4
REMARK    2  A    between atoms: C_4  and  O_5
REMARK    3  A    between atoms: O_5  and  C_6
REMARK    4  A    between atoms: C_10  and  C_11
REMARK    5  A    between atoms: C_13  and  C_14
REMARK    6  A    between atoms: N_16  and  N_17
REMARK    7  A    between atoms: C_18  and  C_19
REMARK                            x       y       z     vdW  Elec       q    Type
REMARK                         _______ _______ _______ _____ _____    ______ ____
ROOT
ATOM      1  C   UNL     1      37.321   0.281  15.777  0.00  0.00    +0.000 A 
ATOM      2  C   UNL     1      37.999  -0.456  14.824  0.00  0.00    +0.000 A 
ATOM      3  C   UNL     1      38.564  -1.669  15.140  0.00  0.00    +0.000 A 
ATOM      4  C   UNL     1      38.426  -2.114  16.438  0.00  0.00    +0.000 A 
ATOM      5  C   UNL     1      38.961  -3.315  16.839  0.00  0.00    +0.000 A 
ATOM      6  C   UNL     1      38.814  -3.737  18.124  0.00  0.00    +0.000 A 
ATOM      7  C   UNL     1      38.141  -3.008  19.080  0.00  0.00    +0.000 A 
ATOM      8  C   UNL     1      37.601  -1.808  18.701  0.00  0.00    +0.000 A 
ATOM      9  C   UNL     1      37.740  -1.362  17.393  0.00  0.00    +0.000 A 
ATOM     10  N   UNL     1      37.205  -0.181  17.036  0.00  0.00    +0.000 NA
ENDROOT
BRANCH   1  15
ATOM     11  C   UNL     1      36.872   3.988  15.251  0.00  0.00    +0.000 A 
ATOM     12  C   UNL     1      35.565   4.046  14.824  0.00  0.00    +0.000 A 
ATOM     13  C   UNL     1      34.830   2.875  14.707  0.00  0.00    +0.000 A 
ATOM     14  C   UNL     1      35.404   1.641  15.018  0.00  0.00    +0.000 A 
ATOM     15  C   UNL     1      36.713   1.579  15.448  0.00  0.00    +0.000 A 
ATOM     16  C   UNL     1      37.429   2.741  15.559  0.00  0.00    +0.000 A 
BRANCH  11  17
ATOM     17  O   UNL     1      37.692   5.085  15.403  0.00  0.00    +0.000 OA
BRANCH  17  18
ATOM     18  C   UNL     1      39.003   5.034  15.894  0.00  0.00    +0.000 C 
BRANCH  18  20
ATOM     19  C   UNL     1      40.662   6.153  17.288  0.00  0.00    +0.000 C 
ATOM     20  C   UNL     1      39.202   5.783  17.173  0.00  0.00    +0.000 C 
ATOM     21  C   UNL     1      38.868   4.881  18.343  0.00  0.00    +0.000 C 
ENDBRANCH  18  20
ENDBRANCH  17  18
ENDBRANCH  11  17
ENDBRANCH   1  15
BRANCH   3  22
ATOM     22  C   UNL     1      39.288  -2.479  14.162  0.00  0.00    +0.000 C 
ATOM     23  O   UNL     1      38.607  -3.201  13.389  0.00  0.00    +0.000 OA
ATOM     24  N   UNL     1      40.680  -2.499  14.034  0.00  0.00    +0.000 NA
BRANCH  24  25
ATOM     25  N   UNL     1      41.385  -3.265  13.106  0.00  0.00    +0.000 NA
ATOM     26  C   UNL     1      42.576  -2.898  12.804  0.00  0.00    +0.000 C 
BRANCH  26  27
ATOM     27  C   UNL     1      43.121  -1.722  13.434  0.00  0.00    +0.000 A 
ATOM     28  C   UNL     1      43.892  -1.744  14.572  0.00  0.00    +0.000 A 
ATOM     29  C   UNL     1      44.213  -0.433  14.852  0.00  0.00    +0.000 A 
ATOM     30  C   UNL     1      43.619   0.325  13.867  0.00  0.00    +0.000 A 
ATOM     31  O   UNL     1      42.991  -0.498  13.062  0.00  0.00    +0.000 OA
ENDBRANCH  26  27
ENDBRANCH  24  25
ENDBRANCH   3  22
TORSDOF 7
ENDMDL
MODEL 7
REMARK VINA RESULT:      -7.8     24.697     27.603
REMARK  Name = 
REMARK  7 active torsions:
REMARK  status: ('A' for Active; 'I' for Inactive)
REMARK    1  A    between atoms: C_2  and  C_4
REMARK    2  A    between atoms: C_4  and  O_5
REMARK    3  A    between atoms: O_5  and  C_6
REMARK    4  A    between atoms: C_10  and  C_11
REMARK    5  A    between atoms: C_13  and  C_14
REMARK    6  A    between atoms: N_16  and  N_17
REMARK    7  A    between atoms: C_18  and  C_19
REMARK                            x       y       z     vdW  Elec       q    Type
REMARK                         _______ _______ _______ _____ _____    ______ ____
ROOT
ATOM      1  C   UNL     1      37.667   4.169  16.048  0.00  0.00    +0.000 A 
ATOM      2  C   UNL     1      36.906   3.234  16.723  0.00  0.00    +0.000 A 
ATOM      3  C   UNL     1      36.452   2.102  16.088  0.00  0.00    +0.000 A 
ATOM      4  C   UNL     1      36.786   1.943  14.760  0.00  0.00    +0.000 A 
ATOM      5  C   UNL     1      36.372   0.841  14.049  0.00  0.00    +0.000 A 
ATOM      6  C   UNL     1      36.713   0.702  12.739  0.00  0.00    +0.000 A 
ATOM      7  C   UNL     1      37.470   1.630  12.059  0.00  0.00    +0.000 A 
ATOM      8  C   UNL     1      37.891   2.735  12.748  0.00  0.00    +0.000 A 
ATOM      9  C   UNL     1      37.555   2.894  14.086  0.00  0.00    +0.000 A 
ATOM     10  N   UNL     1      37.976   3.984  14.750  0.00  0.00    +0.000 NA
ENDROOT
BRANCH   1  15
ATOM     11  C   UNL     1      39.226   6.455  18.610  0.00  0.00    +0.000 A 
ATOM     12  C   UNL     1      39.091   7.681  17.998  0.00  0.00    +0.000 A 
ATOM     13  C   UNL     1      38.493   7.762  16.749  0.00  0.00    +0.000 A 
ATOM     14  C   UNL     1      38.026   6.613  16.109  0.00  0.00    +0.000 A 
ATOM     15  C   UNL     1      38.158   5.382  16.719  0.00  0.00    +0.000 A 
ATOM     16  C   UNL     1      38.751   5.315  17.951  0.00  0.00    +0.000 A 
BRANCH  11  17
ATOM     17  O   UNL     1      39.803   6.259  19.845  0.00  0.00    +0.000 OA
BRANCH  17  18
ATOM     18  C   UNL     1      40.907   6.974  20.327  0.00  0.00    +0.000 C 
BRANCH  18  20
ATOM     19  C   UNL     1      43.087   6.520  21.323  0.00  0.00    +0.000 C 
ATOM     20  C   UNL     1      42.217   6.286  20.111  0.00  0.00    +0.000 C 
ATOM     21  C   UNL     1      42.921   6.904  18.921  0.00  0.00    +0.000 C 
ENDBRANCH  18  20
ENDBRANCH  17  18
ENDBRANCH  11  17
ENDBRANCH   1  15
BRANCH   3  22
ATOM     22  C   UNL     1      35.646   1.089  16.767  0.00  0.00    +0.000 C 
ATOM     23  O   UNL     1      34.419   1.326  16.914  0.00  0.00    +0.000 OA
ATOM     24  N   UNL     1      36.151  -0.119  17.257  0.00  0.00    +0.000 NA
BRANCH  24  25
ATOM     25  N   UNL     1      35.396  -1.096  17.905  0.00  0.00    +0.000 NA
ATOM     26  C   UNL     1      35.466  -2.300  17.469  0.00  0.00    +0.000 C 
BRANCH  26  27
ATOM     27  C   UNL     1      36.316  -2.579  16.339  0.00  0.00    +0.000 A 
ATOM     28  C   UNL     1      35.868  -2.680  15.043  0.00  0.00    +0.000 A 
ATOM     29  C   UNL     1      36.975  -2.952  14.268  0.00  0.00    +0.000 A 
ATOM     30  C   UNL     1      38.046  -3.004  15.133  0.00  0.00    +0.000 A 
ATOM     31  O   UNL     1      37.587  -2.775  16.340  0.00  0.00    +0.000 OA
ENDBRANCH  26  27
ENDBRANCH  24  25
ENDBRANCH   3  22
TORSDOF 7
ENDMDL
MODEL 8
REMARK VINA RESULT:      -7.7     28.328     31.165
REMARK  Name = 
REMARK  7 active torsions:
REMARK  status: ('A' for Active; 'I' for Inactive)
REMARK    1  A    between atoms: C_2  and  C_4
REMARK    2  A    between atoms: C_4  and  O_5
REMARK    3  A    between atoms: O_5  and  C_6
REMARK    4  A    between atoms: C_10  and  C_11
REMARK    5  A    between atoms: C_13  and  C_14
REMARK    6  A    between atoms: N_16  and  N_17
REMARK    7  A    between atoms: C_18  and  C_19
REMARK                            x       y       z     vdW  Elec       q    Type
REMARK                         _______ _______ _______ _____ _____    ______ ____
ROOT
ATOM      1  C   UNL     1      41.243  -1.669  14.566  0.00  0.00    +0.000 A 
ATOM      2  C   UNL     1      40.391  -0.598  14.369  0.00  0.00    +0.000 A 
ATOM      3  C   UNL     1      39.117  -0.606  14.886  0.00  0.00    +0.000 A 
ATOM      4  C   UNL     1      38.730  -1.718  15.603  0.00  0.00    +0.000 A 
ATOM      5  C   UNL     1      37.474  -1.809  16.154  0.00  0.00    +0.000 A 
ATOM      6  C   UNL     1      37.111  -2.915  16.858  0.00  0.00    +0.000 A 
ATOM      7  C   UNL     1      37.954  -3.986  17.058  0.00  0.00    +0.000 A 
ATOM      8  C   UNL     1      39.210  -3.917  16.517  0.00  0.00    +0.000 A 
ATOM      9  C   UNL     1      39.598  -2.795  15.796  0.00  0.00    +0.000 A 
ATOM     10  N   UNL     1      40.834  -2.741  15.270  0.00  0.00    +0.000 NA
ENDROOT
BRANCH   1  15
ATOM     11  C   UNL     1      44.931  -1.001  14.155  0.00  0.00    +0.000 A 
ATOM     12  C   UNL     1      45.199  -1.667  12.981  0.00  0.00    +0.000 A 
ATOM     13  C   UNL     1      44.177  -2.335  12.323  0.00  0.00    +0.000 A 
ATOM     14  C   UNL     1      42.881  -2.337  12.841  0.00  0.00    +0.000 A 
ATOM     15  C   UNL     1      42.607  -1.670  14.017  0.00  0.00    +0.000 A 
ATOM     16  C   UNL     1      43.625  -1.014  14.657  0.00  0.00    +0.000 A 
BRANCH  11  17
ATOM     17  O   UNL     1      45.868  -0.307  14.889  0.00  0.00    +0.000 OA
BRANCH  17  18
ATOM     18  C   UNL     1      46.950  -0.897  15.554  0.00  0.00    +0.000 C 
BRANCH  18  20
ATOM     19  C   UNL     1      46.120  -2.410  17.278  0.00  0.00    +0.000 C 
ATOM     20  C   UNL     1      46.744  -1.058  17.026  0.00  0.00    +0.000 C 
ATOM     21  C   UNL     1      45.767  -0.009  17.516  0.00  0.00    +0.000 C 
ENDBRANCH  18  20
ENDBRANCH  17  18
ENDBRANCH  11  17
ENDBRANCH   1  15
BRANCH   3  22
ATOM     22  C   UNL     1      38.186   0.506  14.701  0.00  0.00    +0.000 C 
ATOM     23  O   UNL     1      37.466   0.495  13.669  0.00  0.00    +0.000 OA
ATOM     24  N   UNL     1      38.047   1.571  15.596  0.00  0.00    +0.000 NA
BRANCH  24  25
ATOM     25  N   UNL     1      37.163   2.638  15.435  0.00  0.00    +0.000 NA
ATOM     26  C   UNL     1      36.124   2.678  16.186  0.00  0.00    +0.000 C 
BRANCH  26  27
ATOM     27  C   UNL     1      35.925   1.626  17.151  0.00  0.00    +0.000 A 
ATOM     28  C   UNL     1      34.934   0.677  17.062  0.00  0.00    +0.000 A 
ATOM     29  C   UNL     1      35.077  -0.139  18.163  0.00  0.00    +0.000 A 
ATOM     30  C   UNL     1      36.152   0.354  18.870  0.00  0.00    +0.000 A 
ATOM     31  O   UNL     1      36.606   1.397  18.216  0.00  0.00    +0.000 OA
ENDBRANCH  26  27
ENDBRANCH  24  25
ENDBRANCH   3  22
TORSDOF 7
ENDMDL
MODEL 9
REMARK VINA RESULT:      -7.6     25.414     28.411
REMARK  Name = 
REMARK  7 active torsions:
REMARK  status: ('A' for Active; 'I' for Inactive)
REMARK    1  A    between atoms: C_2  and  C_4
REMARK    2  A    between atoms: C_4  and  O_5
REMARK    3  A    between atoms: O_5  and  C_6
REMARK    4  A    between atoms: C_10  and  C_11
REMARK    5  A    between atoms: C_13  and  C_14
REMARK    6  A    between atoms: N_16  and  N_17
REMARK    7  A    between atoms: C_18  and  C_19
REMARK                            x       y       z     vdW  Elec       q    Type
REMARK                         _______ _______ _______ _____ _____    ______ ____
ROOT
ATOM      1  C   UNL     1      38.068   4.111  16.544  0.00  0.00    +0.000 A 
ATOM      2  C   UNL     1      38.805   3.641  15.473  0.00  0.00    +0.000 A 
ATOM      3  C   UNL     1      38.496   2.442  14.876  0.00  0.00    +0.000 A 
ATOM      4  C   UNL     1      37.429   1.735  15.387  0.00  0.00    +0.000 A 
ATOM      5  C   UNL     1      37.052   0.527  14.850  0.00  0.00    +0.000 A 
ATOM      6  C   UNL     1      35.995  -0.156  15.368  0.00  0.00    +0.000 A 
ATOM      7  C   UNL     1      35.256   0.306  16.435  0.00  0.00    +0.000 A 
ATOM      8  C   UNL     1      35.615   1.507  16.986  0.00  0.00    +0.000 A 
ATOM      9  C   UNL     1      36.690   2.218  16.469  0.00  0.00    +0.000 A 
ATOM     10  N   UNL     1      37.031   3.397  17.020  0.00  0.00    +0.000 NA
ENDROOT
BRANCH   1  15
ATOM     11  C   UNL     1      39.382   6.639  19.014  0.00  0.00    +0.000 A 
ATOM     12  C   UNL     1      39.007   7.822  18.418  0.00  0.00    +0.000 A 
ATOM     13  C   UNL     1      38.326   7.795  17.210  0.00  0.00    +0.000 A 
ATOM     14  C   UNL     1      38.018   6.580  16.595  0.00  0.00    +0.000 A 
ATOM     15  C   UNL     1      38.391   5.393  17.189  0.00  0.00    +0.000 A 
ATOM     16  C   UNL     1      39.063   5.432  18.381  0.00  0.00    +0.000 A 
BRANCH  11  17
ATOM     17  O   UNL     1      40.060   6.549  20.210  0.00  0.00    +0.000 OA
BRANCH  17  18
ATOM     18  C   UNL     1      41.395   6.144  20.336  0.00  0.00    +0.000 C 
BRANCH  18  20
ATOM     19  C   UNL     1      43.020   6.799  18.640  0.00  0.00    +0.000 C 
ATOM     20  C   UNL     1      42.388   7.194  19.954  0.00  0.00    +0.000 C 
ATOM     21  C   UNL     1      43.491   7.245  20.990  0.00  0.00    +0.000 C 
ENDBRANCH  18  20
ENDBRANCH  17  18
ENDBRANCH  11  17
ENDBRANCH   1  15
BRANCH   3  22
ATOM     22  C   UNL     1      39.250   1.910  13.742  0.00  0.00    +0.000 C 
ATOM     23  O   UNL     1      38.891   2.263  12.589  0.00  0.00    +0.000 OA
ATOM     24  N   UNL     1      40.338   1.040  13.860  0.00  0.00    +0.000 NA
BRANCH  24  25
ATOM     25  N   UNL     1      41.069   0.525  12.789  0.00  0.00    +0.000 NA
ATOM     26  C   UNL     1      41.123  -0.749  12.654  0.00  0.00    +0.000 C 
BRANCH  26  27
ATOM     27  C   UNL     1      40.431  -1.578  13.609  0.00  0.00    +0.000 A 
ATOM     28  C   UNL     1      40.994  -2.050  14.771  0.00  0.00    +0.000 A 
ATOM     29  C   UNL     1      40.021  -2.794  15.402  0.00  0.00    +0.000 A 
ATOM     30  C   UNL     1      38.909  -2.738  14.591  0.00  0.00    +0.000 A 
ATOM     31  O   UNL     1      39.219  -2.003  13.549  0.00  0.00    +0.000 OA
ENDBRANCH  26  27
ENDBRANCH  24  25
ENDBRANCH   3  22
TORSDOF 7
ENDMDL
MODEL 10
REMARK VINA RESULT:      -7.4     29.368     32.199
REMARK  Name = 
REMARK  7 active torsions:
REMARK  status: ('A' for Active; 'I' for Inactive)
REMARK    1  A    between atoms: C_2  and  C_4
REMARK    2  A    between atoms: C_4  and  O_5
REMARK    3  A    between atoms: O_5  and  C_6
REMARK    4  A    between atoms: C_10  and  C_11
REMARK    5  A    between atoms: C_13  and  C_14
REMARK    6  A    between atoms: N_16  and  N_17
REMARK    7  A    between atoms: C_18  and  C_19
REMARK                            x       y       z     vdW  Elec       q    Type
REMARK                         _______ _______ _______ _____ _____    ______ ____
ROOT
ATOM      1  C   UNL     1      41.111  -1.679  13.911  0.00  0.00    +0.000 A 
ATOM      2  C   UNL     1      40.377  -1.991  15.039  0.00  0.00    +0.000 A 
ATOM      3  C   UNL     1      39.071  -1.578  15.168  0.00  0.00    +0.000 A 
ATOM      4  C   UNL     1      38.532  -0.847  14.131  0.00  0.00    +0.000 A 
ATOM      5  C   UNL     1      37.235  -0.394  14.179  0.00  0.00    +0.000 A 
ATOM      6  C   UNL     1      36.721   0.326  13.145  0.00  0.00    +0.000 A 
ATOM      7  C   UNL     1      37.447   0.641  12.017  0.00  0.00    +0.000 A 
ATOM      8  C   UNL     1      38.741   0.201  11.950  0.00  0.00    +0.000 A 
ATOM      9  C   UNL     1      39.282  -0.537  12.995  0.00  0.00    +0.000 A 
ATOM     10  N   UNL     1      40.555  -0.963  12.916  0.00  0.00    +0.000 NA
ENDROOT
BRANCH   1  15
ATOM     11  C   UNL     1      44.191  -3.432  12.624  0.00  0.00    +0.000 A 
ATOM     12  C   UNL     1      45.156  -2.950  13.480  0.00  0.00    +0.000 A 
ATOM     13  C   UNL     1      44.802  -2.053  14.477  0.00  0.00    +0.000 A 
ATOM     14  C   UNL     1      43.477  -1.635  14.619  0.00  0.00    +0.000 A 
ATOM     15  C   UNL     1      42.507  -2.116  13.764  0.00  0.00    +0.000 A 
ATOM     16  C   UNL     1      42.869  -3.002  12.784  0.00  0.00    +0.000 A 
BRANCH  11  17
ATOM     17  O   UNL     1      44.431  -4.325  11.602  0.00  0.00    +0.000 OA
BRANCH  17  18
ATOM     18  C   UNL     1      43.674  -4.407  10.427  0.00  0.00    +0.000 C 
BRANCH  18  20
ATOM     19  C   UNL     1      42.973  -2.689   8.844  0.00  0.00    +0.000 C 
ATOM     20  C   UNL     1      44.147  -3.503   9.334  0.00  0.00    +0.000 C 
ATOM     21  C   UNL     1      44.640  -4.337   8.169  0.00  0.00    +0.000 C 
ENDBRANCH  18  20
ENDBRANCH  17  18
ENDBRANCH  11  17
ENDBRANCH   1  15
BRANCH   3  22
ATOM     22  C   UNL     1      38.260  -1.887  16.345  0.00  0.00    +0.000 C 
ATOM     23  O   UNL     1      37.679  -3.003  16.373  0.00  0.00    +0.000 OA
ATOM     24  N   UNL     1      38.093  -1.025  17.432  0.00  0.00    +0.000 NA
BRANCH  24  25
ATOM     25  N   UNL     1      37.324  -1.305  18.562  0.00  0.00    +0.000 NA
ATOM     26  C   UNL     1      36.306  -0.561  18.797  0.00  0.00    +0.000 C 
BRANCH  26  27
ATOM     27  C   UNL     1      36.010   0.518  17.888  0.00  0.00    +0.000 A 
ATOM     28  C   UNL     1      34.954   0.517  17.008  0.00  0.00    +0.000 A 
ATOM     29  C   UNL     1      35.014   1.712  16.325  0.00  0.00    +0.000 A 
ATOM     30  C   UNL     1      36.108   2.385  16.825  0.00  0.00    +0.000 A 
ATOM     31  O   UNL     1      36.651   1.623  17.745  0.00  0.00    +0.000 OA
ENDBRANCH  26  27
ENDBRANCH  24  25
ENDBRANCH   3  22
TORSDOF 7
ENDMDL
