MODEL 1
REMARK VINA RESULT:      -6.2      0.000      0.000
REMARK  Name = 
REMARK  2 active torsions:
REMARK  status: ('A' for Active; 'I' for Inactive)
REMARK    1  A    between atoms: C_2  and  C_10
REMARK    2  A    between atoms: N_3  and  C_4
REMARK                            x       y       z     vdW  Elec       q    Type
REMARK                         _______ _______ _______ _____ _____    ______ ____
ROOT
ATOM      1  C   UNL     1      33.906   1.539  35.580  0.00  0.00    +0.000 A 
ATOM      2  C   UNL     1      34.090   2.268  36.709  0.00  0.00    +0.000 A 
ATOM      3  C   UNL     1      34.091   3.615  36.615  0.00  0.00    +0.000 A 
ATOM      4  C   UNL     1      33.898   4.129  35.357  0.00  0.00    +0.000 A 
ATOM      5  S   UNL     1      33.730   2.742  34.387  0.00  0.00    +0.000 S 
ATOM      6  C   UNL     1      33.821   5.488  34.773  0.00  0.00    +0.000 C 
ATOM      7  C   UNL     1      35.231   6.086  34.869  0.00  0.00    +0.000 C 
ATOM      8  C   UNL     1      36.194   5.147  35.522  0.00  0.00    +0.000 C 
ATOM      9  C   UNL     1      36.329   5.320  36.997  0.00  0.00    +0.000 C 
ATOM     10  C   UNL     1      35.055   5.624  37.711  0.00  0.00    +0.000 C 
ATOM     11  C   UNL     1      34.308   4.331  37.951  0.00  0.00    +0.000 C 
ENDROOT
BRANCH   1  13
ATOM     12  O   UNL     1      34.763  -0.591  35.944  0.00  0.00    +0.000 OA
ATOM     13  C   UNL     1      33.861   0.087  35.396  0.00  0.00    +0.000 C 
ATOM     14  N   UNL     1      32.877  -0.569  34.653  0.00  0.00    +0.000 NA
BRANCH  14  15
ATOM     15  C   UNL     1      32.782  -1.955  34.442  0.00  0.00    +0.000 A 
ATOM     16  C   UNL     1      33.578  -2.522  33.469  0.00  0.00    +0.000 A 
ATOM     17  C   UNL     1      33.520  -3.881  33.223  0.00  0.00    +0.000 A 
ATOM     18  C   UNL     1      32.665  -4.684  33.948  0.00  0.00    +0.000 A 
ATOM     19  N   UNL     1      31.894  -4.135  34.889  0.00  0.00    +0.000 NA
ATOM     20  C   UNL     1      31.947  -2.809  35.133  0.00  0.00    +0.000 A 
ENDBRANCH  14  15
ENDBRANCH   1  13
TORSDOF 2
ENDMDL
MODEL 2
REMARK VINA RESULT:      -6.1      4.477      9.973
REMARK  Name = 
REMARK  2 active torsions:
REMARK  status: ('A' for Active; 'I' for Inactive)
REMARK    1  A    between atoms: C_2  and  C_10
REMARK    2  A    between atoms: N_3  and  C_4
REMARK                            x       y       z     vdW  Elec       q    Type
REMARK                         _______ _______ _______ _____ _____    ______ ____
ROOT
ATOM      1  C   UNL     1      32.976  -5.074  32.376  0.00  0.00    +0.000 A 
ATOM      2  C   UNL     1      33.552  -4.960  31.153  0.00  0.00    +0.000 A 
ATOM      3  C   UNL     1      33.241  -5.871  30.205  0.00  0.00    +0.000 A 
ATOM      4  C   UNL     1      32.350  -6.846  30.580  0.00  0.00    +0.000 A 
ATOM      5  S   UNL     1      31.997  -6.456  32.197  0.00  0.00    +0.000 S 
ATOM      6  C   UNL     1      31.726  -8.015  29.918  0.00  0.00    +0.000 C 
ATOM      7  C   UNL     1      32.847  -9.039  29.693  0.00  0.00    +0.000 C 
ATOM      8  C   UNL     1      34.170  -8.536  30.174  0.00  0.00    +0.000 C 
ATOM      9  C   UNL     1      34.985  -7.840  29.137  0.00  0.00    +0.000 C 
ATOM     10  C   UNL     1      34.206  -6.978  28.202  0.00  0.00    +0.000 C 
ATOM     11  C   UNL     1      33.949  -5.643  28.867  0.00  0.00    +0.000 C 
ENDROOT
BRANCH   1  13
ATOM     12  O   UNL     1      33.181  -4.824  34.678  0.00  0.00    +0.000 OA
ATOM     13  C   UNL     1      33.132  -4.239  33.568  0.00  0.00    +0.000 C 
ATOM     14  N   UNL     1      33.229  -2.846  33.531  0.00  0.00    +0.000 NA
BRANCH  14  15
ATOM     15  C   UNL     1      33.379  -1.994  34.638  0.00  0.00    +0.000 A 
ATOM     16  C   UNL     1      34.657  -1.656  35.032  0.00  0.00    +0.000 A 
ATOM     17  C   UNL     1      34.856  -0.821  36.115  0.00  0.00    +0.000 A 
ATOM     18  C   UNL     1      33.779  -0.317  36.814  0.00  0.00    +0.000 A 
ATOM     19  N   UNL     1      32.543  -0.645  36.433  0.00  0.00    +0.000 NA
ATOM     20  C   UNL     1      32.343  -1.459  35.376  0.00  0.00    +0.000 A 
ENDBRANCH  14  15
ENDBRANCH   1  13
TORSDOF 2
ENDMDL
MODEL 3
REMARK VINA RESULT:      -6.0     27.108     30.215
REMARK  Name = 
REMARK  2 active torsions:
REMARK  status: ('A' for Active; 'I' for Inactive)
REMARK    1  A    between atoms: C_2  and  C_10
REMARK    2  A    between atoms: N_3  and  C_4
REMARK                            x       y       z     vdW  Elec       q    Type
REMARK                         _______ _______ _______ _____ _____    ______ ____
ROOT
ATOM      1  C   UNL     1      29.363  26.701  20.113  0.00  0.00    +0.000 A 
ATOM      2  C   UNL     1      30.276  26.725  19.110  0.00  0.00    +0.000 A 
ATOM      3  C   UNL     1      30.329  27.813  18.312  0.00  0.00    +0.000 A 
ATOM      4  C   UNL     1      29.434  28.813  18.600  0.00  0.00    +0.000 A 
ATOM      5  S   UNL     1      28.580  28.203  19.938  0.00  0.00    +0.000 S 
ATOM      6  C   UNL     1      29.122  30.145  18.032  0.00  0.00    +0.000 C 
ATOM      7  C   UNL     1      28.495  29.897  16.653  0.00  0.00    +0.000 C 
ATOM      8  C   UNL     1      28.426  28.440  16.325  0.00  0.00    +0.000 C 
ATOM      9  C   UNL     1      29.600  27.915  15.570  0.00  0.00    +0.000 C 
ATOM     10  C   UNL     1      30.916  28.476  15.992  0.00  0.00    +0.000 C 
ATOM     11  C   UNL     1      31.396  27.729  17.217  0.00  0.00    +0.000 C 
ENDROOT
BRANCH   1  13
ATOM     12  O   UNL     1      29.643  24.549  20.947  0.00  0.00    +0.000 OA
ATOM     13  C   UNL     1      29.092  25.665  21.112  0.00  0.00    +0.000 C 
ATOM     14  N   UNL     1      28.264  25.854  22.220  0.00  0.00    +0.000 NA
BRANCH  14  15
ATOM     15  C   UNL     1      27.967  24.901  23.209  0.00  0.00    +0.000 A 
ATOM     16  C   UNL     1      26.786  24.197  23.101  0.00  0.00    +0.000 A 
ATOM     17  C   UNL     1      26.449  23.249  24.049  0.00  0.00    +0.000 A 
ATOM     18  C   UNL     1      27.291  22.997  25.112  0.00  0.00    +0.000 A 
ATOM     19  N   UNL     1      28.433  23.679  25.216  0.00  0.00    +0.000 NA
ATOM     20  C   UNL     1      28.767  24.605  24.294  0.00  0.00    +0.000 A 
ENDBRANCH  14  15
ENDBRANCH   1  13
TORSDOF 2
ENDMDL
MODEL 4
REMARK VINA RESULT:      -6.0     24.856     28.260
REMARK  Name = 
REMARK  2 active torsions:
REMARK  status: ('A' for Active; 'I' for Inactive)
REMARK    1  A    between atoms: C_2  and  C_10
REMARK    2  A    between atoms: N_3  and  C_4
REMARK                            x       y       z     vdW  Elec       q    Type
REMARK                         _______ _______ _______ _____ _____    ______ ____
ROOT
ATOM      1  C   UNL     1      28.933  24.498  22.609  0.00  0.00    +0.000 A 
ATOM      2  C   UNL     1      29.825  23.770  23.327  0.00  0.00    +0.000 A 
ATOM      3  C   UNL     1      29.382  23.091  24.407  0.00  0.00    +0.000 A 
ATOM      4  C   UNL     1      28.042  23.204  24.680  0.00  0.00    +0.000 A 
ATOM      5  S   UNL     1      27.475  24.228  23.446  0.00  0.00    +0.000 S 
ATOM      6  C   UNL     1      27.126  22.666  25.713  0.00  0.00    +0.000 C 
ATOM      7  C   UNL     1      27.515  23.342  27.035  0.00  0.00    +0.000 C 
ATOM      8  C   UNL     1      28.671  24.276  26.868  0.00  0.00    +0.000 C 
ATOM      9  C   UNL     1      30.007  23.663  27.117  0.00  0.00    +0.000 C 
ATOM     10  C   UNL     1      30.158  22.266  26.617  0.00  0.00    +0.000 C 
ATOM     11  C   UNL     1      30.475  22.307  25.138  0.00  0.00    +0.000 C 
ENDROOT
BRANCH   1  13
ATOM     12  O   UNL     1      29.682  24.768  20.425  0.00  0.00    +0.000 OA
ATOM     13  C   UNL     1      29.137  25.318  21.413  0.00  0.00    +0.000 C 
ATOM     14  N   UNL     1      28.759  26.659  21.319  0.00  0.00    +0.000 NA
BRANCH  14  15
ATOM     15  C   UNL     1      28.928  27.494  20.202  0.00  0.00    +0.000 A 
ATOM     16  C   UNL     1      30.179  27.566  19.625  0.00  0.00    +0.000 A 
ATOM     17  C   UNL     1      30.395  28.373  18.525  0.00  0.00    +0.000 A 
ATOM     18  C   UNL     1      29.363  29.116  17.991  0.00  0.00    +0.000 A 
ATOM     19  N   UNL     1      28.153  29.046  18.550  0.00  0.00    +0.000 NA
ATOM     20  C   UNL     1      27.936  28.259  19.624  0.00  0.00    +0.000 A 
ENDBRANCH  14  15
ENDBRANCH   1  13
TORSDOF 2
ENDMDL
MODEL 5
REMARK VINA RESULT:      -5.9     15.187     16.635
REMARK  Name = 
REMARK  2 active torsions:
REMARK  status: ('A' for Active; 'I' for Inactive)
REMARK    1  A    between atoms: C_2  and  C_10
REMARK    2  A    between atoms: N_3  and  C_4
REMARK                            x       y       z     vdW  Elec       q    Type
REMARK                         _______ _______ _______ _____ _____    ______ ____
ROOT
ATOM      1  C   UNL     1      20.737  10.081  37.955  0.00  0.00    +0.000 A 
ATOM      2  C   UNL     1      21.439  11.147  38.414  0.00  0.00    +0.000 A 
ATOM      3  C   UNL     1      22.583  11.487  37.780  0.00  0.00    +0.000 A 
ATOM      4  C   UNL     1      22.930  10.705  36.708  0.00  0.00    +0.000 A 
ATOM      5  S   UNL     1      21.676   9.558  36.635  0.00  0.00    +0.000 S 
ATOM      6  C   UNL     1      24.048  10.684  35.735  0.00  0.00    +0.000 C 
ATOM      7  C   UNL     1      25.301  10.273  36.520  0.00  0.00    +0.000 C 
ATOM      8  C   UNL     1      25.008  10.058  37.970  0.00  0.00    +0.000 C 
ATOM      9  C   UNL     1      25.210  11.259  38.831  0.00  0.00    +0.000 C 
ATOM     10  C   UNL     1      24.785  12.550  38.214  0.00  0.00    +0.000 C 
ATOM     11  C   UNL     1      23.289  12.703  38.385  0.00  0.00    +0.000 C 
ENDROOT
BRANCH   1  13
ATOM     12  O   UNL     1      18.613   9.208  37.589  0.00  0.00    +0.000 OA
ATOM     13  C   UNL     1      19.484   9.501  38.444  0.00  0.00    +0.000 C 
ATOM     14  N   UNL     1      19.216   9.262  39.793  0.00  0.00    +0.000 NA
BRANCH  14  15
ATOM     15  C   UNL     1      18.037   8.711  40.321  0.00  0.00    +0.000 A 
ATOM     16  C   UNL     1      16.981   9.558  40.584  0.00  0.00    +0.000 A 
ATOM     17  C   UNL     1      15.800   9.064  41.104  0.00  0.00    +0.000 A 
ATOM     18  C   UNL     1      15.665   7.717  41.367  0.00  0.00    +0.000 A 
ATOM     19  N   UNL     1      16.687   6.897  41.113  0.00  0.00    +0.000 NA
ATOM     20  C   UNL     1      17.841   7.374  40.605  0.00  0.00    +0.000 A 
ENDBRANCH  14  15
ENDBRANCH   1  13
TORSDOF 2
ENDMDL
MODEL 6
REMARK VINA RESULT:      -5.9     17.665     19.588
REMARK  Name = 
REMARK  2 active torsions:
REMARK  status: ('A' for Active; 'I' for Inactive)
REMARK    1  A    between atoms: C_2  and  C_10
REMARK    2  A    between atoms: N_3  and  C_4
REMARK                            x       y       z     vdW  Elec       q    Type
REMARK                         _______ _______ _______ _____ _____    ______ ____
ROOT
ATOM      1  C   UNL     1      21.260  -8.153  25.353  0.00  0.00    +0.000 A 
ATOM      2  C   UNL     1      20.336  -7.179  25.549  0.00  0.00    +0.000 A 
ATOM      3  C   UNL     1      19.409  -7.354  26.516  0.00  0.00    +0.000 A 
ATOM      4  C   UNL     1      19.494  -8.527  27.224  0.00  0.00    +0.000 A 
ATOM      5  S   UNL     1      20.831  -9.312  26.525  0.00  0.00    +0.000 S 
ATOM      6  C   UNL     1      18.735  -9.146  28.335  0.00  0.00    +0.000 C 
ATOM      7  C   UNL     1      17.357  -9.515  27.771  0.00  0.00    +0.000 C 
ATOM      8  C   UNL     1      17.217  -9.122  26.335  0.00  0.00    +0.000 C 
ATOM      9  C   UNL     1      16.629  -7.769  26.114  0.00  0.00    +0.000 C 
ATOM     10  C   UNL     1      17.074  -6.728  27.085  0.00  0.00    +0.000 C 
ATOM     11  C   UNL     1      18.419  -6.193  26.646  0.00  0.00    +0.000 C 
ENDROOT
BRANCH   1  13
ATOM     12  O   UNL     1      22.083  -8.021  23.183  0.00  0.00    +0.000 OA
ATOM     13  C   UNL     1      22.361  -8.222  24.390  0.00  0.00    +0.000 C 
ATOM     14  N   UNL     1      23.684  -8.495  24.745  0.00  0.00    +0.000 NA
BRANCH  14  15
ATOM     15  C   UNL     1      24.779  -8.575  23.869  0.00  0.00    +0.000 A 
ATOM     16  C   UNL     1      25.478  -7.418  23.592  0.00  0.00    +0.000 A 
ATOM     17  C   UNL     1      26.562  -7.445  22.736  0.00  0.00    +0.000 A 
ATOM     18  C   UNL     1      26.958  -8.628  22.150  0.00  0.00    +0.000 A 
ATOM     19  N   UNL     1      26.282  -9.747  22.417  0.00  0.00    +0.000 NA
ATOM     20  C   UNL     1      25.223  -9.727  23.252  0.00  0.00    +0.000 A 
ENDBRANCH  14  15
ENDBRANCH   1  13
TORSDOF 2
ENDMDL
MODEL 7
REMARK VINA RESULT:      -5.8     21.360     24.053
REMARK  Name = 
REMARK  2 active torsions:
REMARK  status: ('A' for Active; 'I' for Inactive)
REMARK    1  A    between atoms: C_2  and  C_10
REMARK    2  A    between atoms: N_3  and  C_4
REMARK                            x       y       z     vdW  Elec       q    Type
REMARK                         _______ _______ _______ _____ _____    ______ ____
ROOT
ATOM      1  C   UNL     1      28.792  22.641  28.248  0.00  0.00    +0.000 A 
ATOM      2  C   UNL     1      27.712  22.710  27.431  0.00  0.00    +0.000 A 
ATOM      3  C   UNL     1      27.911  22.698  26.095  0.00  0.00    +0.000 A 
ATOM      4  C   UNL     1      29.217  22.614  25.684  0.00  0.00    +0.000 A 
ATOM      5  S   UNL     1      30.087  22.558  27.145  0.00  0.00    +0.000 S 
ATOM      6  C   UNL     1      29.911  22.570  24.376  0.00  0.00    +0.000 C 
ATOM      7  C   UNL     1      29.735  23.956  23.741  0.00  0.00    +0.000 C 
ATOM      8  C   UNL     1      28.926  24.869  24.605  0.00  0.00    +0.000 C 
ATOM      9  C   UNL     1      27.464  24.866  24.317  0.00  0.00    +0.000 C 
ATOM     10  C   UNL     1      26.894  23.527  23.987  0.00  0.00    +0.000 C 
ATOM     11  C   UNL     1      26.621  22.780  25.274  0.00  0.00    +0.000 C 
ENDROOT
BRANCH   1  13
ATOM     12  O   UNL     1      27.783  22.546  30.340  0.00  0.00    +0.000 OA
ATOM     13  C   UNL     1      28.865  22.636  29.711  0.00  0.00    +0.000 C 
ATOM     14  N   UNL     1      30.060  22.724  30.428  0.00  0.00    +0.000 NA
BRANCH  14  15
ATOM     15  C   UNL     1      30.192  22.724  31.826  0.00  0.00    +0.000 A 
ATOM     16  C   UNL     1      30.471  21.528  32.455  0.00  0.00    +0.000 A 
ATOM     17  C   UNL     1      30.610  21.476  33.829  0.00  0.00    +0.000 A 
ATOM     18  C   UNL     1      30.471  22.620  34.586  0.00  0.00    +0.000 A 
ATOM     19  N   UNL     1      30.202  23.777  33.978  0.00  0.00    +0.000 NA
ATOM     20  C   UNL     1      30.066  23.833  32.637  0.00  0.00    +0.000 A 
ENDBRANCH  14  15
ENDBRANCH   1  13
TORSDOF 2
ENDMDL
MODEL 8
REMARK VINA RESULT:      -5.8     20.450     21.434
REMARK  Name = 
REMARK  2 active torsions:
REMARK  status: ('A' for Active; 'I' for Inactive)
REMARK    1  A    between atoms: C_2  and  C_10
REMARK    2  A    between atoms: N_3  and  C_4
REMARK                            x       y       z     vdW  Elec       q    Type
REMARK                         _______ _______ _______ _____ _____    ______ ____
ROOT
ATOM      1  C   UNL     1      24.470   3.671  16.789  0.00  0.00    +0.000 A 
ATOM      2  C   UNL     1      25.682   3.679  16.179  0.00  0.00    +0.000 A 
ATOM      3  C   UNL     1      26.715   4.283  16.804  0.00  0.00    +0.000 A 
ATOM      4  C   UNL     1      26.433   4.841  18.026  0.00  0.00    +0.000 A 
ATOM      5  S   UNL     1      24.780   4.507  18.239  0.00  0.00    +0.000 S 
ATOM      6  C   UNL     1      27.206   5.581  19.051  0.00  0.00    +0.000 C 
ATOM      7  C   UNL     1      27.551   6.945  18.437  0.00  0.00    +0.000 C 
ATOM      8  C   UNL     1      27.037   7.076  17.040  0.00  0.00    +0.000 C 
ATOM      9  C   UNL     1      28.006   6.674  15.980  0.00  0.00    +0.000 C 
ATOM     10  C   UNL     1      28.835   5.478  16.311  0.00  0.00    +0.000 C 
ATOM     11  C   UNL     1      28.031   4.230  16.023  0.00  0.00    +0.000 C 
ENDROOT
BRANCH   1  13
ATOM     12  O   UNL     1      22.839   3.339  15.165  0.00  0.00    +0.000 OA
ATOM     13  C   UNL     1      23.198   3.097  16.343  0.00  0.00    +0.000 C 
ATOM     14  N   UNL     1      22.380   2.305  17.152  0.00  0.00    +0.000 NA
BRANCH  14  15
ATOM     15  C   UNL     1      21.154   1.729  16.782  0.00  0.00    +0.000 A 
ATOM     16  C   UNL     1      20.014   2.146  17.437  0.00  0.00    +0.000 A 
ATOM     17  C   UNL     1      18.784   1.608  17.109  0.00  0.00    +0.000 A 
ATOM     18  C   UNL     1      18.683   0.649  16.124  0.00  0.00    +0.000 A 
ATOM     19  N   UNL     1      19.786   0.245  15.491  0.00  0.00    +0.000 NA
ATOM     20  C   UNL     1      20.989   0.767  15.807  0.00  0.00    +0.000 A 
ENDBRANCH  14  15
ENDBRANCH   1  13
TORSDOF 2
ENDMDL
MODEL 9
REMARK VINA RESULT:      -5.8     21.250     24.231
REMARK  Name = 
REMARK  2 active torsions:
REMARK  status: ('A' for Active; 'I' for Inactive)
REMARK    1  A    between atoms: C_2  and  C_10
REMARK    2  A    between atoms: N_3  and  C_4
REMARK                            x       y       z     vdW  Elec       q    Type
REMARK                         _______ _______ _______ _____ _____    ______ ____
ROOT
ATOM      1  C   UNL     1      29.514  22.839  26.849  0.00  0.00    +0.000 A 
ATOM      2  C   UNL     1      28.177  22.776  26.629  0.00  0.00    +0.000 A 
ATOM      3  C   UNL     1      27.723  22.919  25.365  0.00  0.00    +0.000 A 
ATOM      4  C   UNL     1      28.681  23.119  24.403  0.00  0.00    +0.000 A 
ATOM      5  S   UNL     1      30.135  23.097  25.285  0.00  0.00    +0.000 S 
ATOM      6  C   UNL     1      28.676  23.320  22.935  0.00  0.00    +0.000 C 
ATOM      7  C   UNL     1      28.050  24.700  22.686  0.00  0.00    +0.000 C 
ATOM      8  C   UNL     1      27.637  25.365  23.960  0.00  0.00    +0.000 C 
ATOM      9  C   UNL     1      26.224  25.113  24.364  0.00  0.00    +0.000 C 
ATOM     10  C   UNL     1      25.738  23.725  24.109  0.00  0.00    +0.000 C 
ATOM     11  C   UNL     1      26.200  22.830  25.238  0.00  0.00    +0.000 C 
ENDROOT
BRANCH   1  13
ATOM     12  O   UNL     1      29.841  23.358  29.092  0.00  0.00    +0.000 OA
ATOM     13  C   UNL     1      30.267  22.718  28.099  0.00  0.00    +0.000 C 
ATOM     14  N   UNL     1      31.416  21.937  28.239  0.00  0.00    +0.000 NA
BRANCH  14  15
ATOM     15  C   UNL     1      32.178  21.783  29.409  0.00  0.00    +0.000 A 
ATOM     16  C   UNL     1      33.514  22.126  29.367  0.00  0.00    +0.000 A 
ATOM     17  C   UNL     1      34.305  21.991  30.492  0.00  0.00    +0.000 A 
ATOM     18  C   UNL     1      33.769  21.512  31.668  0.00  0.00    +0.000 A 
ATOM     19  N   UNL     1      32.477  21.179  31.708  0.00  0.00    +0.000 NA
ATOM     20  C   UNL     1      31.700  21.309  30.614  0.00  0.00    +0.000 A 
ENDBRANCH  14  15
ENDBRANCH   1  13
TORSDOF 2
ENDMDL
MODEL 10
REMARK VINA RESULT:      -5.7     15.938     17.728
REMARK  Name = 
REMARK  2 active torsions:
REMARK  status: ('A' for Active; 'I' for Inactive)
REMARK    1  A    between atoms: C_2  and  C_10
REMARK    2  A    between atoms: N_3  and  C_4
REMARK                            x       y       z     vdW  Elec       q    Type
REMARK                         _______ _______ _______ _____ _____    ______ ____
ROOT
ATOM      1  C   UNL     1      19.805   9.203  39.857  0.00  0.00    +0.000 A 
ATOM      2  C   UNL     1      19.626   9.425  41.183  0.00  0.00    +0.000 A 
ATOM      3  C   UNL     1      18.636   8.763  41.820  0.00  0.00    +0.000 A 
ATOM      4  C   UNL     1      17.891   7.909  41.046  0.00  0.00    +0.000 A 
ATOM      5  S   UNL     1      18.589   8.065  39.503  0.00  0.00    +0.000 S 
ATOM      6  C   UNL     1      16.745   6.999  41.282  0.00  0.00    +0.000 C 
ATOM      7  C   UNL     1      15.532   7.892  41.575  0.00  0.00    +0.000 C 
ATOM      8  C   UNL     1      15.887   9.343  41.554  0.00  0.00    +0.000 C 
ATOM      9  C   UNL     1      16.265   9.911  42.880  0.00  0.00    +0.000 C 
ATOM     10  C   UNL     1      17.079   9.003  43.740  0.00  0.00    +0.000 C 
ATOM     11  C   UNL     1      18.527   9.092  43.311  0.00  0.00    +0.000 C 
ENDROOT
BRANCH   1  13
ATOM     12  O   UNL     1      20.422  10.761  38.245  0.00  0.00    +0.000 OA
ATOM     13  C   UNL     1      20.786   9.777  38.933  0.00  0.00    +0.000 C 
ATOM     14  N   UNL     1      22.087   9.291  38.785  0.00  0.00    +0.000 NA
BRANCH  14  15
ATOM     15  C   UNL     1      23.070   9.797  37.918  0.00  0.00    +0.000 A 
ATOM     16  C   UNL     1      23.161   9.260  36.651  0.00  0.00    +0.000 A 
ATOM     17  C   UNL     1      24.112   9.725  35.762  0.00  0.00    +0.000 A 
ATOM     18  C   UNL     1      24.979  10.731  36.132  0.00  0.00    +0.000 A 
ATOM     19  N   UNL     1      24.891  11.250  37.359  0.00  0.00    +0.000 NA
ATOM     20  C   UNL     1      23.965  10.800  38.230  0.00  0.00    +0.000 A 
ENDBRANCH  14  15
ENDBRANCH   1  13
TORSDOF 2
ENDMDL
