MODEL 1
REMARK VINA RESULT:      -7.9      0.000      0.000
REMARK  Name = 
REMARK  0 active torsions:
REMARK  status: ('A' for Active; 'I' for Inactive)
REMARK                            x       y       z     vdW  Elec       q    Type
REMARK                         _______ _______ _______ _____ _____    ______ ____
ROOT
ATOM      1  C   UNL     1      28.060  24.762  27.989  0.00  0.00    +0.000 C 
ATOM      2  C   UNL     1      26.990  23.729  28.160  0.00  0.00    +0.000 C 
ATOM      3  C   UNL     1      25.847  23.824  27.246  0.00  0.00    +0.000 C 
ATOM      4  C   UNL     1      26.133  23.213  25.890  0.00  0.00    +0.000 C 
ATOM      5  C   UNL     1      27.617  23.127  25.671  0.00  0.00    +0.000 A 
ATOM      6  C   UNL     1      28.458  22.677  26.637  0.00  0.00    +0.000 A 
ATOM      7  C   UNL     1      29.788  22.583  26.485  0.00  0.00    +0.000 A 
ATOM      8  C   UNL     1      30.307  22.980  25.243  0.00  0.00    +0.000 A 
ATOM      9  C   UNL     1      29.461  23.438  24.255  0.00  0.00    +0.000 A 
ATOM     10  C   UNL     1      29.965  23.836  23.015  0.00  0.00    +0.000 A 
ATOM     11  C   UNL     1      29.077  24.291  22.048  0.00  0.00    +0.000 A 
ATOM     12  N   UNL     1      29.568  24.706  20.765  0.00  0.00    +0.000 NA
ATOM     13  C   UNL     1      27.721  24.371  22.249  0.00  0.00    +0.000 A 
ATOM     14  C   UNL     1      27.211  23.974  23.486  0.00  0.00    +0.000 A 
ATOM     15  C   UNL     1      28.097  23.529  24.427  0.00  0.00    +0.000 A 
ATOM     16  C   UNL     1      27.709  22.281  27.944  0.00  0.00    +0.000 C 
ATOM     17  C   UNL     1      28.885  22.687  28.994  0.00  0.00    +0.000 C 
ATOM     18  C   UNL     1      27.947  22.973  30.179  0.00  0.00    +0.000 C 
ATOM     19  C   UNL     1      26.706  23.526  29.575  0.00  0.00    +0.000 C 
ATOM     20  O   UNL     1      25.657  23.767  30.126  0.00  0.00    +0.000 OA
ENDROOT
TORSDOF 0
ENDMDL
MODEL 2
REMARK VINA RESULT:      -7.8      3.398      6.106
REMARK  Name = 
REMARK  0 active torsions:
REMARK  status: ('A' for Active; 'I' for Inactive)
REMARK                            x       y       z     vdW  Elec       q    Type
REMARK                         _______ _______ _______ _____ _____    ______ ____
ROOT
ATOM      1  C   UNL     1      28.759  25.204  24.276  0.00  0.00    +0.000 C 
ATOM      2  C   UNL     1      29.289  24.121  23.390  0.00  0.00    +0.000 C 
ATOM      3  C   UNL     1      30.646  23.649  23.686  0.00  0.00    +0.000 C 
ATOM      4  C   UNL     1      30.679  22.648  24.823  0.00  0.00    +0.000 C 
ATOM      5  C   UNL     1      29.434  22.777  25.653  0.00  0.00    +0.000 A 
ATOM      6  C   UNL     1      28.205  22.888  25.087  0.00  0.00    +0.000 A 
ATOM      7  C   UNL     1      27.067  23.004  25.790  0.00  0.00    +0.000 A 
ATOM      8  C   UNL     1      27.190  23.007  27.188  0.00  0.00    +0.000 A 
ATOM      9  C   UNL     1      28.435  22.894  27.772  0.00  0.00    +0.000 A 
ATOM     10  C   UNL     1      28.570  22.896  29.162  0.00  0.00    +0.000 A 
ATOM     11  C   UNL     1      29.843  22.781  29.709  0.00  0.00    +0.000 A 
ATOM     12  N   UNL     1      30.011  22.780  31.134  0.00  0.00    +0.000 NA
ATOM     13  C   UNL     1      30.981  22.664  28.949  0.00  0.00    +0.000 A 
ATOM     14  C   UNL     1      30.852  22.662  27.559  0.00  0.00    +0.000 A 
ATOM     15  C   UNL     1      29.593  22.776  27.037  0.00  0.00    +0.000 A 
ATOM     16  C   UNL     1      28.259  22.865  23.531  0.00  0.00    +0.000 C 
ATOM     17  C   UNL     1      26.991  23.850  23.261  0.00  0.00    +0.000 C 
ATOM     18  C   UNL     1      27.481  24.364  21.896  0.00  0.00    +0.000 C 
ATOM     19  C   UNL     1      28.963  24.403  21.998  0.00  0.00    +0.000 C 
ATOM     20  O   UNL     1      29.762  24.622  21.117  0.00  0.00    +0.000 OA
ENDROOT
TORSDOF 0
ENDMDL
MODEL 3
REMARK VINA RESULT:      -7.4      1.969      2.757
REMARK  Name = 
REMARK  0 active torsions:
REMARK  status: ('A' for Active; 'I' for Inactive)
REMARK                            x       y       z     vdW  Elec       q    Type
REMARK                         _______ _______ _______ _____ _____    ______ ____
ROOT
ATOM      1  C   UNL     1      30.166  24.628  28.077  0.00  0.00    +0.000 C 
ATOM      2  C   UNL     1      29.868  23.417  28.904  0.00  0.00    +0.000 C 
ATOM      3  C   UNL     1      28.451  23.061  29.042  0.00  0.00    +0.000 C 
ATOM      4  C   UNL     1      27.924  22.296  27.845  0.00  0.00    +0.000 C 
ATOM      5  C   UNL     1      28.811  22.533  26.656  0.00  0.00    +0.000 A 
ATOM      6  C   UNL     1      30.164  22.489  26.752  0.00  0.00    +0.000 A 
ATOM      7  C   UNL     1      30.993  22.693  25.718  0.00  0.00    +0.000 A 
ATOM      8  C   UNL     1      30.395  22.967  24.478  0.00  0.00    +0.000 A 
ATOM      9  C   UNL     1      29.020  23.014  24.370  0.00  0.00    +0.000 A 
ATOM     10  C   UNL     1      28.413  23.285  23.142  0.00  0.00    +0.000 A 
ATOM     11  C   UNL     1      27.025  23.324  23.078  0.00  0.00    +0.000 A 
ATOM     12  N   UNL     1      26.374  23.600  21.830  0.00  0.00    +0.000 NA
ATOM     13  C   UNL     1      26.215  23.108  24.166  0.00  0.00    +0.000 A 
ATOM     14  C   UNL     1      26.816  22.836  25.396  0.00  0.00    +0.000 A 
ATOM     15  C   UNL     1      28.183  22.802  25.442  0.00  0.00    +0.000 A 
ATOM     16  C   UNL     1      30.650  22.173  28.198  0.00  0.00    +0.000 C 
ATOM     17  C   UNL     1      32.027  23.040  28.152  0.00  0.00    +0.000 C 
ATOM     18  C   UNL     1      32.096  23.304  29.666  0.00  0.00    +0.000 C 
ATOM     19  C   UNL     1      30.683  23.417  30.112  0.00  0.00    +0.000 C 
ATOM     20  O   UNL     1      30.266  23.494  31.244  0.00  0.00    +0.000 OA
ENDROOT
TORSDOF 0
ENDMDL
MODEL 4
REMARK VINA RESULT:      -7.2      3.492      6.351
REMARK  Name = 
REMARK  0 active torsions:
REMARK  status: ('A' for Active; 'I' for Inactive)
REMARK                            x       y       z     vdW  Elec       q    Type
REMARK                         _______ _______ _______ _____ _____    ______ ____
ROOT
ATOM      1  C   UNL     1      27.785  24.975  25.338  0.00  0.00    +0.000 C 
ATOM      2  C   UNL     1      27.749  23.515  25.010  0.00  0.00    +0.000 C 
ATOM      3  C   UNL     1      28.529  22.636  25.888  0.00  0.00    +0.000 C 
ATOM      4  C   UNL     1      27.801  22.302  27.174  0.00  0.00    +0.000 C 
ATOM      5  C   UNL     1      26.729  23.321  27.433  0.00  0.00    +0.000 A 
ATOM      6  C   UNL     1      25.893  23.747  26.453  0.00  0.00    +0.000 A 
ATOM      7  C   UNL     1      24.922  24.654  26.640  0.00  0.00    +0.000 A 
ATOM      8  C   UNL     1      24.791  25.173  27.937  0.00  0.00    +0.000 A 
ATOM      9  C   UNL     1      25.635  24.747  28.942  0.00  0.00    +0.000 A 
ATOM     10  C   UNL     1      25.514  25.256  30.236  0.00  0.00    +0.000 A 
ATOM     11  C   UNL     1      26.387  24.799  31.217  0.00  0.00    +0.000 A 
ATOM     12  N   UNL     1      26.285  25.305  32.556  0.00  0.00    +0.000 NA
ATOM     13  C   UNL     1      27.367  23.867  30.978  0.00  0.00    +0.000 A 
ATOM     14  C   UNL     1      27.492  23.355  29.686  0.00  0.00    +0.000 A 
ATOM     15  C   UNL     1      26.627  23.814  28.732  0.00  0.00    +0.000 A 
ATOM     16  C   UNL     1      26.183  23.065  25.083  0.00  0.00    +0.000 C 
ATOM     17  C   UNL     1      25.760  24.316  24.130  0.00  0.00    +0.000 C 
ATOM     18  C   UNL     1      26.674  23.933  22.953  0.00  0.00    +0.000 C 
ATOM     19  C   UNL     1      27.877  23.317  23.572  0.00  0.00    +0.000 C 
ATOM     20  O   UNL     1      28.793  22.757  23.016  0.00  0.00    +0.000 OA
ENDROOT
TORSDOF 0
ENDMDL
MODEL 5
REMARK VINA RESULT:      -7.0     21.631     23.436
REMARK  Name = 
REMARK  0 active torsions:
REMARK  status: ('A' for Active; 'I' for Inactive)
REMARK                            x       y       z     vdW  Elec       q    Type
REMARK                         _______ _______ _______ _____ _____    ______ ____
ROOT
ATOM      1  C   UNL     1      36.356   4.769  36.232  0.00  0.00    +0.000 C 
ATOM      2  C   UNL     1      35.283   5.779  35.976  0.00  0.00    +0.000 C 
ATOM      3  C   UNL     1      34.744   5.819  34.613  0.00  0.00    +0.000 C 
ATOM      4  C   UNL     1      33.705   4.745  34.365  0.00  0.00    +0.000 C 
ATOM      5  C   UNL     1      33.857   3.645  35.375  0.00  0.00    +0.000 A 
ATOM      6  C   UNL     1      34.039   3.905  36.695  0.00  0.00    +0.000 A 
ATOM      7  C   UNL     1      34.178   2.954  37.631  0.00  0.00    +0.000 A 
ATOM      8  C   UNL     1      34.129   1.623  37.187  0.00  0.00    +0.000 A 
ATOM      9  C   UNL     1      33.944   1.348  35.847  0.00  0.00    +0.000 A 
ATOM     10  C   UNL     1      33.893   0.029  35.393  0.00  0.00    +0.000 A 
ATOM     11  C   UNL     1      33.707  -0.202  34.035  0.00  0.00    +0.000 A 
ATOM     12  N   UNL     1      33.650  -1.548  33.541  0.00  0.00    +0.000 NA
ATOM     13  C   UNL     1      33.568   0.805  33.112  0.00  0.00    +0.000 A 
ATOM     14  C   UNL     1      33.618   2.126  33.560  0.00  0.00    +0.000 A 
ATOM     15  C   UNL     1      33.803   2.337  34.899  0.00  0.00    +0.000 A 
ATOM     16  C   UNL     1      34.067   5.431  37.005  0.00  0.00    +0.000 C 
ATOM     17  C   UNL     1      35.112   5.374  38.251  0.00  0.00    +0.000 C 
ATOM     18  C   UNL     1      35.652   6.803  38.068  0.00  0.00    +0.000 C 
ATOM     19  C   UNL     1      35.626   7.049  36.603  0.00  0.00    +0.000 C 
ATOM     20  O   UNL     1      35.841   8.088  36.021  0.00  0.00    +0.000 OA
ENDROOT
TORSDOF 0
ENDMDL
MODEL 6
REMARK VINA RESULT:      -7.0     31.606     32.777
REMARK  Name = 
REMARK  0 active torsions:
REMARK  status: ('A' for Active; 'I' for Inactive)
REMARK                            x       y       z     vdW  Elec       q    Type
REMARK                         _______ _______ _______ _____ _____    ______ ____
ROOT
ATOM      1  C   UNL     1      22.059  -9.227  22.781  0.00  0.00    +0.000 C 
ATOM      2  C   UNL     1      23.389  -8.660  23.166  0.00  0.00    +0.000 C 
ATOM      3  C   UNL     1      23.473  -7.197  23.236  0.00  0.00    +0.000 C 
ATOM      4  C   UNL     1      22.931  -6.643  24.537  0.00  0.00    +0.000 C 
ATOM      5  C   UNL     1      22.020  -7.649  25.180  0.00  0.00    +0.000 A 
ATOM      6  C   UNL     1      22.351  -8.963  25.266  0.00  0.00    +0.000 A 
ATOM      7  C   UNL     1      21.569  -9.895  25.832  0.00  0.00    +0.000 A 
ATOM      8  C   UNL     1      20.344  -9.453  26.355  0.00  0.00    +0.000 A 
ATOM      9  C   UNL     1      19.998  -8.120  26.272  0.00  0.00    +0.000 A 
ATOM     10  C   UNL     1      18.782  -7.669  26.789  0.00  0.00    +0.000 A 
ATOM     11  C   UNL     1      18.473  -6.317  26.683  0.00  0.00    +0.000 A 
ATOM     12  N   UNL     1      17.230  -5.826  27.206  0.00  0.00    +0.000 NA
ATOM     13  C   UNL     1      19.306  -5.398  26.095  0.00  0.00    +0.000 A 
ATOM     14  C   UNL     1      20.523  -5.844  25.577  0.00  0.00    +0.000 A 
ATOM     15  C   UNL     1      20.813  -7.176  25.688  0.00  0.00    +0.000 A 
ATOM     16  C   UNL     1      23.742  -9.271  24.637  0.00  0.00    +0.000 C 
ATOM     17  C   UNL     1      23.409 -10.775  24.112  0.00  0.00    +0.000 C 
ATOM     18  C   UNL     1      24.425 -10.768  22.958  0.00  0.00    +0.000 C 
ATOM     19  C   UNL     1      24.459  -9.364  22.471  0.00  0.00    +0.000 C 
ATOM     20  O   UNL     1      25.213  -8.878  21.660  0.00  0.00    +0.000 OA
ENDROOT
TORSDOF 0
ENDMDL
MODEL 7
REMARK VINA RESULT:      -6.8      3.319      5.631
REMARK  Name = 
REMARK  0 active torsions:
REMARK  status: ('A' for Active; 'I' for Inactive)
REMARK                            x       y       z     vdW  Elec       q    Type
REMARK                         _______ _______ _______ _____ _____    ______ ____
ROOT
ATOM      1  C   UNL     1      27.957  24.998  25.897  0.00  0.00    +0.000 C 
ATOM      2  C   UNL     1      27.873  23.862  24.928  0.00  0.00    +0.000 C 
ATOM      3  C   UNL     1      29.151  23.283  24.498  0.00  0.00    +0.000 C 
ATOM      4  C   UNL     1      29.715  22.301  25.504  0.00  0.00    +0.000 C 
ATOM      5  C   UNL     1      29.102  22.546  26.853  0.00  0.00    +0.000 A 
ATOM      6  C   UNL     1      27.769  22.749  27.009  0.00  0.00    +0.000 A 
ATOM      7  C   UNL     1      27.180  22.970  28.194  0.00  0.00    +0.000 A 
ATOM      8  C   UNL     1      28.019  22.985  29.319  0.00  0.00    +0.000 A 
ATOM      9  C   UNL     1      29.376  22.779  29.172  0.00  0.00    +0.000 A 
ATOM     10  C   UNL     1      30.221  22.792  30.283  0.00  0.00    +0.000 A 
ATOM     11  C   UNL     1      31.581  22.580  30.089  0.00  0.00    +0.000 A 
ATOM     12  N   UNL     1      32.472  22.588  31.214  0.00  0.00    +0.000 NA
ATOM     13  C   UNL     1      32.140  22.358  28.855  0.00  0.00    +0.000 A 
ATOM     14  C   UNL     1      31.300  22.344  27.741  0.00  0.00    +0.000 A 
ATOM     15  C   UNL     1      29.964  22.554  27.948  0.00  0.00    +0.000 A 
ATOM     16  C   UNL     1      26.996  22.697  25.658  0.00  0.00    +0.000 C 
ATOM     17  C   UNL     1      25.839  23.779  26.034  0.00  0.00    +0.000 C 
ATOM     18  C   UNL     1      25.569  24.230  24.589  0.00  0.00    +0.000 C 
ATOM     19  C   UNL     1      26.883  24.148  23.898  0.00  0.00    +0.000 C 
ATOM     20  O   UNL     1      27.111  24.286  22.719  0.00  0.00    +0.000 OA
ENDROOT
TORSDOF 0
ENDMDL
MODEL 8
REMARK VINA RESULT:      -6.6     29.835     31.262
REMARK  Name = 
REMARK  0 active torsions:
REMARK  status: ('A' for Active; 'I' for Inactive)
REMARK                            x       y       z     vdW  Elec       q    Type
REMARK                         _______ _______ _______ _____ _____    ______ ____
ROOT
ATOM      1  C   UNL     1      33.961  -7.650  30.858  0.00  0.00    +0.000 C 
ATOM      2  C   UNL     1      32.823  -7.401  29.919  0.00  0.00    +0.000 C 
ATOM      3  C   UNL     1      31.521  -7.941  30.324  0.00  0.00    +0.000 C 
ATOM      4  C   UNL     1      30.807  -7.055  31.324  0.00  0.00    +0.000 C 
ATOM      5  C   UNL     1      31.796  -6.149  32.000  0.00  0.00    +0.000 A 
ATOM      6  C   UNL     1      32.754  -5.487  31.302  0.00  0.00    +0.000 A 
ATOM      7  C   UNL     1      33.656  -4.668  31.864  0.00  0.00    +0.000 A 
ATOM      8  C   UNL     1      33.577  -4.509  33.256  0.00  0.00    +0.000 A 
ATOM      9  C   UNL     1      32.607  -5.177  33.975  0.00  0.00    +0.000 A 
ATOM     10  C   UNL     1      32.518  -5.026  35.360  0.00  0.00    +0.000 A 
ATOM     11  C   UNL     1      31.526  -5.718  36.044  0.00  0.00    +0.000 A 
ATOM     12  N   UNL     1      31.412  -5.581  37.468  0.00  0.00    +0.000 NA
ATOM     13  C   UNL     1      30.623  -6.547  35.425  0.00  0.00    +0.000 A 
ATOM     14  C   UNL     1      30.707  -6.701  34.041  0.00  0.00    +0.000 A 
ATOM     15  C   UNL     1      31.688  -6.014  33.382  0.00  0.00    +0.000 A 
ATOM     16  C   UNL     1      32.691  -5.782  29.774  0.00  0.00    +0.000 C 
ATOM     17  C   UNL     1      34.285  -5.661  29.469  0.00  0.00    +0.000 C 
ATOM     18  C   UNL     1      34.284  -6.600  28.251  0.00  0.00    +0.000 C 
ATOM     19  C   UNL     1      33.246  -7.623  28.543  0.00  0.00    +0.000 C 
ATOM     20  O   UNL     1      32.820  -8.479  27.803  0.00  0.00    +0.000 OA
ENDROOT
TORSDOF 0
ENDMDL
MODEL 9
REMARK VINA RESULT:      -6.6     20.856     21.551
REMARK  Name = 
REMARK  0 active torsions:
REMARK  status: ('A' for Active; 'I' for Inactive)
REMARK                            x       y       z     vdW  Elec       q    Type
REMARK                         _______ _______ _______ _____ _____    ______ ____
ROOT
ATOM      1  C   UNL     1      24.436   3.415  16.007  0.00  0.00    +0.000 C 
ATOM      2  C   UNL     1      25.187   2.593  17.007  0.00  0.00    +0.000 C 
ATOM      3  C   UNL     1      26.461   2.026  16.551  0.00  0.00    +0.000 C 
ATOM      4  C   UNL     1      27.598   3.024  16.610  0.00  0.00    +0.000 C 
ATOM      5  C   UNL     1      27.049   4.422  16.637  0.00  0.00    +0.000 A 
ATOM      6  C   UNL     1      26.007   4.767  17.434  0.00  0.00    +0.000 A 
ATOM      7  C   UNL     1      25.485   6.002  17.490  0.00  0.00    +0.000 A 
ATOM      8  C   UNL     1      26.076   6.970  16.664  0.00  0.00    +0.000 A 
ATOM      9  C   UNL     1      27.137   6.630  15.850  0.00  0.00    +0.000 A 
ATOM     10  C   UNL     1      27.733   7.585  15.023  0.00  0.00    +0.000 A 
ATOM     11  C   UNL     1      28.798   7.199  14.218  0.00  0.00    +0.000 A 
ATOM     12  N   UNL     1      29.430   8.159  13.360  0.00  0.00    +0.000 NA
ATOM     13  C   UNL     1      29.299   5.920  14.194  0.00  0.00    +0.000 A 
ATOM     14  C   UNL     1      28.707   4.962  15.019  0.00  0.00    +0.000 A 
ATOM     15  C   UNL     1      27.660   5.357  15.804  0.00  0.00    +0.000 A 
ATOM     16  C   UNL     1      25.480   3.569  18.280  0.00  0.00    +0.000 C 
ATOM     17  C   UNL     1      23.914   4.013  18.323  0.00  0.00    +0.000 C 
ATOM     18  C   UNL     1      23.353   2.591  18.488  0.00  0.00    +0.000 C 
ATOM     19  C   UNL     1      24.275   1.711  17.724  0.00  0.00    +0.000 C 
ATOM     20  O   UNL     1      24.288   0.502  17.688  0.00  0.00    +0.000 OA
ENDROOT
TORSDOF 0
ENDMDL
MODEL 10
REMARK VINA RESULT:      -6.4     20.904     21.680
REMARK  Name = 
REMARK  0 active torsions:
REMARK  status: ('A' for Active; 'I' for Inactive)
REMARK                            x       y       z     vdW  Elec       q    Type
REMARK                         _______ _______ _______ _____ _____    ______ ____
ROOT
ATOM      1  C   UNL     1      25.685   6.829  17.183  0.00  0.00    +0.000 C 
ATOM      2  C   UNL     1      26.677   6.068  18.004  0.00  0.00    +0.000 C 
ATOM      3  C   UNL     1      26.135   5.315  19.140  0.00  0.00    +0.000 C 
ATOM      4  C   UNL     1      25.546   3.981  18.728  0.00  0.00    +0.000 C 
ATOM      5  C   UNL     1      25.226   3.996  17.261  0.00  0.00    +0.000 A 
ATOM      6  C   UNL     1      26.094   4.493  16.343  0.00  0.00    +0.000 A 
ATOM      7  C   UNL     1      25.849   4.525  15.024  0.00  0.00    +0.000 A 
ATOM      8  C   UNL     1      24.614   4.008  14.602  0.00  0.00    +0.000 A 
ATOM      9  C   UNL     1      23.725   3.500  15.527  0.00  0.00    +0.000 A 
ATOM     10  C   UNL     1      22.494   2.983  15.120  0.00  0.00    +0.000 A 
ATOM     11  C   UNL     1      21.628   2.482  16.085  0.00  0.00    +0.000 A 
ATOM     12  N   UNL     1      20.357   1.944  15.695  0.00  0.00    +0.000 NA
ATOM     13  C   UNL     1      21.922   2.470  17.427  0.00  0.00    +0.000 A 
ATOM     14  C   UNL     1      23.152   2.986  17.839  0.00  0.00    +0.000 A 
ATOM     15  C   UNL     1      23.992   3.474  16.878  0.00  0.00    +0.000 A 
ATOM     16  C   UNL     1      27.409   5.021  16.989  0.00  0.00    +0.000 C 
ATOM     17  C   UNL     1      27.697   6.222  15.929  0.00  0.00    +0.000 C 
ATOM     18  C   UNL     1      28.487   7.109  16.907  0.00  0.00    +0.000 C 
ATOM     19  C   UNL     1      27.866   6.877  18.238  0.00  0.00    +0.000 C 
ATOM     20  O   UNL     1      28.251   7.270  19.315  0.00  0.00    +0.000 OA
ENDROOT
TORSDOF 0
ENDMDL
