MODEL 1
REMARK VINA RESULT:      -8.5      0.000      0.000
REMARK  Name = 
REMARK  6 active torsions:
REMARK  status: ('A' for Active; 'I' for Inactive)
REMARK    1  A    between atoms: O_2  and  C_3
REMARK    2  A    between atoms: C_8  and  N_9
REMARK    3  A    between atoms: C_10  and  C_12
REMARK    4  A    between atoms: C_12  and  O_13
REMARK    5  A    between atoms: O_13  and  C_14
REMARK    6  A    between atoms: C_17  and  C_18
REMARK                            x       y       z     vdW  Elec       q    Type
REMARK                         _______ _______ _______ _____ _____    ______ ____
ROOT
ATOM      1  N   UNL     1      37.931   5.427  16.459  0.00  0.00    +0.000 NA
ATOM      2  C   UNL     1      37.607   4.116  16.030  0.00  0.00    +0.000 C 
ATOM      3  O   UNL     1      38.484   3.229  16.179  0.00  0.00    +0.000 OA
ENDROOT
BRANCH   1   9
ATOM      4  C   UNL     1      40.236   6.092  16.231  0.00  0.00    +0.000 A 
ATOM      5  C   UNL     1      41.463   6.414  16.794  0.00  0.00    +0.000 A 
ATOM      6  C   UNL     1      41.580   6.383  18.171  0.00  0.00    +0.000 A 
ATOM      7  C   UNL     1      40.539   6.050  19.007  0.00  0.00    +0.000 A 
ATOM      8  C   UNL     1      39.324   5.733  18.398  0.00  0.00    +0.000 A 
ATOM      9  C   UNL     1      39.177   5.754  17.034  0.00  0.00    +0.000 A 
ATOM     10  O   UNL     1      40.934   6.105  20.250  0.00  0.00    +0.000 OA
ATOM     11  C   UNL     1      42.180   6.457  20.272  0.00  0.00    +0.000 A 
ATOM     12  C   UNL     1      43.010   6.643  21.360  0.00  0.00    +0.000 A 
ATOM     13  C   UNL     1      44.310   7.022  21.109  0.00  0.00    +0.000 A 
ATOM     14  C   UNL     1      44.813   7.223  19.840  0.00  0.00    +0.000 A 
ATOM     15  C   UNL     1      43.973   7.036  18.751  0.00  0.00    +0.000 A 
ATOM     16  C   UNL     1      42.666   6.653  18.997  0.00  0.00    +0.000 A 
BRANCH   4  18
ATOM     17  C   UNL     1      40.811   5.224  14.054  0.00  0.00    +0.000 C 
ATOM     18  O   UNL     1      40.053   6.102  14.842  0.00  0.00    +0.000 OA
ENDBRANCH   4  18
ENDBRANCH   1   9
BRANCH   2  19
ATOM     19  C   UNL     1      36.326   3.734  15.429  0.00  0.00    +0.000 C 
BRANCH  19  20
ATOM     20  O   UNL     1      35.551   2.906  16.275  0.00  0.00    +0.000 OA
BRANCH  20  21
ATOM     21  C   UNL     1      35.601   1.526  16.082  0.00  0.00    +0.000 A 
ATOM     22  C   UNL     1      36.148   0.984  14.938  0.00  0.00    +0.000 A 
ATOM     23  C   UNL     1      36.194  -0.383  14.753  0.00  0.00    +0.000 A 
ATOM     24  C   UNL     1      35.702  -1.271  15.690  0.00  0.00    +0.000 A 
ATOM     25  C   UNL     1      35.155  -0.727  16.836  0.00  0.00    +0.000 A 
ATOM     26  C   UNL     1      35.108   0.640  17.019  0.00  0.00    +0.000 A 
BRANCH  24  27
ATOM     27  C   UNL     1      35.766  -2.741  15.465  0.00  0.00    +0.000 C 
ATOM     28  C   UNL     1      36.839  -3.019  14.438  0.00  0.00    +0.000 C 
ATOM     29  C   UNL     1      38.214  -2.718  14.967  0.00  0.00    +0.000 C 
ATOM     30  C   UNL     1      38.429  -3.541  16.231  0.00  0.00    +0.000 C 
ATOM     31  C   UNL     1      37.354  -3.236  17.258  0.00  0.00    +0.000 C 
ATOM     32  C   UNL     1      35.969  -3.500  16.742  0.00  0.00    +0.000 C 
ENDBRANCH  24  27
ENDBRANCH  20  21
ENDBRANCH  19  20
ENDBRANCH   2  19
TORSDOF 6
ENDMDL
MODEL 2
REMARK VINA RESULT:      -8.4      1.680      9.808
REMARK  Name = 
REMARK  6 active torsions:
REMARK  status: ('A' for Active; 'I' for Inactive)
REMARK    1  A    between atoms: O_2  and  C_3
REMARK    2  A    between atoms: C_8  and  N_9
REMARK    3  A    between atoms: C_10  and  C_12
REMARK    4  A    between atoms: C_12  and  O_13
REMARK    5  A    between atoms: O_13  and  C_14
REMARK    6  A    between atoms: C_17  and  C_18
REMARK                            x       y       z     vdW  Elec       q    Type
REMARK                         _______ _______ _______ _____ _____    ______ ____
ROOT
ATOM      1  N   UNL     1      37.711   4.358  16.308  0.00  0.00    +0.000 NA
ATOM      2  C   UNL     1      38.410   4.816  17.451  0.00  0.00    +0.000 C 
ATOM      3  O   UNL     1      38.616   3.986  18.372  0.00  0.00    +0.000 OA
ENDROOT
BRANCH   1   9
ATOM      4  C   UNL     1      37.864   2.175  15.300  0.00  0.00    +0.000 A 
ATOM      5  C   UNL     1      37.413   0.868  15.169  0.00  0.00    +0.000 A 
ATOM      6  C   UNL     1      36.341   0.465  15.943  0.00  0.00    +0.000 A 
ATOM      7  C   UNL     1      35.702   1.296  16.835  0.00  0.00    +0.000 A 
ATOM      8  C   UNL     1      36.189   2.601  16.933  0.00  0.00    +0.000 A 
ATOM      9  C   UNL     1      37.251   3.030  16.178  0.00  0.00    +0.000 A 
ATOM     10  O   UNL     1      34.732   0.652  17.424  0.00  0.00    +0.000 OA
ATOM     11  C   UNL     1      34.702  -0.558  16.965  0.00  0.00    +0.000 A 
ATOM     12  C   UNL     1      33.848  -1.591  17.298  0.00  0.00    +0.000 A 
ATOM     13  C   UNL     1      34.028  -2.796  16.656  0.00  0.00    +0.000 A 
ATOM     14  C   UNL     1      35.009  -3.016  15.711  0.00  0.00    +0.000 A 
ATOM     15  C   UNL     1      35.866  -1.973  15.382  0.00  0.00    +0.000 A 
ATOM     16  C   UNL     1      35.688  -0.760  16.023  0.00  0.00    +0.000 A 
BRANCH   4  18
ATOM     17  C   UNL     1      39.851   1.718  14.008  0.00  0.00    +0.000 C 
ATOM     18  O   UNL     1      38.945   2.645  14.543  0.00  0.00    +0.000 OA
ENDBRANCH   4  18
ENDBRANCH   1   9
BRANCH   2  19
ATOM     19  C   UNL     1      38.905   6.186  17.627  0.00  0.00    +0.000 C 
BRANCH  19  20
ATOM     20  O   UNL     1      40.258   6.332  17.239  0.00  0.00    +0.000 OA
BRANCH  20  21
ATOM     21  C   UNL     1      41.216   6.529  18.231  0.00  0.00    +0.000 A 
ATOM     22  C   UNL     1      40.881   6.478  19.569  0.00  0.00    +0.000 A 
ATOM     23  C   UNL     1      41.834   6.676  20.547  0.00  0.00    +0.000 A 
ATOM     24  C   UNL     1      43.158   6.931  20.246  0.00  0.00    +0.000 A 
ATOM     25  C   UNL     1      43.493   6.982  18.906  0.00  0.00    +0.000 A 
ATOM     26  C   UNL     1      42.538   6.785  17.929  0.00  0.00    +0.000 A 
BRANCH  24  27
ATOM     27  C   UNL     1      44.166   7.139  21.321  0.00  0.00    +0.000 C 
ATOM     28  C   UNL     1      43.954   6.084  22.382  0.00  0.00    +0.000 C 
ATOM     29  C   UNL     1      44.300   4.709  21.883  0.00  0.00    +0.000 C 
ATOM     30  C   UNL     1      45.745   4.726  21.399  0.00  0.00    +0.000 C 
ATOM     31  C   UNL     1      45.935   5.778  20.322  0.00  0.00    +0.000 C 
ATOM     32  C   UNL     1      45.567   7.158  20.787  0.00  0.00    +0.000 C 
ENDBRANCH  24  27
ENDBRANCH  20  21
ENDBRANCH  19  20
ENDBRANCH   2  19
TORSDOF 6
ENDMDL
MODEL 3
REMARK VINA RESULT:      -8.2      2.091      9.910
REMARK  Name = 
REMARK  6 active torsions:
REMARK  status: ('A' for Active; 'I' for Inactive)
REMARK    1  A    between atoms: O_2  and  C_3
REMARK    2  A    between atoms: C_8  and  N_9
REMARK    3  A    between atoms: C_10  and  C_12
REMARK    4  A    between atoms: C_12  and  O_13
REMARK    5  A    between atoms: O_13  and  C_14
REMARK    6  A    between atoms: C_17  and  C_18
REMARK                            x       y       z     vdW  Elec       q    Type
REMARK                         _______ _______ _______ _____ _____    ______ ____
ROOT
ATOM      1  N   UNL     1      38.927   1.915  15.112  0.00  0.00    +0.000 NA
ATOM      2  C   UNL     1      38.956   2.787  13.996  0.00  0.00    +0.000 C 
ATOM      3  O   UNL     1      38.151   2.551  13.060  0.00  0.00    +0.000 OA
ENDROOT
BRANCH   1   9
ATOM      4  C   UNL     1      36.793   0.988  15.740  0.00  0.00    +0.000 A 
ATOM      5  C   UNL     1      35.921  -0.088  15.829  0.00  0.00    +0.000 A 
ATOM      6  C   UNL     1      36.349  -1.318  15.361  0.00  0.00    +0.000 A 
ATOM      7  C   UNL     1      37.594  -1.523  14.813  0.00  0.00    +0.000 A 
ATOM      8  C   UNL     1      38.437  -0.412  14.744  0.00  0.00    +0.000 A 
ATOM      9  C   UNL     1      38.042   0.820  15.200  0.00  0.00    +0.000 A 
ATOM     10  O   UNL     1      37.723  -2.773  14.459  0.00  0.00    +0.000 OA
ATOM     11  C   UNL     1      36.626  -3.397  14.747  0.00  0.00    +0.000 A 
ATOM     12  C   UNL     1      36.308  -4.727  14.552  0.00  0.00    +0.000 A 
ATOM     13  C   UNL     1      35.059  -5.147  14.951  0.00  0.00    +0.000 A 
ATOM     14  C   UNL     1      34.123  -4.312  15.527  0.00  0.00    +0.000 A 
ATOM     15  C   UNL     1      34.448  -2.975  15.719  0.00  0.00    +0.000 A 
ATOM     16  C   UNL     1      35.703  -2.549  15.321  0.00  0.00    +0.000 A 
BRANCH   4  18
ATOM     17  C   UNL     1      35.064   2.612  16.181  0.00  0.00    +0.000 C 
ATOM     18  O   UNL     1      36.421   2.258  16.197  0.00  0.00    +0.000 OA
ENDBRANCH   4  18
ENDBRANCH   1   9
BRANCH   2  19
ATOM     19  C   UNL     1      39.858   3.936  13.864  0.00  0.00    +0.000 C 
BRANCH  19  20
ATOM     20  O   UNL     1      39.309   5.125  14.399  0.00  0.00    +0.000 OA
BRANCH  20  21
ATOM     21  C   UNL     1      39.560   5.429  15.736  0.00  0.00    +0.000 A 
ATOM     22  C   UNL     1      38.600   5.228  16.707  0.00  0.00    +0.000 A 
ATOM     23  C   UNL     1      38.853   5.532  18.029  0.00  0.00    +0.000 A 
ATOM     24  C   UNL     1      40.065   6.047  18.448  0.00  0.00    +0.000 A 
ATOM     25  C   UNL     1      41.025   6.247  17.476  0.00  0.00    +0.000 A 
ATOM     26  C   UNL     1      40.770   5.944  16.154  0.00  0.00    +0.000 A 
BRANCH  24  27
ATOM     27  C   UNL     1      40.311   6.365  19.881  0.00  0.00    +0.000 C 
ATOM     28  C   UNL     1      41.758   6.774  20.035  0.00  0.00    +0.000 C 
ATOM     29  C   UNL     1      42.045   8.088  19.363  0.00  0.00    +0.000 C 
ATOM     30  C   UNL     1      41.107   9.137  19.947  0.00  0.00    +0.000 C 
ATOM     31  C   UNL     1      39.660   8.719  19.766  0.00  0.00    +0.000 C 
ATOM     32  C   UNL     1      39.355   7.394  20.404  0.00  0.00    +0.000 C 
ENDBRANCH  24  27
ENDBRANCH  20  21
ENDBRANCH  19  20
ENDBRANCH   2  19
TORSDOF 6
ENDMDL
MODEL 4
REMARK VINA RESULT:      -8.2      2.051      3.851
REMARK  Name = 
REMARK  6 active torsions:
REMARK  status: ('A' for Active; 'I' for Inactive)
REMARK    1  A    between atoms: O_2  and  C_3
REMARK    2  A    between atoms: C_8  and  N_9
REMARK    3  A    between atoms: C_10  and  C_12
REMARK    4  A    between atoms: C_12  and  O_13
REMARK    5  A    between atoms: O_13  and  C_14
REMARK    6  A    between atoms: C_17  and  C_18
REMARK                            x       y       z     vdW  Elec       q    Type
REMARK                         _______ _______ _______ _____ _____    ______ ____
ROOT
ATOM      1  N   UNL     1      38.402   2.946  14.076  0.00  0.00    +0.000 NA
ATOM      2  C   UNL     1      39.258   1.892  13.671  0.00  0.00    +0.000 C 
ATOM      3  O   UNL     1      40.295   1.699  14.354  0.00  0.00    +0.000 OA
ENDROOT
BRANCH   1   9
ATOM      4  C   UNL     1      38.029   3.534  16.383  0.00  0.00    +0.000 A 
ATOM      5  C   UNL     1      38.294   4.336  17.484  0.00  0.00    +0.000 A 
ATOM      6  C   UNL     1      39.217   5.356  17.345  0.00  0.00    +0.000 A 
ATOM      7  C   UNL     1      39.883   5.613  16.168  0.00  0.00    +0.000 A 
ATOM      8  C   UNL     1      39.585   4.782  15.087  0.00  0.00    +0.000 A 
ATOM      9  C   UNL     1      38.674   3.762  15.194  0.00  0.00    +0.000 A 
ATOM     10  O   UNL     1      40.688   6.628  16.326  0.00  0.00    +0.000 OA
ATOM     11  C   UNL     1      40.585   7.049  17.547  0.00  0.00    +0.000 A 
ATOM     12  C   UNL     1      41.244   8.095  18.162  0.00  0.00    +0.000 A 
ATOM     13  C   UNL     1      40.951   8.341  19.484  0.00  0.00    +0.000 A 
ATOM     14  C   UNL     1      40.043   7.600  20.213  0.00  0.00    +0.000 A 
ATOM     15  C   UNL     1      39.384   6.549  19.589  0.00  0.00    +0.000 A 
ATOM     16  C   UNL     1      39.674   6.299  18.259  0.00  0.00    +0.000 A 
BRANCH   4  18
ATOM     17  C   UNL     1      35.736   2.791  16.485  0.00  0.00    +0.000 C 
ATOM     18  O   UNL     1      37.104   2.485  16.458  0.00  0.00    +0.000 OA
ENDBRANCH   4  18
ENDBRANCH   1   9
BRANCH   2  19
ATOM     19  C   UNL     1      39.013   1.022  12.516  0.00  0.00    +0.000 C 
BRANCH  19  20
ATOM     20  O   UNL     1      39.197  -0.349  12.817  0.00  0.00    +0.000 OA
BRANCH  20  21
ATOM     21  C   UNL     1      38.465  -0.903  13.866  0.00  0.00    +0.000 A 
ATOM     22  C   UNL     1      37.090  -0.807  13.907  0.00  0.00    +0.000 A 
ATOM     23  C   UNL     1      36.371  -1.357  14.949  0.00  0.00    +0.000 A 
ATOM     24  C   UNL     1      36.980  -2.026  15.993  0.00  0.00    +0.000 A 
ATOM     25  C   UNL     1      38.358  -2.122  15.951  0.00  0.00    +0.000 A 
ATOM     26  C   UNL     1      39.075  -1.570  14.909  0.00  0.00    +0.000 A 
BRANCH  24  27
ATOM     27  C   UNL     1      36.181  -2.610  17.104  0.00  0.00    +0.000 C 
ATOM     28  C   UNL     1      36.920  -2.370  18.400  0.00  0.00    +0.000 C 
ATOM     29  C   UNL     1      36.954  -0.912  18.765  0.00  0.00    +0.000 C 
ATOM     30  C   UNL     1      35.518  -0.406  18.843  0.00  0.00    +0.000 C 
ATOM     31  C   UNL     1      34.798  -0.638  17.528  0.00  0.00    +0.000 C 
ATOM     32  C   UNL     1      34.777  -2.085  17.127  0.00  0.00    +0.000 C 
ENDBRANCH  24  27
ENDBRANCH  20  21
ENDBRANCH  19  20
ENDBRANCH   2  19
TORSDOF 6
ENDMDL
MODEL 5
REMARK VINA RESULT:      -8.2      1.598     10.132
REMARK  Name = 
REMARK  6 active torsions:
REMARK  status: ('A' for Active; 'I' for Inactive)
REMARK    1  A    between atoms: O_2  and  C_3
REMARK    2  A    between atoms: C_8  and  N_9
REMARK    3  A    between atoms: C_10  and  C_12
REMARK    4  A    between atoms: C_12  and  O_13
REMARK    5  A    between atoms: O_13  and  C_14
REMARK    6  A    between atoms: C_17  and  C_18
REMARK                            x       y       z     vdW  Elec       q    Type
REMARK                         _______ _______ _______ _____ _____    ______ ____
ROOT
ATOM      1  N   UNL     1      37.683   3.585  15.212  0.00  0.00    +0.000 NA
ATOM      2  C   UNL     1      38.160   4.273  16.355  0.00  0.00    +0.000 C 
ATOM      3  O   UNL     1      38.166   3.646  17.444  0.00  0.00    +0.000 OA
ENDROOT
BRANCH   1   9
ATOM      4  C   UNL     1      35.987   1.966  15.770  0.00  0.00    +0.000 A 
ATOM      5  C   UNL     1      35.537   0.654  15.820  0.00  0.00    +0.000 A 
ATOM      6  C   UNL     1      36.372  -0.343  15.347  0.00  0.00    +0.000 A 
ATOM      7  C   UNL     1      37.622  -0.094  14.830  0.00  0.00    +0.000 A 
ATOM      8  C   UNL     1      38.033   1.239  14.800  0.00  0.00    +0.000 A 
ATOM      9  C   UNL     1      37.229   2.250  15.262  0.00  0.00    +0.000 A 
ATOM     10  O   UNL     1      38.181  -1.215  14.463  0.00  0.00    +0.000 OA
ATOM     11  C   UNL     1      37.360  -2.185  14.712  0.00  0.00    +0.000 A 
ATOM     12  C   UNL     1      37.524  -3.539  14.491  0.00  0.00    +0.000 A 
ATOM     13  C   UNL     1      36.488  -4.371  14.850  0.00  0.00    +0.000 A 
ATOM     14  C   UNL     1      35.310  -3.922  15.411  0.00  0.00    +0.000 A 
ATOM     15  C   UNL     1      35.151  -2.560  15.631  0.00  0.00    +0.000 A 
ATOM     16  C   UNL     1      36.191  -1.719  15.273  0.00  0.00    +0.000 A 
BRANCH   4  18
ATOM     17  C   UNL     1      34.074   3.408  15.479  0.00  0.00    +0.000 C 
ATOM     18  O   UNL     1      35.191   3.021  16.234  0.00  0.00    +0.000 OA
ENDBRANCH   4  18
ENDBRANCH   1   9
BRANCH   2  19
ATOM     19  C   UNL     1      38.641   5.659  16.347  0.00  0.00    +0.000 C 
BRANCH  19  20
ATOM     20  O   UNL     1      38.682   6.229  17.641  0.00  0.00    +0.000 OA
BRANCH  20  21
ATOM     21  C   UNL     1      39.914   6.330  18.285  0.00  0.00    +0.000 A 
ATOM     22  C   UNL     1      40.007   6.286  19.661  0.00  0.00    +0.000 A 
ATOM     23  C   UNL     1      41.231   6.387  20.292  0.00  0.00    +0.000 A 
ATOM     24  C   UNL     1      42.412   6.535  19.592  0.00  0.00    +0.000 A 
ATOM     25  C   UNL     1      42.318   6.578  18.214  0.00  0.00    +0.000 A 
ATOM     26  C   UNL     1      41.094   6.478  17.584  0.00  0.00    +0.000 A 
BRANCH  24  27
ATOM     27  C   UNL     1      43.717   6.641  20.298  0.00  0.00    +0.000 C 
ATOM     28  C   UNL     1      44.724   7.248  19.349  0.00  0.00    +0.000 C 
ATOM     29  C   UNL     1      44.411   8.686  19.042  0.00  0.00    +0.000 C 
ATOM     30  C   UNL     1      44.356   9.453  20.357  0.00  0.00    +0.000 C 
ATOM     31  C   UNL     1      43.328   8.842  21.290  0.00  0.00    +0.000 C 
ATOM     32  C   UNL     1      43.603   7.396  21.588  0.00  0.00    +0.000 C 
ENDBRANCH  24  27
ENDBRANCH  20  21
ENDBRANCH  19  20
ENDBRANCH   2  19
TORSDOF 6
ENDMDL
MODEL 6
REMARK VINA RESULT:      -8.0      2.810     10.758
REMARK  Name = 
REMARK  6 active torsions:
REMARK  status: ('A' for Active; 'I' for Inactive)
REMARK    1  A    between atoms: O_2  and  C_3
REMARK    2  A    between atoms: C_8  and  N_9
REMARK    3  A    between atoms: C_10  and  C_12
REMARK    4  A    between atoms: C_12  and  O_13
REMARK    5  A    between atoms: O_13  and  C_14
REMARK    6  A    between atoms: C_17  and  C_18
REMARK                            x       y       z     vdW  Elec       q    Type
REMARK                         _______ _______ _______ _____ _____    ______ ____
ROOT
ATOM      1  N   UNL     1      37.433  -0.150  15.845  0.00  0.00    +0.000 NA
ATOM      2  C   UNL     1      38.453   0.268  14.956  0.00  0.00    +0.000 C 
ATOM      3  O   UNL     1      38.979  -0.611  14.228  0.00  0.00    +0.000 OA
ENDROOT
BRANCH   1   9
ATOM      4  C   UNL     1      37.472  -2.299  16.934  0.00  0.00    +0.000 A 
ATOM      5  C   UNL     1      37.049  -3.618  17.022  0.00  0.00    +0.000 A 
ATOM      6  C   UNL     1      36.150  -4.082  16.080  0.00  0.00    +0.000 A 
ATOM      7  C   UNL     1      35.656  -3.299  15.062  0.00  0.00    +0.000 A 
ATOM      8  C   UNL     1      36.109  -1.979  15.012  0.00  0.00    +0.000 A 
ATOM      9  C   UNL     1      37.001  -1.490  15.932  0.00  0.00    +0.000 A 
ATOM     10  O   UNL     1      34.830  -3.994  14.327  0.00  0.00    +0.000 OA
ATOM     11  C   UNL     1      34.758  -5.193  14.812  0.00  0.00    +0.000 A 
ATOM     12  C   UNL     1      34.012  -6.266  14.364  0.00  0.00    +0.000 A 
ATOM     13  C   UNL     1      34.114  -7.447  15.065  0.00  0.00    +0.000 A 
ATOM     14  C   UNL     1      34.914  -7.605  16.179  0.00  0.00    +0.000 A 
ATOM     15  C   UNL     1      35.661  -6.522  16.624  0.00  0.00    +0.000 A 
ATOM     16  C   UNL     1      35.563  -5.333  15.923  0.00  0.00    +0.000 A 
BRANCH   4  18
ATOM     17  C   UNL     1      37.931  -1.452  19.146  0.00  0.00    +0.000 C 
ATOM     18  O   UNL     1      38.383  -1.769  17.857  0.00  0.00    +0.000 OA
ENDBRANCH   4  18
ENDBRANCH   1   9
BRANCH   2  19
ATOM     19  C   UNL     1      38.931   1.649  14.834  0.00  0.00    +0.000 C 
BRANCH  19  20
ATOM     20  O   UNL     1      38.003   2.595  15.330  0.00  0.00    +0.000 OA
BRANCH  20  21
ATOM     21  C   UNL     1      38.491   3.754  15.930  0.00  0.00    +0.000 A 
ATOM     22  C   UNL     1      38.084   4.131  17.193  0.00  0.00    +0.000 A 
ATOM     23  C   UNL     1      38.570   5.281  17.781  0.00  0.00    +0.000 A 
ATOM     24  C   UNL     1      39.479   6.106  17.147  0.00  0.00    +0.000 A 
ATOM     25  C   UNL     1      39.886   5.728  15.882  0.00  0.00    +0.000 A 
ATOM     26  C   UNL     1      39.398   4.578  15.295  0.00  0.00    +0.000 A 
BRANCH  24  27
ATOM     27  C   UNL     1      39.987   7.340  17.805  0.00  0.00    +0.000 C 
ATOM     28  C   UNL     1      39.794   7.198  19.297  0.00  0.00    +0.000 C 
ATOM     29  C   UNL     1      40.684   6.136  19.880  0.00  0.00    +0.000 C 
ATOM     30  C   UNL     1      42.128   6.484  19.539  0.00  0.00    +0.000 C 
ATOM     31  C   UNL     1      42.308   6.605  18.037  0.00  0.00    +0.000 C 
ATOM     32  C   UNL     1      41.407   7.639  17.427  0.00  0.00    +0.000 C 
ENDBRANCH  24  27
ENDBRANCH  20  21
ENDBRANCH  19  20
ENDBRANCH   2  19
TORSDOF 6
ENDMDL
MODEL 7
REMARK VINA RESULT:      -7.8     26.013     28.562
REMARK  Name = 
REMARK  6 active torsions:
REMARK  status: ('A' for Active; 'I' for Inactive)
REMARK    1  A    between atoms: O_2  and  C_3
REMARK    2  A    between atoms: C_8  and  N_9
REMARK    3  A    between atoms: C_10  and  C_12
REMARK    4  A    between atoms: C_12  and  O_13
REMARK    5  A    between atoms: O_13  and  C_14
REMARK    6  A    between atoms: C_17  and  C_18
REMARK                            x       y       z     vdW  Elec       q    Type
REMARK                         _______ _______ _______ _____ _____    ______ ____
ROOT
ATOM      1  N   UNL     1      26.053  16.030  40.324  0.00  0.00    +0.000 NA
ATOM      2  C   UNL     1      25.173  15.315  41.172  0.00  0.00    +0.000 C 
ATOM      3  O   UNL     1      24.137  14.831  40.650  0.00  0.00    +0.000 OA
ENDROOT
BRANCH   1   9
ATOM      4  C   UNL     1      25.224  17.366  38.498  0.00  0.00    +0.000 A 
ATOM      5  C   UNL     1      24.980  17.545  37.144  0.00  0.00    +0.000 A 
ATOM      6  C   UNL     1      25.340  16.532  36.274  0.00  0.00    +0.000 A 
ATOM      7  C   UNL     1      25.928  15.358  36.689  0.00  0.00    +0.000 A 
ATOM      8  C   UNL     1      26.153  15.222  38.059  0.00  0.00    +0.000 A 
ATOM      9  C   UNL     1      25.807  16.209  38.947  0.00  0.00    +0.000 A 
ATOM     10  O   UNL     1      26.157  14.589  35.659  0.00  0.00    +0.000 OA
ATOM     11  C   UNL     1      25.750  15.199  34.591  0.00  0.00    +0.000 A 
ATOM     12  C   UNL     1      25.790  14.770  33.279  0.00  0.00    +0.000 A 
ATOM     13  C   UNL     1      25.287  15.617  32.318  0.00  0.00    +0.000 A 
ATOM     14  C   UNL     1      24.752  16.858  32.601  0.00  0.00    +0.000 A 
ATOM     15  C   UNL     1      24.716  17.284  33.922  0.00  0.00    +0.000 A 
ATOM     16  C   UNL     1      25.220  16.435  34.892  0.00  0.00    +0.000 A 
BRANCH   4  18
ATOM     17  C   UNL     1      23.525  18.613  39.673  0.00  0.00    +0.000 C 
ATOM     18  O   UNL     1      24.881  18.354  39.430  0.00  0.00    +0.000 OA
ENDBRANCH   4  18
ENDBRANCH   1   9
BRANCH   2  19
ATOM     19  C   UNL     1      25.391  15.105  42.607  0.00  0.00    +0.000 C 
BRANCH  19  20
ATOM     20  O   UNL     1      26.627  14.476  42.886  0.00  0.00    +0.000 OA
BRANCH  20  21
ATOM     21  C   UNL     1      26.819  13.166  42.449  0.00  0.00    +0.000 A 
ATOM     22  C   UNL     1      27.883  12.833  41.636  0.00  0.00    +0.000 A 
ATOM     23  C   UNL     1      28.067  11.534  41.206  0.00  0.00    +0.000 A 
ATOM     24  C   UNL     1      27.210  10.511  41.561  0.00  0.00    +0.000 A 
ATOM     25  C   UNL     1      26.146  10.846  42.376  0.00  0.00    +0.000 A 
ATOM     26  C   UNL     1      25.962  12.145  42.804  0.00  0.00    +0.000 A 
BRANCH  24  27
ATOM     27  C   UNL     1      27.434   9.120  41.084  0.00  0.00    +0.000 C 
ATOM     28  C   UNL     1      28.896   8.783  41.266  0.00  0.00    +0.000 C 
ATOM     29  C   UNL     1      29.273   8.686  42.718  0.00  0.00    +0.000 C 
ATOM     30  C   UNL     1      28.377   7.642  43.375  0.00  0.00    +0.000 C 
ATOM     31  C   UNL     1      26.915   8.005  43.198  0.00  0.00    +0.000 C 
ATOM     32  C   UNL     1      26.521   8.138  41.755  0.00  0.00    +0.000 C 
ENDBRANCH  24  27
ENDBRANCH  20  21
ENDBRANCH  19  20
ENDBRANCH   2  19
TORSDOF 6
ENDMDL
MODEL 8
REMARK VINA RESULT:      -7.6      5.024     11.079
REMARK  Name = 
REMARK  6 active torsions:
REMARK  status: ('A' for Active; 'I' for Inactive)
REMARK    1  A    between atoms: O_2  and  C_3
REMARK    2  A    between atoms: C_8  and  N_9
REMARK    3  A    between atoms: C_10  and  C_12
REMARK    4  A    between atoms: C_12  and  O_13
REMARK    5  A    between atoms: O_13  and  C_14
REMARK    6  A    between atoms: C_17  and  C_18
REMARK                            x       y       z     vdW  Elec       q    Type
REMARK                         _______ _______ _______ _____ _____    ______ ____
ROOT
ATOM      1  N   UNL     1      43.335   7.008  21.672  0.00  0.00    +0.000 NA
ATOM      2  C   UNL     1      44.055   6.003  22.363  0.00  0.00    +0.000 C 
ATOM      3  O   UNL     1      44.087   4.859  21.846  0.00  0.00    +0.000 OA
ENDROOT
BRANCH   1   9
ATOM      4  C   UNL     1      43.323   6.973  19.262  0.00  0.00    +0.000 A 
ATOM      5  C   UNL     1      42.673   6.736  18.059  0.00  0.00    +0.000 A 
ATOM      6  C   UNL     1      41.364   6.292  18.099  0.00  0.00    +0.000 A 
ATOM      7  C   UNL     1      40.679   6.074  19.273  0.00  0.00    +0.000 A 
ATOM      8  C   UNL     1      41.372   6.325  20.458  0.00  0.00    +0.000 A 
ATOM      9  C   UNL     1      42.671   6.767  20.450  0.00  0.00    +0.000 A 
ATOM     10  O   UNL     1      39.469   5.660  19.010  0.00  0.00    +0.000 OA
ATOM     11  C   UNL     1      39.326   5.594  17.724  0.00  0.00    +0.000 A 
ATOM     12  C   UNL     1      38.220   5.209  16.993  0.00  0.00    +0.000 A 
ATOM     13  C   UNL     1      38.328   5.229  15.621  0.00  0.00    +0.000 A 
ATOM     14  C   UNL     1      39.474   5.609  14.952  0.00  0.00    +0.000 A 
ATOM     15  C   UNL     1      40.583   5.995  15.693  0.00  0.00    +0.000 A 
ATOM     16  C   UNL     1      40.479   5.978  17.073  0.00  0.00    +0.000 A 
BRANCH   4  18
ATOM     17  C   UNL     1      44.935   8.709  18.804  0.00  0.00    +0.000 C 
ATOM     18  O   UNL     1      44.649   7.425  19.290  0.00  0.00    +0.000 OA
ENDBRANCH   4  18
ENDBRANCH   1   9
BRANCH   2  19
ATOM     19  C   UNL     1      44.758   6.212  23.633  0.00  0.00    +0.000 C 
BRANCH  19  20
ATOM     20  O   UNL     1      44.613   5.122  24.523  0.00  0.00    +0.000 OA
BRANCH  20  21
ATOM     21  C   UNL     1      44.063   5.359  25.782  0.00  0.00    +0.000 A 
ATOM     22  C   UNL     1      43.753   4.319  26.634  0.00  0.00    +0.000 A 
ATOM     23  C   UNL     1      43.208   4.561  27.878  0.00  0.00    +0.000 A 
ATOM     24  C   UNL     1      42.947   5.839  28.334  0.00  0.00    +0.000 A 
ATOM     25  C   UNL     1      43.258   6.879  27.480  0.00  0.00    +0.000 A 
ATOM     26  C   UNL     1      43.802   6.636  26.235  0.00  0.00    +0.000 A 
BRANCH  24  27
ATOM     27  C   UNL     1      42.359   6.071  29.681  0.00  0.00    +0.000 C 
ATOM     28  C   UNL     1      41.311   7.153  29.563  0.00  0.00    +0.000 C 
ATOM     29  C   UNL     1      40.119   6.696  28.770  0.00  0.00    +0.000 C 
ATOM     30  C   UNL     1      39.553   5.447  29.435  0.00  0.00    +0.000 C 
ATOM     31  C   UNL     1      40.613   4.365  29.528  0.00  0.00    +0.000 C 
ATOM     32  C   UNL     1      41.828   4.808  30.291  0.00  0.00    +0.000 C 
ENDBRANCH  24  27
ENDBRANCH  20  21
ENDBRANCH  19  20
ENDBRANCH   2  19
TORSDOF 6
ENDMDL
MODEL 9
REMARK VINA RESULT:      -7.6      5.296     10.624
REMARK  Name = 
REMARK  6 active torsions:
REMARK  status: ('A' for Active; 'I' for Inactive)
REMARK    1  A    between atoms: O_2  and  C_3
REMARK    2  A    between atoms: C_8  and  N_9
REMARK    3  A    between atoms: C_10  and  C_12
REMARK    4  A    between atoms: C_12  and  O_13
REMARK    5  A    between atoms: O_13  and  C_14
REMARK    6  A    between atoms: C_17  and  C_18
REMARK                            x       y       z     vdW  Elec       q    Type
REMARK                         _______ _______ _______ _____ _____    ______ ____
ROOT
ATOM      1  N   UNL     1      38.097   2.929  12.434  0.00  0.00    +0.000 NA
ATOM      2  C   UNL     1      37.349   2.443  13.534  0.00  0.00    +0.000 C 
ATOM      3  O   UNL     1      36.248   1.892  13.284  0.00  0.00    +0.000 OA
ENDROOT
BRANCH   1   9
ATOM      4  C   UNL     1      37.889   1.662  10.394  0.00  0.00    +0.000 A 
ATOM      5  C   UNL     1      37.453   1.546   9.082  0.00  0.00    +0.000 A 
ATOM      6  C   UNL     1      36.781   2.615   8.518  0.00  0.00    +0.000 A 
ATOM      7  C   UNL     1      36.525   3.785   9.196  0.00  0.00    +0.000 A 
ATOM      8  C   UNL     1      36.982   3.857  10.513  0.00  0.00    +0.000 A 
ATOM      9  C   UNL     1      37.652   2.814  11.099  0.00  0.00    +0.000 A 
ATOM     10  O   UNL     1      35.879   4.614   8.422  0.00  0.00    +0.000 OA
ATOM     11  C   UNL     1      35.698   4.047   7.271  0.00  0.00    +0.000 A 
ATOM     12  C   UNL     1      35.066   4.545   6.149  0.00  0.00    +0.000 A 
ATOM     13  C   UNL     1      35.008   3.732   5.040  0.00  0.00    +0.000 A 
ATOM     14  C   UNL     1      35.543   2.461   4.998  0.00  0.00    +0.000 A 
ATOM     15  C   UNL     1      36.177   1.965   6.130  0.00  0.00    +0.000 A 
ATOM     16  C   UNL     1      36.239   2.779   7.248  0.00  0.00    +0.000 A 
BRANCH   4  18
ATOM     17  C   UNL     1      39.839   0.247  10.534  0.00  0.00    +0.000 C 
ATOM     18  O   UNL     1      38.577   0.616  11.022  0.00  0.00    +0.000 OA
ENDBRANCH   4  18
ENDBRANCH   1   9
BRANCH   2  19
ATOM     19  C   UNL     1      37.775   2.543  14.934  0.00  0.00    +0.000 C 
BRANCH  19  20
ATOM     20  O   UNL     1      37.360   3.750  15.546  0.00  0.00    +0.000 OA
BRANCH  20  21
ATOM     21  C   UNL     1      38.278   4.447  16.329  0.00  0.00    +0.000 A 
ATOM     22  C   UNL     1      38.193   4.441  17.706  0.00  0.00    +0.000 A 
ATOM     23  C   UNL     1      39.104   5.134  18.477  0.00  0.00    +0.000 A 
ATOM     24  C   UNL     1      40.138   5.862  17.920  0.00  0.00    +0.000 A 
ATOM     25  C   UNL     1      40.222   5.868  16.541  0.00  0.00    +0.000 A 
ATOM     26  C   UNL     1      39.310   5.175  15.772  0.00  0.00    +0.000 A 
BRANCH  24  27
ATOM     27  C   UNL     1      41.107   6.600  18.774  0.00  0.00    +0.000 C 
ATOM     28  C   UNL     1      41.279   7.990  18.207  0.00  0.00    +0.000 C 
ATOM     29  C   UNL     1      40.031   8.816  18.355  0.00  0.00    +0.000 C 
ATOM     30  C   UNL     1      39.662   8.862  19.833  0.00  0.00    +0.000 C 
ATOM     31  C   UNL     1      39.475   7.459  20.380  0.00  0.00    +0.000 C 
ATOM     32  C   UNL     1      40.699   6.605  20.217  0.00  0.00    +0.000 C 
ENDBRANCH  24  27
ENDBRANCH  20  21
ENDBRANCH  19  20
ENDBRANCH   2  19
TORSDOF 6
ENDMDL
MODEL 10
REMARK VINA RESULT:      -7.6      2.378      2.961
REMARK  Name = 
REMARK  6 active torsions:
REMARK  status: ('A' for Active; 'I' for Inactive)
REMARK    1  A    between atoms: O_2  and  C_3
REMARK    2  A    between atoms: C_8  and  N_9
REMARK    3  A    between atoms: C_10  and  C_12
REMARK    4  A    between atoms: C_12  and  O_13
REMARK    5  A    between atoms: O_13  and  C_14
REMARK    6  A    between atoms: C_17  and  C_18
REMARK                            x       y       z     vdW  Elec       q    Type
REMARK                         _______ _______ _______ _____ _____    ______ ____
ROOT
ATOM      1  N   UNL     1      38.791   4.446  15.724  0.00  0.00    +0.000 NA
ATOM      2  C   UNL     1      37.971   4.586  14.578  0.00  0.00    +0.000 C 
ATOM      3  O   UNL     1      37.546   5.738  14.310  0.00  0.00    +0.000 OA
ENDROOT
BRANCH   1   9
ATOM      4  C   UNL     1      40.348   6.158  16.398  0.00  0.00    +0.000 A 
ATOM      5  C   UNL     1      40.690   7.229  17.211  0.00  0.00    +0.000 A 
ATOM      6  C   UNL     1      39.780   7.642  18.167  0.00  0.00    +0.000 A 
ATOM      7  C   UNL     1      38.555   7.043  18.349  0.00  0.00    +0.000 A 
ATOM      8  C   UNL     1      38.254   5.969  17.509  0.00  0.00    +0.000 A 
ATOM      9  C   UNL     1      39.136   5.536  16.552  0.00  0.00    +0.000 A 
ATOM     10  O   UNL     1      37.909   7.636  19.315  0.00  0.00    +0.000 OA
ATOM     11  C   UNL     1      38.648   8.596  19.776  0.00  0.00    +0.000 A 
ATOM     12  C   UNL     1      38.376   9.487  20.795  0.00  0.00    +0.000 A 
ATOM     13  C   UNL     1      39.341  10.422  21.094  0.00  0.00    +0.000 A 
ATOM     14  C   UNL     1      40.549  10.510  20.433  0.00  0.00    +0.000 A 
ATOM     15  C   UNL     1      40.816   9.611  19.408  0.00  0.00    +0.000 A 
ATOM     16  C   UNL     1      39.850   8.668  19.104  0.00  0.00    +0.000 A 
BRANCH   4  18
ATOM     17  C   UNL     1      42.362   6.452  15.101  0.00  0.00    +0.000 C 
ATOM     18  O   UNL     1      41.225   5.690  15.411  0.00  0.00    +0.000 OA
ENDBRANCH   4  18
ENDBRANCH   1   9
BRANCH   2  19
ATOM     19  C   UNL     1      37.588   3.481  13.692  0.00  0.00    +0.000 C 
BRANCH  19  20
ATOM     20  O   UNL     1      36.232   3.107  13.840  0.00  0.00    +0.000 OA
BRANCH  20  21
ATOM     21  C   UNL     1      35.913   2.120  14.772  0.00  0.00    +0.000 A 
ATOM     22  C   UNL     1      36.302   0.810  14.587  0.00  0.00    +0.000 A 
ATOM     23  C   UNL     1      35.982  -0.163  15.513  0.00  0.00    +0.000 A 
ATOM     24  C   UNL     1      35.266   0.119  16.660  0.00  0.00    +0.000 A 
ATOM     25  C   UNL     1      34.877   1.431  16.845  0.00  0.00    +0.000 A 
ATOM     26  C   UNL     1      35.197   2.402  15.917  0.00  0.00    +0.000 A 
BRANCH  24  27
ATOM     27  C   UNL     1      34.936  -0.949  17.642  0.00  0.00    +0.000 C 
ATOM     28  C   UNL     1      35.664  -2.210  17.237  0.00  0.00    +0.000 C 
ATOM     29  C   UNL     1      37.153  -2.076  17.401  0.00  0.00    +0.000 C 
ATOM     30  C   UNL     1      37.441  -1.710  18.852  0.00  0.00    +0.000 C 
ATOM     31  C   UNL     1      36.717  -0.433  19.236  0.00  0.00    +0.000 C 
ATOM     32  C   UNL     1      35.230  -0.532  19.052  0.00  0.00    +0.000 C 
ENDBRANCH  24  27
ENDBRANCH  20  21
ENDBRANCH  19  20
ENDBRANCH   2  19
TORSDOF 6
ENDMDL
