MODEL 1
REMARK VINA RESULT:      -7.6      0.000      0.000
REMARK  Name = 
REMARK  9 active torsions:
REMARK  status: ('A' for Active; 'I' for Inactive)
REMARK    1  A    between atoms: C_2  and  C_3
REMARK    2  A    between atoms: C_3  and  C_4
REMARK    3  A    between atoms: C_4  and  C_5
REMARK    4  A    between atoms: C_5  and  O_6
REMARK    5  A    between atoms: O_6  and  C_7
REMARK    6  A    between atoms: C_7  and  C_9
REMARK    7  A    between atoms: N_12  and  C_13
REMARK    8  A    between atoms: C_13  and  C_14
REMARK    9  A    between atoms: C_17  and  O_18
REMARK                            x       y       z     vdW  Elec       q    Type
REMARK                         _______ _______ _______ _____ _____    ______ ____
ROOT
ATOM      1  C   UNL     1      36.182   0.146  16.222  0.00  0.00    +0.000 A 
ATOM      2  C   UNL     1      35.866   1.471  16.039  0.00  0.00    +0.000 A 
ATOM      3  N   UNL     1      34.620   2.049  16.436  0.00  0.00    +0.000 NA
ATOM      4  N   UNL     1      36.865   2.130  15.451  0.00  0.00    +0.000 N 
ATOM      5  C   UNL     1      37.849   1.210  15.249  0.00  0.00    +0.000 A 
ATOM      6  N   UNL     1      39.065   1.352  14.691  0.00  0.00    +0.000 NA
ATOM      7  C   UNL     1      39.881   0.264  14.602  0.00  0.00    +0.000 A 
ATOM      8  C   UNL     1      41.145   0.404  14.025  0.00  0.00    +0.000 A 
ATOM      9  C   UNL     1      41.961  -0.696  13.938  0.00  0.00    +0.000 A 
ATOM     10  C   UNL     1      41.567  -1.930  14.404  0.00  0.00    +0.000 A 
ATOM     11  C   UNL     1      40.329  -2.090  14.975  0.00  0.00    +0.000 A 
ATOM     12  C   UNL     1      39.489  -0.969  15.067  0.00  0.00    +0.000 A 
ATOM     13  N   UNL     1      38.260  -1.109  15.630  0.00  0.00    +0.000 NA
ATOM     14  C   UNL     1      37.473  -0.024  15.707  0.00  0.00    +0.000 A 
ENDROOT
BRANCH   1  15
ATOM     15  C   UNL     1      35.375  -0.908  16.823  0.00  0.00    +0.000 C 
ATOM     16  O   UNL     1      34.899  -1.820  16.103  0.00  0.00    +0.000 OA
BRANCH  15  17
ATOM     17  O   UNL     1      35.093  -0.967  18.172  0.00  0.00    +0.000 OA
BRANCH  17  18
ATOM     18  C   UNL     1      36.035  -0.522  19.150  0.00  0.00    +0.000 C 
BRANCH  18  19
ATOM     19  C   UNL     1      36.788  -1.750  19.641  0.00  0.00    +0.000 C 
BRANCH  19  20
ATOM     20  C   UNL     1      38.131  -1.877  19.002  0.00  0.00    +0.000 C 
BRANCH  20  22
ATOM     21  C   UNL     1      38.529  -3.962  17.794  0.00  0.00    +0.000 C 
ATOM     22  C   UNL     1      38.675  -3.263  19.126  0.00  0.00    +0.000 C 
ENDBRANCH  20  22
ENDBRANCH  19  20
ENDBRANCH  18  19
ENDBRANCH  17  18
ENDBRANCH  15  17
ENDBRANCH   1  15
BRANCH   4  23
ATOM     23  C   UNL     1      36.971   3.525  15.070  0.00  0.00    +0.000 C 
BRANCH  23  24
ATOM     24  C   UNL     1      37.936   4.218  15.933  0.00  0.00    +0.000 A 
ATOM     25  C   UNL     1      39.010   4.945  15.490  0.00  0.00    +0.000 A 
ATOM     26  C   UNL     1      39.879   5.571  16.377  0.00  0.00    +0.000 A 
ATOM     27  C   UNL     1      39.649   5.453  17.731  0.00  0.00    +0.000 A 
ATOM     28  C   UNL     1      38.580   4.730  18.207  0.00  0.00    +0.000 A 
ATOM     29  C   UNL     1      37.749   4.129  17.302  0.00  0.00    +0.000 A 
BRANCH  27  30
ATOM     30  O   UNL     1      40.487   6.059  18.653  0.00  0.00    +0.000 OA
ATOM     31  C   UNL     1      40.010   6.602  19.846  0.00  0.00    +0.000 C 
ENDBRANCH  27  30
ENDBRANCH  23  24
ENDBRANCH   4  23
TORSDOF 9
ENDMDL
MODEL 2
REMARK VINA RESULT:      -7.6      2.130      2.992
REMARK  Name = 
REMARK  9 active torsions:
REMARK  status: ('A' for Active; 'I' for Inactive)
REMARK    1  A    between atoms: C_2  and  C_3
REMARK    2  A    between atoms: C_3  and  C_4
REMARK    3  A    between atoms: C_4  and  C_5
REMARK    4  A    between atoms: C_5  and  O_6
REMARK    5  A    between atoms: O_6  and  C_7
REMARK    6  A    between atoms: C_7  and  C_9
REMARK    7  A    between atoms: N_12  and  C_13
REMARK    8  A    between atoms: C_13  and  C_14
REMARK    9  A    between atoms: C_17  and  O_18
REMARK                            x       y       z     vdW  Elec       q    Type
REMARK                         _______ _______ _______ _____ _____    ______ ____
ROOT
ATOM      1  C   UNL     1      36.222  -0.223  16.590  0.00  0.00    +0.000 A 
ATOM      2  C   UNL     1      35.823   1.058  16.294  0.00  0.00    +0.000 A 
ATOM      3  N   UNL     1      34.588   1.625  16.739  0.00  0.00    +0.000 NA
ATOM      4  N   UNL     1      36.733   1.688  15.551  0.00  0.00    +0.000 N 
ATOM      5  C   UNL     1      37.742   0.793  15.360  0.00  0.00    +0.000 A 
ATOM      6  N   UNL     1      38.896   0.921  14.682  0.00  0.00    +0.000 NA
ATOM      7  C   UNL     1      39.757  -0.134  14.637  0.00  0.00    +0.000 A 
ATOM      8  C   UNL     1      40.958  -0.008  13.935  0.00  0.00    +0.000 A 
ATOM      9  C   UNL     1      41.818  -1.076  13.893  0.00  0.00    +0.000 A 
ATOM     10  C   UNL     1      41.530  -2.264  14.523  0.00  0.00    +0.000 A 
ATOM     11  C   UNL     1      40.355  -2.411  15.219  0.00  0.00    +0.000 A 
ATOM     12  C   UNL     1      39.470  -1.323  15.265  0.00  0.00    +0.000 A 
ATOM     13  N   UNL     1      38.302  -1.450  15.950  0.00  0.00    +0.000 NA
ATOM     14  C   UNL     1      37.471  -0.396  15.981  0.00  0.00    +0.000 A 
ENDROOT
BRANCH   1  15
ATOM     15  C   UNL     1      35.524  -1.236  17.372  0.00  0.00    +0.000 C 
ATOM     16  O   UNL     1      36.030  -1.663  18.439  0.00  0.00    +0.000 OA
BRANCH  15  17
ATOM     17  O   UNL     1      34.308  -1.770  17.001  0.00  0.00    +0.000 OA
BRANCH  17  18
ATOM     18  C   UNL     1      33.136  -1.581  17.797  0.00  0.00    +0.000 C 
BRANCH  18  19
ATOM     19  C   UNL     1      32.056  -2.490  17.231  0.00  0.00    +0.000 C 
BRANCH  19  20
ATOM     20  C   UNL     1      30.720  -2.224  17.843  0.00  0.00    +0.000 C 
BRANCH  20  22
ATOM     21  C   UNL     1      28.949  -2.982  19.343  0.00  0.00    +0.000 C 
ATOM     22  C   UNL     1      30.304  -3.323  18.766  0.00  0.00    +0.000 C 
ENDBRANCH  20  22
ENDBRANCH  19  20
ENDBRANCH  18  19
ENDBRANCH  17  18
ENDBRANCH  15  17
ENDBRANCH   1  15
BRANCH   4  23
ATOM     23  C   UNL     1      36.734   3.035  15.013  0.00  0.00    +0.000 C 
BRANCH  23  24
ATOM     24  C   UNL     1      37.721   3.864  15.716  0.00  0.00    +0.000 A 
ATOM     25  C   UNL     1      38.799   4.474  15.129  0.00  0.00    +0.000 A 
ATOM     26  C   UNL     1      39.689   5.244  15.869  0.00  0.00    +0.000 A 
ATOM     27  C   UNL     1      39.476   5.392  17.223  0.00  0.00    +0.000 A 
ATOM     28  C   UNL     1      38.405   4.792  17.841  0.00  0.00    +0.000 A 
ATOM     29  C   UNL     1      37.552   4.043  17.078  0.00  0.00    +0.000 A 
BRANCH  27  30
ATOM     30  O   UNL     1      40.336   6.149  18.003  0.00  0.00    +0.000 OA
ATOM     31  C   UNL     1      40.384   6.026  19.391  0.00  0.00    +0.000 C 
ENDBRANCH  27  30
ENDBRANCH  23  24
ENDBRANCH   4  23
TORSDOF 9
ENDMDL
MODEL 3
REMARK VINA RESULT:      -7.3      1.886      2.470
REMARK  Name = 
REMARK  9 active torsions:
REMARK  status: ('A' for Active; 'I' for Inactive)
REMARK    1  A    between atoms: C_2  and  C_3
REMARK    2  A    between atoms: C_3  and  C_4
REMARK    3  A    between atoms: C_4  and  C_5
REMARK    4  A    between atoms: C_5  and  O_6
REMARK    5  A    between atoms: O_6  and  C_7
REMARK    6  A    between atoms: C_7  and  C_9
REMARK    7  A    between atoms: N_12  and  C_13
REMARK    8  A    between atoms: C_13  and  C_14
REMARK    9  A    between atoms: C_17  and  O_18
REMARK                            x       y       z     vdW  Elec       q    Type
REMARK                         _______ _______ _______ _____ _____    ______ ____
ROOT
ATOM      1  C   UNL     1      36.016   0.032  16.383  0.00  0.00    +0.000 A 
ATOM      2  C   UNL     1      35.735   1.354  16.135  0.00  0.00    +0.000 A 
ATOM      3  N   UNL     1      34.509   1.986  16.511  0.00  0.00    +0.000 NA
ATOM      4  N   UNL     1      36.746   1.953  15.506  0.00  0.00    +0.000 N 
ATOM      5  C   UNL     1      37.703   0.997  15.344  0.00  0.00    +0.000 A 
ATOM      6  N   UNL     1      38.917   1.076  14.771  0.00  0.00    +0.000 NA
ATOM      7  C   UNL     1      39.702  -0.037  14.731  0.00  0.00    +0.000 A 
ATOM      8  C   UNL     1      40.964   0.037  14.137  0.00  0.00    +0.000 A 
ATOM      9  C   UNL     1      41.748  -1.089  14.101  0.00  0.00    +0.000 A 
ATOM     10  C   UNL     1      41.324  -2.285  14.632  0.00  0.00    +0.000 A 
ATOM     11  C   UNL     1      40.088  -2.381  15.220  0.00  0.00    +0.000 A 
ATOM     12  C   UNL     1      39.280  -1.234  15.261  0.00  0.00    +0.000 A 
ATOM     13  N   UNL     1      38.053  -1.311  15.840  0.00  0.00    +0.000 NA
ATOM     14  C   UNL     1      37.297  -0.201  15.867  0.00  0.00    +0.000 A 
ENDROOT
BRANCH   1  15
ATOM     15  C   UNL     1      35.185  -0.967  17.043  0.00  0.00    +0.000 C 
ATOM     16  O   UNL     1      35.028  -0.928  18.289  0.00  0.00    +0.000 OA
BRANCH  15  17
ATOM     17  O   UNL     1      34.543  -1.982  16.365  0.00  0.00    +0.000 OA
BRANCH  17  18
ATOM     18  C   UNL     1      35.099  -3.295  16.287  0.00  0.00    +0.000 C 
BRANCH  18  19
ATOM     19  C   UNL     1      35.195  -3.656  14.811  0.00  0.00    +0.000 C 
BRANCH  19  20
ATOM     20  C   UNL     1      34.052  -4.509  14.367  0.00  0.00    +0.000 C 
BRANCH  20  22
ATOM     21  C   UNL     1      34.031  -6.949  14.300  0.00  0.00    +0.000 C 
ATOM     22  C   UNL     1      33.922  -5.741  15.202  0.00  0.00    +0.000 C 
ENDBRANCH  20  22
ENDBRANCH  19  20
ENDBRANCH  18  19
ENDBRANCH  17  18
ENDBRANCH  15  17
ENDBRANCH   1  15
BRANCH   4  23
ATOM     23  C   UNL     1      36.887   3.324  15.053  0.00  0.00    +0.000 C 
BRANCH  23  24
ATOM     24  C   UNL     1      37.839   4.048  15.907  0.00  0.00    +0.000 A 
ATOM     25  C   UNL     1      38.897   4.792  15.454  0.00  0.00    +0.000 A 
ATOM     26  C   UNL     1      39.753   5.447  16.331  0.00  0.00    +0.000 A 
ATOM     27  C   UNL     1      39.525   5.342  17.687  0.00  0.00    +0.000 A 
ATOM     28  C   UNL     1      38.473   4.603  18.173  0.00  0.00    +0.000 A 
ATOM     29  C   UNL     1      37.654   3.973  17.277  0.00  0.00    +0.000 A 
BRANCH  27  30
ATOM     30  O   UNL     1      40.351   5.977  18.601  0.00  0.00    +0.000 OA
ATOM     31  C   UNL     1      39.861   6.543  19.777  0.00  0.00    +0.000 C 
ENDBRANCH  27  30
ENDBRANCH  23  24
ENDBRANCH   4  23
TORSDOF 9
ENDMDL
MODEL 4
REMARK VINA RESULT:      -7.1      2.593      7.160
REMARK  Name = 
REMARK  9 active torsions:
REMARK  status: ('A' for Active; 'I' for Inactive)
REMARK    1  A    between atoms: C_2  and  C_3
REMARK    2  A    between atoms: C_3  and  C_4
REMARK    3  A    between atoms: C_4  and  C_5
REMARK    4  A    between atoms: C_5  and  O_6
REMARK    5  A    between atoms: O_6  and  C_7
REMARK    6  A    between atoms: C_7  and  C_9
REMARK    7  A    between atoms: N_12  and  C_13
REMARK    8  A    between atoms: C_13  and  C_14
REMARK    9  A    between atoms: C_17  and  O_18
REMARK                            x       y       z     vdW  Elec       q    Type
REMARK                         _______ _______ _______ _____ _____    ______ ____
ROOT
ATOM      1  C   UNL     1      36.601   0.990  15.811  0.00  0.00    +0.000 A 
ATOM      2  C   UNL     1      35.872   0.137  16.605  0.00  0.00    +0.000 A 
ATOM      3  N   UNL     1      34.586   0.460  17.141  0.00  0.00    +0.000 NA
ATOM      4  N   UNL     1      36.518  -1.013  16.799  0.00  0.00    +0.000 N 
ATOM      5  C   UNL     1      37.691  -0.900  16.117  0.00  0.00    +0.000 A 
ATOM      6  N   UNL     1      38.704  -1.775  15.987  0.00  0.00    +0.000 NA
ATOM      7  C   UNL     1      39.789  -1.424  15.240  0.00  0.00    +0.000 A 
ATOM      8  C   UNL     1      40.844  -2.328  15.100  0.00  0.00    +0.000 A 
ATOM      9  C   UNL     1      41.933  -1.967  14.347  0.00  0.00    +0.000 A 
ATOM     10  C   UNL     1      42.011  -0.741  13.728  0.00  0.00    +0.000 A 
ATOM     11  C   UNL     1      40.986   0.164  13.852  0.00  0.00    +0.000 A 
ATOM     12  C   UNL     1      39.869  -0.199  14.621  0.00  0.00    +0.000 A 
ATOM     13  N   UNL     1      38.844   0.683  14.754  0.00  0.00    +0.000 NA
ATOM     14  C   UNL     1      37.786   0.315  15.495  0.00  0.00    +0.000 A 
ENDROOT
BRANCH   1  15
ATOM     15  C   UNL     1      36.257   2.333  15.363  0.00  0.00    +0.000 C 
ATOM     16  O   UNL     1      35.613   2.493  14.297  0.00  0.00    +0.000 OA
BRANCH  15  17
ATOM     17  O   UNL     1      36.605   3.473  16.058  0.00  0.00    +0.000 OA
BRANCH  17  18
ATOM     18  C   UNL     1      37.381   4.508  15.451  0.00  0.00    +0.000 C 
BRANCH  18  19
ATOM     19  C   UNL     1      38.842   4.220  15.768  0.00  0.00    +0.000 C 
BRANCH  19  20
ATOM     20  C   UNL     1      39.450   5.283  16.622  0.00  0.00    +0.000 C 
BRANCH  20  22
ATOM     21  C   UNL     1      39.391   5.792  19.010  0.00  0.00    +0.000 C 
ATOM     22  C   UNL     1      38.555   5.662  17.757  0.00  0.00    +0.000 C 
ENDBRANCH  20  22
ENDBRANCH  19  20
ENDBRANCH  18  19
ENDBRANCH  17  18
ENDBRANCH  15  17
ENDBRANCH   1  15
BRANCH   4  23
ATOM     23  C   UNL     1      36.133  -2.187  17.559  0.00  0.00    +0.000 C 
BRANCH  23  24
ATOM     24  C   UNL     1      35.587  -3.216  16.664  0.00  0.00    +0.000 A 
ATOM     25  C   UNL     1      34.432  -3.096  15.936  0.00  0.00    +0.000 A 
ATOM     26  C   UNL     1      33.984  -4.122  15.111  0.00  0.00    +0.000 A 
ATOM     27  C   UNL     1      34.724  -5.283  15.029  0.00  0.00    +0.000 A 
ATOM     28  C   UNL     1      35.886  -5.433  15.748  0.00  0.00    +0.000 A 
ATOM     29  C   UNL     1      36.293  -4.401  16.548  0.00  0.00    +0.000 A 
BRANCH  27  30
ATOM     30  O   UNL     1      34.318  -6.332  14.221  0.00  0.00    +0.000 OA
ATOM     31  C   UNL     1      33.744  -7.492  14.741  0.00  0.00    +0.000 C 
ENDBRANCH  27  30
ENDBRANCH  23  24
ENDBRANCH   4  23
TORSDOF 9
ENDMDL
MODEL 5
REMARK VINA RESULT:      -7.0      2.491      6.346
REMARK  Name = 
REMARK  9 active torsions:
REMARK  status: ('A' for Active; 'I' for Inactive)
REMARK    1  A    between atoms: C_2  and  C_3
REMARK    2  A    between atoms: C_3  and  C_4
REMARK    3  A    between atoms: C_4  and  C_5
REMARK    4  A    between atoms: C_5  and  O_6
REMARK    5  A    between atoms: O_6  and  C_7
REMARK    6  A    between atoms: C_7  and  C_9
REMARK    7  A    between atoms: N_12  and  C_13
REMARK    8  A    between atoms: C_13  and  C_14
REMARK    9  A    between atoms: C_17  and  O_18
REMARK                            x       y       z     vdW  Elec       q    Type
REMARK                         _______ _______ _______ _____ _____    ______ ____
ROOT
ATOM      1  C   UNL     1      37.454   2.979  13.928  0.00  0.00    +0.000 A 
ATOM      2  C   UNL     1      36.403   2.256  14.439  0.00  0.00    +0.000 A 
ATOM      3  N   UNL     1      35.564   1.412  13.646  0.00  0.00    +0.000 NA
ATOM      4  N   UNL     1      36.278   2.446  15.752  0.00  0.00    +0.000 N 
ATOM      5  C   UNL     1      37.270   3.312  16.099  0.00  0.00    +0.000 A 
ATOM      6  N   UNL     1      37.587   3.830  17.299  0.00  0.00    +0.000 NA
ATOM      7  C   UNL     1      38.641   4.689  17.390  0.00  0.00    +0.000 A 
ATOM      8  C   UNL     1      38.976   5.231  18.633  0.00  0.00    +0.000 A 
ATOM      9  C   UNL     1      40.038   6.096  18.716  0.00  0.00    +0.000 A 
ATOM     10  C   UNL     1      40.779   6.442  17.610  0.00  0.00    +0.000 A 
ATOM     11  C   UNL     1      40.468   5.922  16.379  0.00  0.00    +0.000 A 
ATOM     12  C   UNL     1      39.382   5.037  16.286  0.00  0.00    +0.000 A 
ATOM     13  N   UNL     1      39.060   4.512  15.074  0.00  0.00    +0.000 NA
ATOM     14  C   UNL     1      38.018   3.668  15.009  0.00  0.00    +0.000 A 
ENDROOT
BRANCH   1  15
ATOM     15  C   UNL     1      37.926   3.051  12.551  0.00  0.00    +0.000 C 
ATOM     16  O   UNL     1      37.545   3.987  11.806  0.00  0.00    +0.000 OA
BRANCH  15  17
ATOM     17  O   UNL     1      38.789   2.127  12.000  0.00  0.00    +0.000 OA
BRANCH  17  18
ATOM     18  C   UNL     1      38.317   0.883  11.479  0.00  0.00    +0.000 C 
BRANCH  18  19
ATOM     19  C   UNL     1      39.156  -0.217  12.112  0.00  0.00    +0.000 C 
BRANCH  19  20
ATOM     20  C   UNL     1      38.495  -0.805  13.315  0.00  0.00    +0.000 C 
BRANCH  20  22
ATOM     21  C   UNL     1      39.670  -1.484  15.345  0.00  0.00    +0.000 C 
ATOM     22  C   UNL     1      39.107  -0.306  14.584  0.00  0.00    +0.000 C 
ENDBRANCH  20  22
ENDBRANCH  19  20
ENDBRANCH  18  19
ENDBRANCH  17  18
ENDBRANCH  15  17
ENDBRANCH   1  15
BRANCH   4  23
ATOM     23  C   UNL     1      35.322   1.893  16.692  0.00  0.00    +0.000 C 
BRANCH  23  24
ATOM     24  C   UNL     1      35.834   0.640  17.263  0.00  0.00    +0.000 A 
ATOM     25  C   UNL     1      36.309   0.492  18.540  0.00  0.00    +0.000 A 
ATOM     26  C   UNL     1      36.778  -0.732  19.003  0.00  0.00    +0.000 A 
ATOM     27  C   UNL     1      36.762  -1.817  18.152  0.00  0.00    +0.000 A 
ATOM     28  C   UNL     1      36.291  -1.700  16.865  0.00  0.00    +0.000 A 
ATOM     29  C   UNL     1      35.839  -0.479  16.448  0.00  0.00    +0.000 A 
BRANCH  27  30
ATOM     30  O   UNL     1      37.218  -3.057  18.567  0.00  0.00    +0.000 OA
ATOM     31  C   UNL     1      38.541  -3.270  18.956  0.00  0.00    +0.000 C 
ENDBRANCH  27  30
ENDBRANCH  23  24
ENDBRANCH   4  23
TORSDOF 9
ENDMDL
MODEL 6
REMARK VINA RESULT:      -6.9      2.160      5.613
REMARK  Name = 
REMARK  9 active torsions:
REMARK  status: ('A' for Active; 'I' for Inactive)
REMARK    1  A    between atoms: C_2  and  C_3
REMARK    2  A    between atoms: C_3  and  C_4
REMARK    3  A    between atoms: C_4  and  C_5
REMARK    4  A    between atoms: C_5  and  O_6
REMARK    5  A    between atoms: O_6  and  C_7
REMARK    6  A    between atoms: C_7  and  C_9
REMARK    7  A    between atoms: N_12  and  C_13
REMARK    8  A    between atoms: C_13  and  C_14
REMARK    9  A    between atoms: C_17  and  O_18
REMARK                            x       y       z     vdW  Elec       q    Type
REMARK                         _______ _______ _______ _____ _____    ______ ____
ROOT
ATOM      1  C   UNL     1      36.611   1.788  16.086  0.00  0.00    +0.000 A 
ATOM      2  C   UNL     1      36.925   1.252  14.860  0.00  0.00    +0.000 A 
ATOM      3  N   UNL     1      36.252   0.126  14.292  0.00  0.00    +0.000 NA
ATOM      4  N   UNL     1      37.926   1.918  14.283  0.00  0.00    +0.000 N 
ATOM      5  C   UNL     1      38.267   2.906  15.157  0.00  0.00    +0.000 A 
ATOM      6  N   UNL     1      39.215   3.856  15.063  0.00  0.00    +0.000 NA
ATOM      7  C   UNL     1      39.364   4.744  16.085  0.00  0.00    +0.000 A 
ATOM      8  C   UNL     1      40.346   5.734  15.994  0.00  0.00    +0.000 A 
ATOM      9  C   UNL     1      40.490   6.624  17.028  0.00  0.00    +0.000 A 
ATOM     10  C   UNL     1      39.695   6.567  18.150  0.00  0.00    +0.000 A 
ATOM     11  C   UNL     1      38.724   5.603  18.261  0.00  0.00    +0.000 A 
ATOM     12  C   UNL     1      38.571   4.689  17.207  0.00  0.00    +0.000 A 
ATOM     13  N   UNL     1      37.614   3.728  17.300  0.00  0.00    +0.000 NA
ATOM     14  C   UNL     1      37.486   2.864  16.280  0.00  0.00    +0.000 A 
ENDROOT
BRANCH   1  15
ATOM     15  C   UNL     1      35.587   1.360  17.031  0.00  0.00    +0.000 C 
ATOM     16  O   UNL     1      34.376   1.591  16.790  0.00  0.00    +0.000 OA
BRANCH  15  17
ATOM     17  O   UNL     1      35.874   0.699  18.206  0.00  0.00    +0.000 OA
BRANCH  17  18
ATOM     18  C   UNL     1      35.895  -0.728  18.274  0.00  0.00    +0.000 C 
BRANCH  18  19
ATOM     19  C   UNL     1      37.090  -1.121  19.130  0.00  0.00    +0.000 C 
BRANCH  19  20
ATOM     20  C   UNL     1      38.042  -2.004  18.392  0.00  0.00    +0.000 C 
BRANCH  20  22
ATOM     21  C   UNL     1      38.947  -1.688  16.147  0.00  0.00    +0.000 C 
ATOM     22  C   UNL     1      37.717  -2.075  16.936  0.00  0.00    +0.000 C 
ENDBRANCH  20  22
ENDBRANCH  19  20
ENDBRANCH  18  19
ENDBRANCH  17  18
ENDBRANCH  15  17
ENDBRANCH   1  15
BRANCH   4  23
ATOM     23  C   UNL     1      38.578   1.708  13.005  0.00  0.00    +0.000 C 
BRANCH  23  24
ATOM     24  C   UNL     1      39.494   0.564  13.082  0.00  0.00    +0.000 A 
ATOM     25  C   UNL     1      39.288  -0.654  12.487  0.00  0.00    +0.000 A 
ATOM     26  C   UNL     1      40.208  -1.688  12.610  0.00  0.00    +0.000 A 
ATOM     27  C   UNL     1      41.353  -1.477  13.349  0.00  0.00    +0.000 A 
ATOM     28  C   UNL     1      41.589  -0.267  13.958  0.00  0.00    +0.000 A 
ATOM     29  C   UNL     1      40.659   0.724  13.813  0.00  0.00    +0.000 A 
BRANCH  27  30
ATOM     30  O   UNL     1      42.300  -2.477  13.500  0.00  0.00    +0.000 OA
ATOM     31  C   UNL     1      43.046  -2.963  12.427  0.00  0.00    +0.000 C 
ENDBRANCH  27  30
ENDBRANCH  23  24
ENDBRANCH   4  23
TORSDOF 9
ENDMDL
MODEL 7
REMARK VINA RESULT:      -6.9      2.556      6.754
REMARK  Name = 
REMARK  9 active torsions:
REMARK  status: ('A' for Active; 'I' for Inactive)
REMARK    1  A    between atoms: C_2  and  C_3
REMARK    2  A    between atoms: C_3  and  C_4
REMARK    3  A    between atoms: C_4  and  C_5
REMARK    4  A    between atoms: C_5  and  O_6
REMARK    5  A    between atoms: O_6  and  C_7
REMARK    6  A    between atoms: C_7  and  C_9
REMARK    7  A    between atoms: N_12  and  C_13
REMARK    8  A    between atoms: C_13  and  C_14
REMARK    9  A    between atoms: C_17  and  O_18
REMARK                            x       y       z     vdW  Elec       q    Type
REMARK                         _______ _______ _______ _____ _____    ______ ____
ROOT
ATOM      1  C   UNL     1      37.947   2.581  15.221  0.00  0.00    +0.000 A 
ATOM      2  C   UNL     1      38.854   2.303  14.226  0.00  0.00    +0.000 A 
ATOM      3  N   UNL     1      39.770   3.266  13.700  0.00  0.00    +0.000 NA
ATOM      4  N   UNL     1      38.761   1.034  13.828  0.00  0.00    +0.000 N 
ATOM      5  C   UNL     1      37.772   0.479  14.582  0.00  0.00    +0.000 A 
ATOM      6  N   UNL     1      37.281  -0.773  14.580  0.00  0.00    +0.000 NA
ATOM      7  C   UNL     1      36.275  -1.090  15.443  0.00  0.00    +0.000 A 
ATOM      8  C   UNL     1      35.760  -2.389  15.446  0.00  0.00    +0.000 A 
ATOM      9  C   UNL     1      34.747  -2.699  16.317  0.00  0.00    +0.000 A 
ATOM     10  C   UNL     1      34.226  -1.767  17.186  0.00  0.00    +0.000 A 
ATOM     11  C   UNL     1      34.717  -0.485  17.200  0.00  0.00    +0.000 A 
ATOM     12  C   UNL     1      35.753  -0.160  16.311  0.00  0.00    +0.000 A 
ATOM     13  N   UNL     1      36.251   1.104  16.312  0.00  0.00    +0.000 NA
ATOM     14  C   UNL     1      37.242   1.393  15.452  0.00  0.00    +0.000 A 
ENDROOT
BRANCH   1  15
ATOM     15  C   UNL     1      37.724   3.837  15.924  0.00  0.00    +0.000 C 
ATOM     16  O   UNL     1      36.929   4.687  15.452  0.00  0.00    +0.000 OA
BRANCH  15  17
ATOM     17  O   UNL     1      38.350   4.160  17.110  0.00  0.00    +0.000 OA
BRANCH  17  18
ATOM     18  C   UNL     1      38.850   5.476  17.355  0.00  0.00    +0.000 C 
BRANCH  18  19
ATOM     19  C   UNL     1      39.343   5.509  18.794  0.00  0.00    +0.000 C 
BRANCH  19  20
ATOM     20  C   UNL     1      39.089   6.830  19.444  0.00  0.00    +0.000 C 
BRANCH  20  22
ATOM     21  C   UNL     1      41.385   6.290  20.074  0.00  0.00    +0.000 C 
ATOM     22  C   UNL     1      40.293   7.330  20.174  0.00  0.00    +0.000 C 
ENDBRANCH  20  22
ENDBRANCH  19  20
ENDBRANCH  18  19
ENDBRANCH  17  18
ENDBRANCH  15  17
ENDBRANCH   1  15
BRANCH   4  23
ATOM     23  C   UNL     1      39.509   0.312  12.817  0.00  0.00    +0.000 C 
BRANCH  23  24
ATOM     24  C   UNL     1      40.686  -0.331  13.416  0.00  0.00    +0.000 A 
ATOM     25  C   UNL     1      40.723  -1.614  13.898  0.00  0.00    +0.000 A 
ATOM     26  C   UNL     1      41.881  -2.149  14.452  0.00  0.00    +0.000 A 
ATOM     27  C   UNL     1      43.013  -1.365  14.514  0.00  0.00    +0.000 A 
ATOM     28  C   UNL     1      43.008  -0.074  14.039  0.00  0.00    +0.000 A 
ATOM     29  C   UNL     1      41.849   0.414  13.502  0.00  0.00    +0.000 A 
BRANCH  27  30
ATOM     30  O   UNL     1      44.191  -1.853  15.057  0.00  0.00    +0.000 OA
ATOM     31  C   UNL     1      45.416  -1.738  14.401  0.00  0.00    +0.000 C 
ENDBRANCH  27  30
ENDBRANCH  23  24
ENDBRANCH   4  23
TORSDOF 9
ENDMDL
MODEL 8
REMARK VINA RESULT:      -6.8      2.686      4.890
REMARK  Name = 
REMARK  9 active torsions:
REMARK  status: ('A' for Active; 'I' for Inactive)
REMARK    1  A    between atoms: C_2  and  C_3
REMARK    2  A    between atoms: C_3  and  C_4
REMARK    3  A    between atoms: C_4  and  C_5
REMARK    4  A    between atoms: C_5  and  O_6
REMARK    5  A    between atoms: O_6  and  C_7
REMARK    6  A    between atoms: C_7  and  C_9
REMARK    7  A    between atoms: N_12  and  C_13
REMARK    8  A    between atoms: C_13  and  C_14
REMARK    9  A    between atoms: C_17  and  O_18
REMARK                            x       y       z     vdW  Elec       q    Type
REMARK                         _______ _______ _______ _____ _____    ______ ____
ROOT
ATOM      1  C   UNL     1      39.682   1.865  13.955  0.00  0.00    +0.000 A 
ATOM      2  C   UNL     1      39.767   3.231  14.078  0.00  0.00    +0.000 A 
ATOM      3  N   UNL     1      40.804   4.016  13.485  0.00  0.00    +0.000 NA
ATOM      4  N   UNL     1      38.764   3.713  14.813  0.00  0.00    +0.000 N 
ATOM      5  C   UNL     1      38.015   2.634  15.174  0.00  0.00    +0.000 A 
ATOM      6  N   UNL     1      36.896   2.567  15.917  0.00  0.00    +0.000 NA
ATOM      7  C   UNL     1      36.324   1.350  16.140  0.00  0.00    +0.000 A 
ATOM      8  C   UNL     1      35.161   1.273  16.910  0.00  0.00    +0.000 A 
ATOM      9  C   UNL     1      34.592   0.044  17.132  0.00  0.00    +0.000 A 
ATOM     10  C   UNL     1      35.135  -1.110  16.617  0.00  0.00    +0.000 A 
ATOM     11  C   UNL     1      36.277  -1.058  15.857  0.00  0.00    +0.000 A 
ATOM     12  C   UNL     1      36.866   0.196  15.627  0.00  0.00    +0.000 A 
ATOM     13  N   UNL     1      37.997   0.266  14.877  0.00  0.00    +0.000 NA
ATOM     14  C   UNL     1      38.542   1.476  14.670  0.00  0.00    +0.000 A 
ENDROOT
BRANCH   1  15
ATOM     15  C   UNL     1      40.572   0.958  13.240  0.00  0.00    +0.000 C 
ATOM     16  O   UNL     1      41.576   0.477  13.821  0.00  0.00    +0.000 OA
BRANCH  15  17
ATOM     17  O   UNL     1      40.373   0.586  11.927  0.00  0.00    +0.000 OA
BRANCH  17  18
ATOM     18  C   UNL     1      40.627  -0.748  11.484  0.00  0.00    +0.000 C 
BRANCH  18  19
ATOM     19  C   UNL     1      39.438  -1.598  11.909  0.00  0.00    +0.000 C 
BRANCH  19  20
ATOM     20  C   UNL     1      39.857  -2.792  12.700  0.00  0.00    +0.000 C 
BRANCH  20  22
ATOM     21  C   UNL     1      40.539  -2.648  15.041  0.00  0.00    +0.000 C 
ATOM     22  C   UNL     1      39.354  -2.731  14.106  0.00  0.00    +0.000 C 
ENDBRANCH  20  22
ENDBRANCH  19  20
ENDBRANCH  18  19
ENDBRANCH  17  18
ENDBRANCH  15  17
ENDBRANCH   1  15
BRANCH   4  23
ATOM     23  C   UNL     1      38.457   5.077  15.198  0.00  0.00    +0.000 C 
BRANCH  23  24
ATOM     24  C   UNL     1      39.177   5.434  16.427  0.00  0.00    +0.000 A 
ATOM     25  C   UNL     1      40.435   5.975  16.475  0.00  0.00    +0.000 A 
ATOM     26  C   UNL     1      41.047   6.285  17.684  0.00  0.00    +0.000 A 
ATOM     27  C   UNL     1      40.366   6.040  18.858  0.00  0.00    +0.000 A 
ATOM     28  C   UNL     1      39.103   5.498  18.843  0.00  0.00    +0.000 A 
ATOM     29  C   UNL     1      38.536   5.207  17.633  0.00  0.00    +0.000 A 
BRANCH  27  30
ATOM     30  O   UNL     1      40.934   6.331  20.087  0.00  0.00    +0.000 OA
ATOM     31  C   UNL     1      41.906   7.320  20.242  0.00  0.00    +0.000 C 
ENDBRANCH  27  30
ENDBRANCH  23  24
ENDBRANCH   4  23
TORSDOF 9
ENDMDL
MODEL 9
REMARK VINA RESULT:      -6.7      2.591      3.557
REMARK  Name = 
REMARK  9 active torsions:
REMARK  status: ('A' for Active; 'I' for Inactive)
REMARK    1  A    between atoms: C_2  and  C_3
REMARK    2  A    between atoms: C_3  and  C_4
REMARK    3  A    between atoms: C_4  and  C_5
REMARK    4  A    between atoms: C_5  and  O_6
REMARK    5  A    between atoms: O_6  and  C_7
REMARK    6  A    between atoms: C_7  and  C_9
REMARK    7  A    between atoms: N_12  and  C_13
REMARK    8  A    between atoms: C_13  and  C_14
REMARK    9  A    between atoms: C_17  and  O_18
REMARK                            x       y       z     vdW  Elec       q    Type
REMARK                         _______ _______ _______ _____ _____    ______ ____
ROOT
ATOM      1  C   UNL     1      36.139  -2.258  15.614  0.00  0.00    +0.000 A 
ATOM      2  C   UNL     1      35.601  -1.331  16.473  0.00  0.00    +0.000 A 
ATOM      3  N   UNL     1      34.374  -1.526  17.181  0.00  0.00    +0.000 NA
ATOM      4  N   UNL     1      36.369  -0.244  16.554  0.00  0.00    +0.000 N 
ATOM      5  C   UNL     1      37.427  -0.474  15.728  0.00  0.00    +0.000 A 
ATOM      6  N   UNL     1      38.489   0.301  15.444  0.00  0.00    +0.000 NA
ATOM      7  C   UNL     1      39.429  -0.159  14.572  0.00  0.00    +0.000 A 
ATOM      8  C   UNL     1      40.535   0.641  14.273  0.00  0.00    +0.000 A 
ATOM      9  C   UNL     1      41.476   0.171  13.392  0.00  0.00    +0.000 A 
ATOM     10  C   UNL     1      41.360  -1.065  12.799  0.00  0.00    +0.000 A 
ATOM     11  C   UNL     1      40.282  -1.868  13.078  0.00  0.00    +0.000 A 
ATOM     12  C   UNL     1      39.315  -1.393  13.977  0.00  0.00    +0.000 A 
ATOM     13  N   UNL     1      38.241  -2.175  14.265  0.00  0.00    +0.000 NA
ATOM     14  C   UNL     1      37.328  -1.700  15.128  0.00  0.00    +0.000 A 
ENDROOT
BRANCH   1  15
ATOM     15  C   UNL     1      35.618  -3.569  15.248  0.00  0.00    +0.000 C 
ATOM     16  O   UNL     1      34.557  -3.659  14.582  0.00  0.00    +0.000 OA
BRANCH  15  17
ATOM     17  O   UNL     1      36.237  -4.752  15.598  0.00  0.00    +0.000 OA
BRANCH  17  18
ATOM     18  C   UNL     1      36.637  -5.014  16.944  0.00  0.00    +0.000 C 
BRANCH  18  19
ATOM     19  C   UNL     1      38.155  -5.121  16.950  0.00  0.00    +0.000 C 
BRANCH  19  20
ATOM     20  C   UNL     1      38.805  -3.855  17.399  0.00  0.00    +0.000 C 
BRANCH  20  22
ATOM     21  C   UNL     1      38.027  -2.273  19.088  0.00  0.00    +0.000 C 
ATOM     22  C   UNL     1      38.640  -3.637  18.868  0.00  0.00    +0.000 C 
ENDBRANCH  20  22
ENDBRANCH  19  20
ENDBRANCH  18  19
ENDBRANCH  17  18
ENDBRANCH  15  17
ENDBRANCH   1  15
BRANCH   4  23
ATOM     23  C   UNL     1      36.196   0.970  17.328  0.00  0.00    +0.000 C 
BRANCH  23  24
ATOM     24  C   UNL     1      35.979   2.117  16.435  0.00  0.00    +0.000 A 
ATOM     25  C   UNL     1      36.899   3.100  16.177  0.00  0.00    +0.000 A 
ATOM     26  C   UNL     1      36.613   4.154  15.317  0.00  0.00    +0.000 A 
ATOM     27  C   UNL     1      35.374   4.205  14.714  0.00  0.00    +0.000 A 
ATOM     28  C   UNL     1      34.430   3.234  14.953  0.00  0.00    +0.000 A 
ATOM     29  C   UNL     1      34.751   2.214  15.806  0.00  0.00    +0.000 A 
BRANCH  27  30
ATOM     30  O   UNL     1      35.042   5.236  13.850  0.00  0.00    +0.000 OA
ATOM     31  C   UNL     1      35.796   5.524  12.713  0.00  0.00    +0.000 C 
ENDBRANCH  27  30
ENDBRANCH  23  24
ENDBRANCH   4  23
TORSDOF 9
ENDMDL
MODEL 10
REMARK VINA RESULT:      -6.6     23.634     27.385
REMARK  Name = 
REMARK  9 active torsions:
REMARK  status: ('A' for Active; 'I' for Inactive)
REMARK    1  A    between atoms: C_2  and  C_3
REMARK    2  A    between atoms: C_3  and  C_4
REMARK    3  A    between atoms: C_4  and  C_5
REMARK    4  A    between atoms: C_5  and  O_6
REMARK    5  A    between atoms: O_6  and  C_7
REMARK    6  A    between atoms: C_7  and  C_9
REMARK    7  A    between atoms: N_12  and  C_13
REMARK    8  A    between atoms: C_13  and  C_14
REMARK    9  A    between atoms: C_17  and  O_18
REMARK                            x       y       z     vdW  Elec       q    Type
REMARK                         _______ _______ _______ _____ _____    ______ ____
ROOT
ATOM      1  C   UNL     1      27.283  15.577  34.925  0.00  0.00    +0.000 A 
ATOM      2  C   UNL     1      28.635  15.801  35.020  0.00  0.00    +0.000 A 
ATOM      3  N   UNL     1      29.495  15.946  33.887  0.00  0.00    +0.000 NA
ATOM      4  N   UNL     1      29.027  15.865  36.293  0.00  0.00    +0.000 N 
ATOM      5  C   UNL     1      27.902  15.677  37.037  0.00  0.00    +0.000 A 
ATOM      6  N   UNL     1      27.742  15.648  38.372  0.00  0.00    +0.000 NA
ATOM      7  C   UNL     1      26.497  15.440  38.885  0.00  0.00    +0.000 A 
ATOM      8  C   UNL     1      26.323  15.409  40.270  0.00  0.00    +0.000 A 
ATOM      9  C   UNL     1      25.066  15.198  40.778  0.00  0.00    +0.000 A 
ATOM     10  C   UNL     1      23.975  15.017  39.960  0.00  0.00    +0.000 A 
ATOM     11  C   UNL     1      24.122  15.044  38.595  0.00  0.00    +0.000 A 
ATOM     12  C   UNL     1      25.405  15.258  38.069  0.00  0.00    +0.000 A 
ATOM     13  N   UNL     1      25.569  15.288  36.720  0.00  0.00    +0.000 NA
ATOM     14  C   UNL     1      26.806  15.495  36.239  0.00  0.00    +0.000 A 
ENDROOT
BRANCH   1  15
ATOM     15  C   UNL     1      26.465  15.442  33.726  0.00  0.00    +0.000 C 
ATOM     16  O   UNL     1      26.169  14.300  33.294  0.00  0.00    +0.000 OA
BRANCH  15  17
ATOM     17  O   UNL     1      25.981  16.522  33.017  0.00  0.00    +0.000 OA
BRANCH  17  18
ATOM     18  C   UNL     1      24.604  16.897  33.078  0.00  0.00    +0.000 C 
BRANCH  18  19
ATOM     19  C   UNL     1      24.555  18.415  33.172  0.00  0.00    +0.000 C 
BRANCH  19  20
ATOM     20  C   UNL     1      24.202  19.047  31.867  0.00  0.00    +0.000 C 
BRANCH  20  22
ATOM     21  C   UNL     1      22.669  20.939  31.687  0.00  0.00    +0.000 C 
ATOM     22  C   UNL     1      22.760  19.436  31.810  0.00  0.00    +0.000 C 
ENDBRANCH  20  22
ENDBRANCH  19  20
ENDBRANCH  18  19
ENDBRANCH  17  18
ENDBRANCH  15  17
ENDBRANCH   1  15
BRANCH   4  23
ATOM     23  C   UNL     1      30.344  16.084  36.858  0.00  0.00    +0.000 C 
BRANCH  23  24
ATOM     24  C   UNL     1      31.076  14.814  36.950  0.00  0.00    +0.000 A 
ATOM     25  C   UNL     1      30.986  13.925  37.990  0.00  0.00    +0.000 A 
ATOM     26  C   UNL     1      31.717  12.742  38.000  0.00  0.00    +0.000 A 
ATOM     27  C   UNL     1      32.548  12.463  36.935  0.00  0.00    +0.000 A 
ATOM     28  C   UNL     1      32.660  13.335  35.878  0.00  0.00    +0.000 A 
ATOM     29  C   UNL     1      31.925  14.488  35.907  0.00  0.00    +0.000 A 
BRANCH  27  30
ATOM     30  O   UNL     1      33.295  11.298  36.900  0.00  0.00    +0.000 OA
ATOM     31  C   UNL     1      34.684  11.301  37.028  0.00  0.00    +0.000 C 
ENDBRANCH  27  30
ENDBRANCH  23  24
ENDBRANCH   4  23
TORSDOF 9
ENDMDL
