MODEL 1
REMARK VINA RESULT:      -6.9      0.000      0.000
REMARK  Name = 
REMARK  3 active torsions:
REMARK  status: ('A' for Active; 'I' for Inactive)
REMARK    1  A    between atoms: C_8  and  N_9
REMARK    2  A    between atoms: C_10  and  C_12
REMARK    3  A    between atoms: C_12  and  C_13
REMARK                            x       y       z     vdW  Elec       q    Type
REMARK                         _______ _______ _______ _____ _____    ______ ____
ROOT
ATOM      1  N   UNL     1      17.822   9.503  37.620  0.00  0.00    +0.000 NA
ATOM      2  C   UNL     1      18.766  10.058  38.488  0.00  0.00    +0.000 C 
ATOM      3  O   UNL     1      19.328  11.137  38.144  0.00  0.00    +0.000 OA
ENDROOT
BRANCH   1  11
ATOM      4  C   UNL     1      15.583  11.266  37.548  0.00  0.00    +0.000 C 
ATOM      5  C   UNL     1      16.346  10.876  36.331  0.00  0.00    +0.000 A 
ATOM      6  C   UNL     1      15.924  11.416  35.112  0.00  0.00    +0.000 A 
ATOM      7  C   UNL     1      16.597  11.087  33.961  0.00  0.00    +0.000 A 
ATOM      8  O   UNL     1      16.202  11.607  32.721  0.00  0.00    +0.000 OA
ATOM      9  C   UNL     1      17.673  10.241  33.978  0.00  0.00    +0.000 A 
ATOM     10  C   UNL     1      18.071   9.721  35.206  0.00  0.00    +0.000 A 
ATOM     11  C   UNL     1      17.422  10.027  36.376  0.00  0.00    +0.000 A 
ENDBRANCH   1  11
BRANCH   2  12
ATOM     12  C   UNL     1      19.092   9.382  39.789  0.00  0.00    +0.000 C 
ATOM     13  C   UNL     1      19.675  10.392  40.774  0.00  0.00    +0.000 C 
ATOM     14  C   UNL     1      20.657   9.629  41.609  0.00  0.00    +0.000 C 
ATOM     15  C   UNL     1      20.982   8.351  40.883  0.00  0.00    +0.000 C 
ATOM     16  C   UNL     1      20.147   8.327  39.626  0.00  0.00    +0.000 C 
BRANCH  12  17
ATOM     17  C   UNL     1      17.883   8.816  40.419  0.00  0.00    +0.000 A 
ATOM     18  C   UNL     1      16.872   9.650  40.817  0.00  0.00    +0.000 A 
ATOM     19  C   UNL     1      15.724   9.207  41.405  0.00  0.00    +0.000 A 
ATOM     20  C   UNL     1      15.565   7.860  41.613  0.00  0.00    +0.000 A 
ATOM     21  C   UNL     1      16.563   7.007  41.223  0.00  0.00    +0.000 A 
ATOM     22  C   UNL     1      17.730   7.449  40.625  0.00  0.00    +0.000 A 
ENDBRANCH  12  17
ENDBRANCH   2  12
TORSDOF 3
ENDMDL
MODEL 2
REMARK VINA RESULT:      -6.7     20.182     23.218
REMARK  Name = 
REMARK  3 active torsions:
REMARK  status: ('A' for Active; 'I' for Inactive)
REMARK    1  A    between atoms: C_8  and  N_9
REMARK    2  A    between atoms: C_10  and  C_12
REMARK    3  A    between atoms: C_12  and  C_13
REMARK                            x       y       z     vdW  Elec       q    Type
REMARK                         _______ _______ _______ _____ _____    ______ ____
ROOT
ATOM      1  N   UNL     1      28.590  24.436  26.300  0.00  0.00    +0.000 NA
ATOM      2  C   UNL     1      28.442  24.038  24.968  0.00  0.00    +0.000 C 
ATOM      3  O   UNL     1      27.602  23.130  24.708  0.00  0.00    +0.000 OA
ENDROOT
BRANCH   1  11
ATOM      4  C   UNL     1      29.837  22.416  27.878  0.00  0.00    +0.000 C 
ATOM      5  C   UNL     1      28.479  22.951  28.172  0.00  0.00    +0.000 A 
ATOM      6  C   UNL     1      27.809  22.420  29.279  0.00  0.00    +0.000 A 
ATOM      7  C   UNL     1      26.554  22.881  29.591  0.00  0.00    +0.000 A 
ATOM      8  O   UNL     1      25.851  22.373  30.692  0.00  0.00    +0.000 OA
ATOM      9  C   UNL     1      25.941  23.850  28.843  0.00  0.00    +0.000 A 
ATOM     10  C   UNL     1      26.633  24.360  27.748  0.00  0.00    +0.000 A 
ATOM     11  C   UNL     1      27.887  23.923  27.406  0.00  0.00    +0.000 A 
ENDBRANCH   1  11
BRANCH   2  12
ATOM     12  C   UNL     1      29.265  24.679  23.887  0.00  0.00    +0.000 C 
ATOM     13  C   UNL     1      28.721  26.068  23.567  0.00  0.00    +0.000 C 
ATOM     14  C   UNL     1      28.973  26.280  22.106  0.00  0.00    +0.000 C 
ATOM     15  C   UNL     1      29.240  24.934  21.487  0.00  0.00    +0.000 C 
ATOM     16  C   UNL     1      29.195  23.915  22.597  0.00  0.00    +0.000 C 
BRANCH  12  17
ATOM     17  C   UNL     1      30.668  24.854  24.313  0.00  0.00    +0.000 A 
ATOM     18  C   UNL     1      31.519  23.781  24.302  0.00  0.00    +0.000 A 
ATOM     19  C   UNL     1      32.828  23.860  24.680  0.00  0.00    +0.000 A 
ATOM     20  C   UNL     1      33.324  25.071  25.092  0.00  0.00    +0.000 A 
ATOM     21  C   UNL     1      32.491  26.158  25.111  0.00  0.00    +0.000 A 
ATOM     22  C   UNL     1      31.164  26.085  24.729  0.00  0.00    +0.000 A 
ENDBRANCH  12  17
ENDBRANCH   2  12
TORSDOF 3
ENDMDL
MODEL 3
REMARK VINA RESULT:      -6.7      0.706      1.550
REMARK  Name = 
REMARK  3 active torsions:
REMARK  status: ('A' for Active; 'I' for Inactive)
REMARK    1  A    between atoms: C_8  and  N_9
REMARK    2  A    between atoms: C_10  and  C_12
REMARK    3  A    between atoms: C_12  and  C_13
REMARK                            x       y       z     vdW  Elec       q    Type
REMARK                         _______ _______ _______ _____ _____    ______ ____
ROOT
ATOM      1  N   UNL     1      17.357   9.858  37.938  0.00  0.00    +0.000 NA
ATOM      2  C   UNL     1      18.424  10.351  38.694  0.00  0.00    +0.000 C 
ATOM      3  O   UNL     1      18.898  11.482  38.387  0.00  0.00    +0.000 OA
ENDROOT
BRANCH   1  11
ATOM      4  C   UNL     1      18.047   9.016  35.303  0.00  0.00    +0.000 C 
ATOM      5  C   UNL     1      17.066  10.102  35.576  0.00  0.00    +0.000 A 
ATOM      6  C   UNL     1      16.471  10.718  34.470  0.00  0.00    +0.000 A 
ATOM      7  C   UNL     1      15.559  11.724  34.670  0.00  0.00    +0.000 A 
ATOM      8  O   UNL     1      14.943  12.366  33.587  0.00  0.00    +0.000 OA
ATOM      9  C   UNL     1      15.217  12.141  35.929  0.00  0.00    +0.000 A 
ATOM     10  C   UNL     1      15.825  11.508  37.009  0.00  0.00    +0.000 A 
ATOM     11  C   UNL     1      16.741  10.499  36.847  0.00  0.00    +0.000 A 
ENDBRANCH   1  11
BRANCH   2  12
ATOM     12  C   UNL     1      18.982   9.550  39.836  0.00  0.00    +0.000 C 
ATOM     13  C   UNL     1      19.728  10.464  40.804  0.00  0.00    +0.000 C 
ATOM     14  C   UNL     1      20.847   9.640  41.363  0.00  0.00    +0.000 C 
ATOM     15  C   UNL     1      21.040   8.454  40.458  0.00  0.00    +0.000 C 
ATOM     16  C   UNL     1      19.994   8.542  39.375  0.00  0.00    +0.000 C 
BRANCH  12  17
ATOM     17  C   UNL     1      17.907   8.893  40.606  0.00  0.00    +0.000 A 
ATOM     18  C   UNL     1      17.102   9.643  41.423  0.00  0.00    +0.000 A 
ATOM     19  C   UNL     1      16.088   9.113  42.166  0.00  0.00    +0.000 A 
ATOM     20  C   UNL     1      15.857   7.762  42.099  0.00  0.00    +0.000 A 
ATOM     21  C   UNL     1      16.650   6.993  41.290  0.00  0.00    +0.000 A 
ATOM     22  C   UNL     1      17.679   7.523  40.533  0.00  0.00    +0.000 A 
ENDBRANCH  12  17
ENDBRANCH   2  12
TORSDOF 3
ENDMDL
MODEL 4
REMARK VINA RESULT:      -6.6      2.650      6.044
REMARK  Name = 
REMARK  3 active torsions:
REMARK  status: ('A' for Active; 'I' for Inactive)
REMARK    1  A    between atoms: C_8  and  N_9
REMARK    2  A    between atoms: C_10  and  C_12
REMARK    3  A    between atoms: C_12  and  C_13
REMARK                            x       y       z     vdW  Elec       q    Type
REMARK                         _______ _______ _______ _____ _____    ______ ____
ROOT
ATOM      1  N   UNL     1      18.754   8.234  39.301  0.00  0.00    +0.000 NA
ATOM      2  C   UNL     1      19.700   9.232  39.550  0.00  0.00    +0.000 C 
ATOM      3  O   UNL     1      20.265   9.248  40.680  0.00  0.00    +0.000 OA
ENDROOT
BRANCH   1  11
ATOM      4  C   UNL     1      16.494   8.717  40.972  0.00  0.00    +0.000 C 
ATOM      5  C   UNL     1      17.269   7.446  41.003  0.00  0.00    +0.000 A 
ATOM      6  C   UNL     1      16.844   6.461  41.902  0.00  0.00    +0.000 A 
ATOM      7  C   UNL     1      17.526   5.271  41.967  0.00  0.00    +0.000 A 
ATOM      8  O   UNL     1      17.131   4.261  42.856  0.00  0.00    +0.000 OA
ATOM      9  C   UNL     1      18.613   5.024  41.173  0.00  0.00    +0.000 A 
ATOM     10  C   UNL     1      19.010   6.022  40.288  0.00  0.00    +0.000 A 
ATOM     11  C   UNL     1      18.354   7.223  40.195  0.00  0.00    +0.000 A 
ENDBRANCH   1  11
BRANCH   2  12
ATOM     12  C   UNL     1      20.026  10.250  38.494  0.00  0.00    +0.000 C 
ATOM     13  C   UNL     1      21.350   9.902  37.819  0.00  0.00    +0.000 C 
ATOM     14  C   UNL     1      21.980  11.211  37.455  0.00  0.00    +0.000 C 
ATOM     15  C   UNL     1      21.301  12.287  38.258  0.00  0.00    +0.000 C 
ATOM     16  C   UNL     1      20.221  11.621  39.074  0.00  0.00    +0.000 C 
BRANCH  12  17
ATOM     17  C   UNL     1      18.998  10.275  37.436  0.00  0.00    +0.000 A 
ATOM     18  C   UNL     1      19.186   9.548  36.290  0.00  0.00    +0.000 A 
ATOM     19  C   UNL     1      18.285   9.516  35.266  0.00  0.00    +0.000 A 
ATOM     20  C   UNL     1      17.129  10.247  35.381  0.00  0.00    +0.000 A 
ATOM     21  C   UNL     1      16.920  10.982  36.518  0.00  0.00    +0.000 A 
ATOM     22  C   UNL     1      17.829  11.018  37.560  0.00  0.00    +0.000 A 
ENDBRANCH  12  17
ENDBRANCH   2  12
TORSDOF 3
ENDMDL
MODEL 5
REMARK VINA RESULT:      -6.6      2.489      4.506
REMARK  Name = 
REMARK  3 active torsions:
REMARK  status: ('A' for Active; 'I' for Inactive)
REMARK    1  A    between atoms: C_8  and  N_9
REMARK    2  A    between atoms: C_10  and  C_12
REMARK    3  A    between atoms: C_12  and  C_13
REMARK                            x       y       z     vdW  Elec       q    Type
REMARK                         _______ _______ _______ _____ _____    ______ ____
ROOT
ATOM      1  N   UNL     1      17.777  10.818  37.021  0.00  0.00    +0.000 NA
ATOM      2  C   UNL     1      18.822  11.447  37.703  0.00  0.00    +0.000 C 
ATOM      3  O   UNL     1      18.891  12.708  37.653  0.00  0.00    +0.000 OA
ENDROOT
BRANCH   1  11
ATOM      4  C   UNL     1      17.663  10.319  34.216  0.00  0.00    +0.000 C 
ATOM      5  C   UNL     1      16.708  11.220  34.919  0.00  0.00    +0.000 A 
ATOM      6  C   UNL     1      15.720  11.834  34.142  0.00  0.00    +0.000 A 
ATOM      7  C   UNL     1      14.815  12.672  34.744  0.00  0.00    +0.000 A 
ATOM      8  O   UNL     1      13.812  13.307  33.998  0.00  0.00    +0.000 OA
ATOM      9  C   UNL     1      14.856  12.923  36.089  0.00  0.00    +0.000 A 
ATOM     10  C   UNL     1      15.849  12.297  36.836  0.00  0.00    +0.000 A 
ATOM     11  C   UNL     1      16.771  11.453  36.268  0.00  0.00    +0.000 A 
ENDBRANCH   1  11
BRANCH   2  12
ATOM     12  C   UNL     1      19.828  10.635  38.469  0.00  0.00    +0.000 C 
ATOM     13  C   UNL     1      19.381   9.177  38.539  0.00  0.00    +0.000 C 
ATOM     14  C   UNL     1      19.874   8.662  39.856  0.00  0.00    +0.000 C 
ATOM     15  C   UNL     1      20.201   9.850  40.721  0.00  0.00    +0.000 C 
ATOM     16  C   UNL     1      19.948  11.086  39.895  0.00  0.00    +0.000 C 
BRANCH  12  17
ATOM     17  C   UNL     1      21.146  10.648  37.805  0.00  0.00    +0.000 A 
ATOM     18  C   UNL     1      22.127  11.490  38.262  0.00  0.00    +0.000 A 
ATOM     19  C   UNL     1      23.370  11.562  37.705  0.00  0.00    +0.000 A 
ATOM     20  C   UNL     1      23.662  10.755  36.634  0.00  0.00    +0.000 A 
ATOM     21  C   UNL     1      22.697   9.907  36.161  0.00  0.00    +0.000 A 
ATOM     22  C   UNL     1      21.435   9.828  36.720  0.00  0.00    +0.000 A 
ENDBRANCH  12  17
ENDBRANCH   2  12
TORSDOF 3
ENDMDL
MODEL 6
REMARK VINA RESULT:      -6.3      2.910      6.687
REMARK  Name = 
REMARK  3 active torsions:
REMARK  status: ('A' for Active; 'I' for Inactive)
REMARK    1  A    between atoms: C_8  and  N_9
REMARK    2  A    between atoms: C_10  and  C_12
REMARK    3  A    between atoms: C_12  and  C_13
REMARK                            x       y       z     vdW  Elec       q    Type
REMARK                         _______ _______ _______ _____ _____    ______ ____
ROOT
ATOM      1  N   UNL     1      17.741   8.515  39.591  0.00  0.00    +0.000 NA
ATOM      2  C   UNL     1      18.972   8.962  39.103  0.00  0.00    +0.000 C 
ATOM      3  O   UNL     1      20.022   8.565  39.685  0.00  0.00    +0.000 OA
ENDROOT
BRANCH   1  11
ATOM      4  C   UNL     1      16.471   9.552  41.924  0.00  0.00    +0.000 C 
ATOM      5  C   UNL     1      16.931   8.141  41.812  0.00  0.00    +0.000 A 
ATOM      6  C   UNL     1      16.716   7.309  42.916  0.00  0.00    +0.000 A 
ATOM      7  C   UNL     1      17.123   5.999  42.860  0.00  0.00    +0.000 A 
ATOM      8  O   UNL     1      16.926   5.136  43.947  0.00  0.00    +0.000 OA
ATOM      9  C   UNL     1      17.734   5.485  41.749  0.00  0.00    +0.000 A 
ATOM     10  C   UNL     1      17.933   6.337  40.665  0.00  0.00    +0.000 A 
ATOM     11  C   UNL     1      17.541   7.651  40.685  0.00  0.00    +0.000 A 
ENDBRANCH   1  11
BRANCH   2  12
ATOM     12  C   UNL     1      19.030   9.887  37.921  0.00  0.00    +0.000 C 
ATOM     13  C   UNL     1      18.237  11.158  38.210  0.00  0.00    +0.000 C 
ATOM     14  C   UNL     1      17.667  11.592  36.895  0.00  0.00    +0.000 C 
ATOM     15  C   UNL     1      17.731  10.417  35.957  0.00  0.00    +0.000 C 
ATOM     16  C   UNL     1      18.393   9.286  36.703  0.00  0.00    +0.000 C 
BRANCH  12  17
ATOM     17  C   UNL     1      20.417  10.302  37.632  0.00  0.00    +0.000 A 
ATOM     18  C   UNL     1      21.133   9.648  36.664  0.00  0.00    +0.000 A 
ATOM     19  C   UNL     1      22.417   9.970  36.336  0.00  0.00    +0.000 A 
ATOM     20  C   UNL     1      23.031  10.999  37.005  0.00  0.00    +0.000 A 
ATOM     21  C   UNL     1      22.335  11.667  37.977  0.00  0.00    +0.000 A 
ATOM     22  C   UNL     1      21.032  11.346  38.314  0.00  0.00    +0.000 A 
ENDBRANCH  12  17
ENDBRANCH   2  12
TORSDOF 3
ENDMDL
MODEL 7
REMARK VINA RESULT:      -6.3     21.030     23.739
REMARK  Name = 
REMARK  3 active torsions:
REMARK  status: ('A' for Active; 'I' for Inactive)
REMARK    1  A    between atoms: C_8  and  N_9
REMARK    2  A    between atoms: C_10  and  C_12
REMARK    3  A    between atoms: C_12  and  C_13
REMARK                            x       y       z     vdW  Elec       q    Type
REMARK                         _______ _______ _______ _____ _____    ______ ____
ROOT
ATOM      1  N   UNL     1      30.212  24.470  25.686  0.00  0.00    +0.000 NA
ATOM      2  C   UNL     1      30.301  24.254  24.308  0.00  0.00    +0.000 C 
ATOM      3  O   UNL     1      31.213  23.487  23.884  0.00  0.00    +0.000 OA
ENDROOT
BRANCH   1  11
ATOM      4  C   UNL     1      29.354  22.095  27.008  0.00  0.00    +0.000 C 
ATOM      5  C   UNL     1      30.643  22.772  27.315  0.00  0.00    +0.000 A 
ATOM      6  C   UNL     1      31.450  22.193  28.300  0.00  0.00    +0.000 A 
ATOM      7  C   UNL     1      32.650  22.781  28.619  0.00  0.00    +0.000 A 
ATOM      8  O   UNL     1      33.484  22.231  29.601  0.00  0.00    +0.000 OA
ATOM      9  C   UNL     1      33.076  23.922  27.994  0.00  0.00    +0.000 A 
ATOM     10  C   UNL     1      32.252  24.474  27.017  0.00  0.00    +0.000 A 
ATOM     11  C   UNL     1      31.047  23.915  26.673  0.00  0.00    +0.000 A 
ENDBRANCH   1  11
BRANCH   2  12
ATOM     12  C   UNL     1      29.334  24.919  23.370  0.00  0.00    +0.000 C 
ATOM     13  C   UNL     1      29.458  24.315  21.974  0.00  0.00    +0.000 C 
ATOM     14  C   UNL     1      29.164  25.431  21.019  0.00  0.00    +0.000 C 
ATOM     15  C   UNL     1      29.299  26.727  21.771  0.00  0.00    +0.000 C 
ATOM     16  C   UNL     1      29.628  26.381  23.202  0.00  0.00    +0.000 C 
BRANCH  12  17
ATOM     17  C   UNL     1      27.938  24.715  23.804  0.00  0.00    +0.000 A 
ATOM     18  C   UNL     1      27.360  23.480  23.673  0.00  0.00    +0.000 A 
ATOM     19  C   UNL     1      26.078  23.209  24.050  0.00  0.00    +0.000 A 
ATOM     20  C   UNL     1      25.320  24.220  24.587  0.00  0.00    +0.000 A 
ATOM     21  C   UNL     1      25.877  25.463  24.727  0.00  0.00    +0.000 A 
ATOM     22  C   UNL     1      27.177  25.744  24.347  0.00  0.00    +0.000 A 
ENDBRANCH  12  17
ENDBRANCH   2  12
TORSDOF 3
ENDMDL
MODEL 8
REMARK VINA RESULT:      -6.2     19.356     22.502
REMARK  Name = 
REMARK  3 active torsions:
REMARK  status: ('A' for Active; 'I' for Inactive)
REMARK    1  A    between atoms: C_8  and  N_9
REMARK    2  A    between atoms: C_10  and  C_12
REMARK    3  A    between atoms: C_12  and  C_13
REMARK                            x       y       z     vdW  Elec       q    Type
REMARK                         _______ _______ _______ _____ _____    ______ ____
ROOT
ATOM      1  N   UNL     1      27.293  25.012  26.545  0.00  0.00    +0.000 NA
ATOM      2  C   UNL     1      26.729  24.425  25.408  0.00  0.00    +0.000 C 
ATOM      3  O   UNL     1      25.580  23.910  25.513  0.00  0.00    +0.000 OA
ENDROOT
BRANCH   1  11
ATOM      4  C   UNL     1      27.798  22.912  28.406  0.00  0.00    +0.000 C 
ATOM      5  C   UNL     1      26.941  24.086  28.723  0.00  0.00    +0.000 A 
ATOM      6  C   UNL     1      26.372  24.136  30.000  0.00  0.00    +0.000 A 
ATOM      7  C   UNL     1      25.574  25.200  30.341  0.00  0.00    +0.000 A 
ATOM      8  O   UNL     1      24.985  25.283  31.611  0.00  0.00    +0.000 OA
ATOM      9  C   UNL     1      25.321  26.216  29.459  0.00  0.00    +0.000 A 
ATOM     10  C   UNL     1      25.902  26.140  28.197  0.00  0.00    +0.000 A 
ATOM     11  C   UNL     1      26.704  25.092  27.821  0.00  0.00    +0.000 A 
ENDBRANCH   1  11
BRANCH   2  12
ATOM     12  C   UNL     1      27.480  24.415  24.107  0.00  0.00    +0.000 C 
ATOM     13  C   UNL     1      27.428  25.796  23.460  0.00  0.00    +0.000 C 
ATOM     14  C   UNL     1      27.424  25.554  21.981  0.00  0.00    +0.000 C 
ATOM     15  C   UNL     1      27.041  24.117  21.753  0.00  0.00    +0.000 C 
ATOM     16  C   UNL     1      26.863  23.481  23.108  0.00  0.00    +0.000 C 
BRANCH  12  17
ATOM     17  C   UNL     1      28.905  24.090  24.312  0.00  0.00    +0.000 A 
ATOM     18  C   UNL     1      29.282  22.789  24.520  0.00  0.00    +0.000 A 
ATOM     19  C   UNL     1      30.576  22.406  24.717  0.00  0.00    +0.000 A 
ATOM     20  C   UNL     1      31.557  23.366  24.708  0.00  0.00    +0.000 A 
ATOM     21  C   UNL     1      31.204  24.672  24.503  0.00  0.00    +0.000 A 
ATOM     22  C   UNL     1      29.894  25.068  24.302  0.00  0.00    +0.000 A 
ENDBRANCH  12  17
ENDBRANCH   2  12
TORSDOF 3
ENDMDL
MODEL 9
REMARK VINA RESULT:      -6.2     17.188     18.460
REMARK  Name = 
REMARK  3 active torsions:
REMARK  status: ('A' for Active; 'I' for Inactive)
REMARK    1  A    between atoms: C_8  and  N_9
REMARK    2  A    between atoms: C_10  and  C_12
REMARK    3  A    between atoms: C_12  and  C_13
REMARK                            x       y       z     vdW  Elec       q    Type
REMARK                         _______ _______ _______ _____ _____    ______ ____
ROOT
ATOM      1  N   UNL     1      34.542   5.603  36.239  0.00  0.00    +0.000 NA
ATOM      2  C   UNL     1      35.755   6.294  36.174  0.00  0.00    +0.000 C 
ATOM      3  O   UNL     1      36.639   5.872  35.375  0.00  0.00    +0.000 OA
ENDROOT
BRANCH   1  11
ATOM      4  C   UNL     1      34.604   3.065  37.537  0.00  0.00    +0.000 C 
ATOM      5  C   UNL     1      34.219   3.236  36.109  0.00  0.00    +0.000 A 
ATOM      6  C   UNL     1      33.876   2.081  35.398  0.00  0.00    +0.000 A 
ATOM      7  C   UNL     1      33.513   2.187  34.078  0.00  0.00    +0.000 A 
ATOM      8  O   UNL     1      33.164   1.052  33.332  0.00  0.00    +0.000 OA
ATOM      9  C   UNL     1      33.479   3.398  33.440  0.00  0.00    +0.000 A 
ATOM     10  C   UNL     1      33.824   4.529  34.174  0.00  0.00    +0.000 A 
ATOM     11  C   UNL     1      34.192   4.461  35.494  0.00  0.00    +0.000 A 
ENDBRANCH   1  11
BRANCH   2  12
ATOM     12  C   UNL     1      35.988   7.503  37.035  0.00  0.00    +0.000 C 
ATOM     13  C   UNL     1      37.465   7.609  37.403  0.00  0.00    +0.000 C 
ATOM     14  C   UNL     1      37.503   8.219  38.771  0.00  0.00    +0.000 C 
ATOM     15  C   UNL     1      36.133   8.072  39.376  0.00  0.00    +0.000 C 
ATOM     16  C   UNL     1      35.255   7.414  38.341  0.00  0.00    +0.000 C 
BRANCH  12  17
ATOM     17  C   UNL     1      35.632   8.746  36.323  0.00  0.00    +0.000 A 
ATOM     18  C   UNL     1      36.547   9.338  35.492  0.00  0.00    +0.000 A 
ATOM     19  C   UNL     1      36.297  10.485  34.798  0.00  0.00    +0.000 A 
ATOM     20  C   UNL     1      35.069  11.085  34.934  0.00  0.00    +0.000 A 
ATOM     21  C   UNL     1      34.140  10.511  35.759  0.00  0.00    +0.000 A 
ATOM     22  C   UNL     1      34.386   9.348  36.465  0.00  0.00    +0.000 A 
ENDBRANCH  12  17
ENDBRANCH   2  12
TORSDOF 3
ENDMDL
MODEL 10
REMARK VINA RESULT:      -6.2     20.188     23.013
REMARK  Name = 
REMARK  3 active torsions:
REMARK  status: ('A' for Active; 'I' for Inactive)
REMARK    1  A    between atoms: C_8  and  N_9
REMARK    2  A    between atoms: C_10  and  C_12
REMARK    3  A    between atoms: C_12  and  C_13
REMARK                            x       y       z     vdW  Elec       q    Type
REMARK                         _______ _______ _______ _____ _____    ______ ____
ROOT
ATOM      1  N   UNL     1      29.395  24.294  27.159  0.00  0.00    +0.000 NA
ATOM      2  C   UNL     1      30.238  23.616  26.274  0.00  0.00    +0.000 C 
ATOM      3  O   UNL     1      30.221  22.352  26.288  0.00  0.00    +0.000 OA
ENDROOT
BRANCH   1  11
ATOM      4  C   UNL     1      26.599  24.386  26.607  0.00  0.00    +0.000 C 
ATOM      5  C   UNL     1      27.164  23.747  27.827  0.00  0.00    +0.000 A 
ATOM      6  C   UNL     1      26.257  23.172  28.725  0.00  0.00    +0.000 A 
ATOM      7  C   UNL     1      26.730  22.570  29.865  0.00  0.00    +0.000 A 
ATOM      8  O   UNL     1      25.852  21.985  30.788  0.00  0.00    +0.000 OA
ATOM      9  C   UNL     1      28.068  22.518  30.145  0.00  0.00    +0.000 A 
ATOM     10  C   UNL     1      28.946  23.097  29.233  0.00  0.00    +0.000 A 
ATOM     11  C   UNL     1      28.510  23.708  28.084  0.00  0.00    +0.000 A 
ENDBRANCH   1  11
BRANCH   2  12
ATOM     12  C   UNL     1      31.132  24.379  25.340  0.00  0.00    +0.000 C 
ATOM     13  C   UNL     1      32.163  23.442  24.717  0.00  0.00    +0.000 C 
ATOM     14  C   UNL     1      33.397  24.268  24.515  0.00  0.00    +0.000 C 
ATOM     15  C   UNL     1      33.271  25.498  25.373  0.00  0.00    +0.000 C 
ATOM     16  C   UNL     1      31.928  25.431  26.056  0.00  0.00    +0.000 C 
BRANCH  12  17
ATOM     17  C   UNL     1      30.365  24.974  24.228  0.00  0.00    +0.000 A 
ATOM     18  C   UNL     1      29.831  24.163  23.262  0.00  0.00    +0.000 A 
ATOM     19  C   UNL     1      29.110  24.633  22.204  0.00  0.00    +0.000 A 
ATOM     20  C   UNL     1      28.905  25.986  22.093  0.00  0.00    +0.000 A 
ATOM     21  C   UNL     1      29.430  26.816  23.047  0.00  0.00    +0.000 A 
ATOM     22  C   UNL     1      30.162  26.346  24.123  0.00  0.00    +0.000 A 
ENDBRANCH  12  17
ENDBRANCH   2  12
TORSDOF 3
ENDMDL
