MODEL 1
REMARK VINA RESULT:      -6.1      0.000      0.000
REMARK  Name = 
REMARK  3 active torsions:
REMARK  status: ('A' for Active; 'I' for Inactive)
REMARK    1  A    between atoms: C_6  and  C_7
REMARK    2  A    between atoms: N_9  and  C_10
REMARK    3  A    between atoms: C_17  and  N_18
REMARK                            x       y       z     vdW  Elec       q    Type
REMARK                         _______ _______ _______ _____ _____    ______ ____
ROOT
ATOM      1  C   UNL     1      21.413  -7.120  24.965  0.00  0.00    +0.000 C 
ATOM      2  C   UNL     1      20.133  -6.743  25.617  0.00  0.00    +0.000 A 
ATOM      3  C   UNL     1      19.997  -5.449  26.056  0.00  0.00    +0.000 A 
ATOM      4  C   UNL     1      18.793  -5.092  26.668  0.00  0.00    +0.000 A 
ATOM      5  C   UNL     1      17.763  -6.003  26.837  0.00  0.00    +0.000 A 
ATOM      6  C   UNL     1      17.900  -7.309  26.396  0.00  0.00    +0.000 A 
ATOM      7  C   UNL     1      19.090  -7.648  25.793  0.00  0.00    +0.000 A 
ENDROOT
BRANCH   6   8
ATOM      8  C   UNL     1      16.812  -8.262  26.573  0.00  0.00    +0.000 C 
ATOM      9  O   UNL     1      16.821  -9.168  27.447  0.00  0.00    +0.000 OA
ATOM     10  N   UNL     1      15.675  -8.177  25.724  0.00  0.00    +0.000 NA
BRANCH  10  11
ATOM     11  C   UNL     1      14.573  -9.142  25.905  0.00  0.00    +0.000 C 
ATOM     12  C   UNL     1      14.541 -10.094  24.774  0.00  0.00    +0.000 C 
ATOM     13  C   UNL     1      13.143 -10.329  24.284  0.00  0.00    +0.000 C 
ATOM     14  C   UNL     1      12.499  -9.065  23.743  0.00  0.00    +0.000 C 
ATOM     15  C   UNL     1      11.388  -8.716  24.753  0.00  0.00    +0.000 C 
ATOM     16  C   UNL     1      12.046  -9.053  26.110  0.00  0.00    +0.000 C 
ATOM     17  C   UNL     1      13.351  -8.330  26.109  0.00  0.00    +0.000 C 
ENDBRANCH  10  11
ENDBRANCH   6   8
BRANCH   7  18
ATOM     18  N   UNL     1      19.244  -8.966  25.342  0.00  0.00    +0.000 N 
ATOM     19  O   UNL     1      18.875  -9.246  24.170  0.00  0.00    +0.000 OA
ATOM     20  O   UNL     1      19.770  -9.985  26.080  0.00  0.00    +0.000 OA
ENDBRANCH   7  18
TORSDOF 3
ENDMDL
MODEL 2
REMARK VINA RESULT:      -5.5     33.431     34.752
REMARK  Name = 
REMARK  3 active torsions:
REMARK  status: ('A' for Active; 'I' for Inactive)
REMARK    1  A    between atoms: C_6  and  C_7
REMARK    2  A    between atoms: N_9  and  C_10
REMARK    3  A    between atoms: C_17  and  N_18
REMARK                            x       y       z     vdW  Elec       q    Type
REMARK                         _______ _______ _______ _____ _____    ______ ____
ROOT
ATOM      1  C   UNL     1      24.342  26.551  30.965  0.00  0.00    +0.000 C 
ATOM      2  C   UNL     1      24.549  25.983  29.608  0.00  0.00    +0.000 A 
ATOM      3  C   UNL     1      23.709  26.400  28.606  0.00  0.00    +0.000 A 
ATOM      4  C   UNL     1      23.903  25.868  27.329  0.00  0.00    +0.000 A 
ATOM      5  C   UNL     1      24.904  24.946  27.068  0.00  0.00    +0.000 A 
ATOM      6  C   UNL     1      25.752  24.524  28.079  0.00  0.00    +0.000 A 
ATOM      7  C   UNL     1      25.551  25.057  29.333  0.00  0.00    +0.000 A 
ENDROOT
BRANCH   6   8
ATOM      8  C   UNL     1      26.805  23.558  27.798  0.00  0.00    +0.000 C 
ATOM      9  O   UNL     1      26.802  22.381  28.244  0.00  0.00    +0.000 OA
ATOM     10  N   UNL     1      27.900  23.948  26.980  0.00  0.00    +0.000 NA
BRANCH  10  11
ATOM     11  C   UNL     1      28.966  22.969  26.695  0.00  0.00    +0.000 C 
ATOM     12  C   UNL     1      30.108  23.180  27.609  0.00  0.00    +0.000 C 
ATOM     13  C   UNL     1      31.421  23.105  26.887  0.00  0.00    +0.000 C 
ATOM     14  C   UNL     1      31.564  24.188  25.832  0.00  0.00    +0.000 C 
ATOM     15  C   UNL     1      31.523  23.443  24.483  0.00  0.00    +0.000 C 
ATOM     16  C   UNL     1      30.447  22.360  24.728  0.00  0.00    +0.000 C 
ATOM     17  C   UNL     1      29.257  23.093  25.248  0.00  0.00    +0.000 C 
ENDBRANCH  10  11
ENDBRANCH   6   8
BRANCH   7  18
ATOM     18  N   UNL     1      26.400  24.639  30.366  0.00  0.00    +0.000 N 
ATOM     19  O   UNL     1      26.055  23.646  31.062  0.00  0.00    +0.000 OA
ATOM     20  O   UNL     1      27.589  25.228  30.683  0.00  0.00    +0.000 OA
ENDBRANCH   7  18
TORSDOF 3
ENDMDL
MODEL 3
REMARK VINA RESULT:      -5.4     20.976     23.217
REMARK  Name = 
REMARK  3 active torsions:
REMARK  status: ('A' for Active; 'I' for Inactive)
REMARK    1  A    between atoms: C_6  and  C_7
REMARK    2  A    between atoms: N_9  and  C_10
REMARK    3  A    between atoms: C_17  and  N_18
REMARK                            x       y       z     vdW  Elec       q    Type
REMARK                         _______ _______ _______ _____ _____    ______ ____
ROOT
ATOM      1  C   UNL     1      24.898  12.011  37.838  0.00  0.00    +0.000 C 
ATOM      2  C   UNL     1      23.586  12.537  38.295  0.00  0.00    +0.000 A 
ATOM      3  C   UNL     1      23.564  13.781  38.875  0.00  0.00    +0.000 A 
ATOM      4  C   UNL     1      22.331  14.277  39.304  0.00  0.00    +0.000 A 
ATOM      5  C   UNL     1      21.161  13.549  39.158  0.00  0.00    +0.000 A 
ATOM      6  C   UNL     1      21.183  12.293  38.573  0.00  0.00    +0.000 A 
ATOM      7  C   UNL     1      22.404  11.816  38.154  0.00  0.00    +0.000 A 
ENDROOT
BRANCH   6   8
ATOM      8  C   UNL     1      19.949  11.534  38.419  0.00  0.00    +0.000 C 
ATOM      9  O   UNL     1      19.519  10.729  39.286  0.00  0.00    +0.000 OA
ATOM     10  N   UNL     1      19.181  11.698  37.235  0.00  0.00    +0.000 NA
BRANCH  10  11
ATOM     11  C   UNL     1      17.931  10.929  37.079  0.00  0.00    +0.000 C 
ATOM     12  C   UNL     1      18.162   9.754  36.213  0.00  0.00    +0.000 C 
ATOM     13  C   UNL     1      17.055   9.570  35.216  0.00  0.00    +0.000 C 
ATOM     14  C   UNL     1      16.940  10.741  34.257  0.00  0.00    +0.000 C 
ATOM     15  C   UNL     1      15.612  11.433  34.625  0.00  0.00    +0.000 C 
ATOM     16  C   UNL     1      15.601  11.344  36.168  0.00  0.00    +0.000 C 
ATOM     17  C   UNL     1      16.913  11.897  36.608  0.00  0.00    +0.000 C 
ENDBRANCH  10  11
ENDBRANCH   6   8
BRANCH   7  18
ATOM     18  N   UNL     1      22.442  10.546  37.561  0.00  0.00    +0.000 N 
ATOM     19  O   UNL     1      22.612   9.542  38.303  0.00  0.00    +0.000 OA
ATOM     20  O   UNL     1      22.307  10.307  36.225  0.00  0.00    +0.000 OA
ENDBRANCH   7  18
TORSDOF 3
ENDMDL
MODEL 4
REMARK VINA RESULT:      -5.3     33.433     35.035
REMARK  Name = 
REMARK  3 active torsions:
REMARK  status: ('A' for Active; 'I' for Inactive)
REMARK    1  A    between atoms: C_6  and  C_7
REMARK    2  A    between atoms: N_9  and  C_10
REMARK    3  A    between atoms: C_17  and  N_18
REMARK                            x       y       z     vdW  Elec       q    Type
REMARK                         _______ _______ _______ _____ _____    ______ ____
ROOT
ATOM      1  C   UNL     1      24.101  26.799  29.469  0.00  0.00    +0.000 C 
ATOM      2  C   UNL     1      24.934  25.633  29.075  0.00  0.00    +0.000 A 
ATOM      3  C   UNL     1      25.476  24.868  30.077  0.00  0.00    +0.000 A 
ATOM      4  C   UNL     1      26.258  23.771  29.709  0.00  0.00    +0.000 A 
ATOM      5  C   UNL     1      26.490  23.455  28.379  0.00  0.00    +0.000 A 
ATOM      6  C   UNL     1      25.944  24.228  27.368  0.00  0.00    +0.000 A 
ATOM      7  C   UNL     1      25.175  25.305  27.744  0.00  0.00    +0.000 A 
ENDROOT
BRANCH   6   8
ATOM      8  C   UNL     1      26.189  23.889  25.972  0.00  0.00    +0.000 C 
ATOM      9  O   UNL     1      25.473  23.084  25.320  0.00  0.00    +0.000 OA
ATOM     10  N   UNL     1      27.286  24.489  25.297  0.00  0.00    +0.000 NA
BRANCH  10  11
ATOM     11  C   UNL     1      27.532  24.146  23.883  0.00  0.00    +0.000 C 
ATOM     12  C   UNL     1      28.934  23.711  23.703  0.00  0.00    +0.000 C 
ATOM     13  C   UNL     1      29.550  24.315  22.475  0.00  0.00    +0.000 C 
ATOM     14  C   UNL     1      29.622  25.830  22.549  0.00  0.00    +0.000 C 
ATOM     15  C   UNL     1      28.615  26.331  21.495  0.00  0.00    +0.000 C 
ATOM     16  C   UNL     1      27.444  25.334  21.644  0.00  0.00    +0.000 C 
ATOM     17  C   UNL     1      27.109  25.328  23.097  0.00  0.00    +0.000 C 
ENDBRANCH  10  11
ENDBRANCH   6   8
BRANCH   7  18
ATOM     18  N   UNL     1      24.616  26.097  26.731  0.00  0.00    +0.000 N 
ATOM     19  O   UNL     1      23.458  25.818  26.321  0.00  0.00    +0.000 OA
ATOM     20  O   UNL     1      25.235  27.162  26.145  0.00  0.00    +0.000 OA
ENDBRANCH   7  18
TORSDOF 3
ENDMDL
MODEL 5
REMARK VINA RESULT:      -5.2     14.600     17.640
REMARK  Name = 
REMARK  3 active torsions:
REMARK  status: ('A' for Active; 'I' for Inactive)
REMARK    1  A    between atoms: C_6  and  C_7
REMARK    2  A    between atoms: N_9  and  C_10
REMARK    3  A    between atoms: C_17  and  N_18
REMARK                            x       y       z     vdW  Elec       q    Type
REMARK                         _______ _______ _______ _____ _____    ______ ____
ROOT
ATOM      1  C   UNL     1      19.032   2.356  14.093  0.00  0.00    +0.000 C 
ATOM      2  C   UNL     1      19.818   2.258  15.350  0.00  0.00    +0.000 A 
ATOM      3  C   UNL     1      19.140   1.973  16.508  0.00  0.00    +0.000 A 
ATOM      4  C   UNL     1      19.878   1.880  17.690  0.00  0.00    +0.000 A 
ATOM      5  C   UNL     1      21.251   2.069  17.709  0.00  0.00    +0.000 A 
ATOM      6  C   UNL     1      21.936   2.358  16.540  0.00  0.00    +0.000 A 
ATOM      7  C   UNL     1      21.198   2.446  15.382  0.00  0.00    +0.000 A 
ENDROOT
BRANCH   6   8
ATOM      8  C   UNL     1      23.380   2.551  16.565  0.00  0.00    +0.000 C 
ATOM      9  O   UNL     1      24.206   1.633  16.318  0.00  0.00    +0.000 OA
ATOM     10  N   UNL     1      23.899   3.835  16.882  0.00  0.00    +0.000 NA
BRANCH  10  11
ATOM     11  C   UNL     1      25.362   4.031  16.907  0.00  0.00    +0.000 C 
ATOM     12  C   UNL     1      25.792   4.484  18.247  0.00  0.00    +0.000 C 
ATOM     13  C   UNL     1      26.793   5.598  18.164  0.00  0.00    +0.000 C 
ATOM     14  C   UNL     1      26.223   6.840  17.501  0.00  0.00    +0.000 C 
ATOM     15  C   UNL     1      26.962   6.951  16.153  0.00  0.00    +0.000 C 
ATOM     16  C   UNL     1      27.059   5.477  15.698  0.00  0.00    +0.000 C 
ATOM     17  C   UNL     1      25.670   4.943  15.780  0.00  0.00    +0.000 C 
ENDBRANCH  10  11
ENDBRANCH   6   8
BRANCH   7  18
ATOM     18  N   UNL     1      21.878   2.738  14.192  0.00  0.00    +0.000 N 
ATOM     19  O   UNL     1      22.030   3.946  13.869  0.00  0.00    +0.000 OA
ATOM     20  O   UNL     1      22.396   1.805  13.343  0.00  0.00    +0.000 OA
ENDBRANCH   7  18
TORSDOF 3
ENDMDL
MODEL 6
REMARK VINA RESULT:      -5.2     21.968     22.974
REMARK  Name = 
REMARK  3 active torsions:
REMARK  status: ('A' for Active; 'I' for Inactive)
REMARK    1  A    between atoms: C_6  and  C_7
REMARK    2  A    between atoms: N_9  and  C_10
REMARK    3  A    between atoms: C_17  and  N_18
REMARK                            x       y       z     vdW  Elec       q    Type
REMARK                         _______ _______ _______ _____ _____    ______ ____
ROOT
ATOM      1  C   UNL     1       9.506  13.484  11.084  0.00  0.00    +0.000 C 
ATOM      2  C   UNL     1       9.473  12.747  12.373  0.00  0.00    +0.000 A 
ATOM      3  C   UNL     1       9.522  13.482  13.531  0.00  0.00    +0.000 A 
ATOM      4  C   UNL     1       9.490  12.790  14.744  0.00  0.00    +0.000 A 
ATOM      5  C   UNL     1       9.414  11.407  14.793  0.00  0.00    +0.000 A 
ATOM      6  C   UNL     1       9.366  10.665  13.624  0.00  0.00    +0.000 A 
ATOM      7  C   UNL     1       9.398  11.358  12.436  0.00  0.00    +0.000 A 
ENDROOT
BRANCH   6   8
ATOM      8  C   UNL     1       9.283   9.211  13.681  0.00  0.00    +0.000 C 
ATOM      9  O   UNL     1       8.196   8.578  13.639  0.00  0.00    +0.000 OA
ATOM     10  N   UNL     1      10.481   8.454  13.789  0.00  0.00    +0.000 NA
BRANCH  10  11
ATOM     11  C   UNL     1      10.396   6.982  13.846  0.00  0.00    +0.000 C 
ATOM     12  C   UNL     1      11.162   6.473  15.003  0.00  0.00    +0.000 C 
ATOM     13  C   UNL     1      11.983   5.271  14.642  0.00  0.00    +0.000 C 
ATOM     14  C   UNL     1      13.033   5.582  13.591  0.00  0.00    +0.000 C 
ATOM     15  C   UNL     1      12.569   4.833  12.326  0.00  0.00    +0.000 C 
ATOM     16  C   UNL     1      11.037   5.029  12.360  0.00  0.00    +0.000 C 
ATOM     17  C   UNL     1      10.827   6.498  12.514  0.00  0.00    +0.000 C 
ENDBRANCH  10  11
ENDBRANCH   6   8
BRANCH   7  18
ATOM     18  N   UNL     1       9.351  10.620  11.245  0.00  0.00    +0.000 N 
ATOM     19  O   UNL     1       8.225  10.383  10.730  0.00  0.00    +0.000 OA
ATOM     20  O   UNL     1      10.442  10.131  10.588  0.00  0.00    +0.000 OA
ENDBRANCH   7  18
TORSDOF 3
ENDMDL
MODEL 7
REMARK VINA RESULT:      -5.1     33.063     34.693
REMARK  Name = 
REMARK  3 active torsions:
REMARK  status: ('A' for Active; 'I' for Inactive)
REMARK    1  A    between atoms: C_6  and  C_7
REMARK    2  A    between atoms: N_9  and  C_10
REMARK    3  A    between atoms: C_17  and  N_18
REMARK                            x       y       z     vdW  Elec       q    Type
REMARK                         _______ _______ _______ _____ _____    ______ ____
ROOT
ATOM      1  C   UNL     1      27.253  27.452  22.198  0.00  0.00    +0.000 C 
ATOM      2  C   UNL     1      27.548  26.034  22.529  0.00  0.00    +0.000 A 
ATOM      3  C   UNL     1      28.317  25.318  21.645  0.00  0.00    +0.000 A 
ATOM      4  C   UNL     1      28.596  23.986  21.954  0.00  0.00    +0.000 A 
ATOM      5  C   UNL     1      28.117  23.390  23.111  0.00  0.00    +0.000 A 
ATOM      6  C   UNL     1      27.340  24.111  24.002  0.00  0.00    +0.000 A 
ATOM      7  C   UNL     1      27.073  25.424  23.686  0.00  0.00    +0.000 A 
ENDROOT
BRANCH   6   8
ATOM      8  C   UNL     1      26.843  23.480  25.218  0.00  0.00    +0.000 C 
ATOM      9  O   UNL     1      25.857  22.697  25.238  0.00  0.00    +0.000 OA
ATOM     10  N   UNL     1      27.492  23.753  26.452  0.00  0.00    +0.000 NA
BRANCH  10  11
ATOM     11  C   UNL     1      26.988  23.114  27.683  0.00  0.00    +0.000 C 
ATOM     12  C   UNL     1      25.932  23.948  28.294  0.00  0.00    +0.000 C 
ATOM     13  C   UNL     1      26.096  24.056  29.781  0.00  0.00    +0.000 C 
ATOM     14  C   UNL     1      27.398  24.732  30.172  0.00  0.00    +0.000 C 
ATOM     15  C   UNL     1      28.252  23.620  30.814  0.00  0.00    +0.000 C 
ATOM     16  C   UNL     1      27.939  22.397  29.923  0.00  0.00    +0.000 C 
ATOM     17  C   UNL     1      28.180  22.852  28.523  0.00  0.00    +0.000 C 
ENDBRANCH  10  11
ENDBRANCH   6   8
BRANCH   7  18
ATOM     18  N   UNL     1      26.287  26.165  24.579  0.00  0.00    +0.000 N 
ATOM     19  O   UNL     1      26.868  26.901  25.421  0.00  0.00    +0.000 OA
ATOM     20  O   UNL     1      24.924  26.156  24.609  0.00  0.00    +0.000 OA
ENDBRANCH   7  18
TORSDOF 3
ENDMDL
MODEL 8
REMARK VINA RESULT:      -5.1     15.371     17.699
REMARK  Name = 
REMARK  3 active torsions:
REMARK  status: ('A' for Active; 'I' for Inactive)
REMARK    1  A    between atoms: C_6  and  C_7
REMARK    2  A    between atoms: N_9  and  C_10
REMARK    3  A    between atoms: C_17  and  N_18
REMARK                            x       y       z     vdW  Elec       q    Type
REMARK                         _______ _______ _______ _____ _____    ______ ____
ROOT
ATOM      1  C   UNL     1      23.745  -0.544  13.800  0.00  0.00    +0.000 C 
ATOM      2  C   UNL     1      24.527  -0.345  15.048  0.00  0.00    +0.000 A 
ATOM      3  C   UNL     1      25.309  -1.385  15.484  0.00  0.00    +0.000 A 
ATOM      4  C   UNL     1      26.044  -1.200  16.657  0.00  0.00    +0.000 A 
ATOM      5  C   UNL     1      25.995  -0.011  17.368  0.00  0.00    +0.000 A 
ATOM      6  C   UNL     1      25.205   1.038  16.929  0.00  0.00    +0.000 A 
ATOM      7  C   UNL     1      24.486   0.844  15.772  0.00  0.00    +0.000 A 
ENDROOT
BRANCH   6   8
ATOM      8  C   UNL     1      25.160   2.287  17.678  0.00  0.00    +0.000 C 
ATOM      9  O   UNL     1      24.364   2.493  18.631  0.00  0.00    +0.000 OA
ATOM     10  N   UNL     1      26.054   3.335  17.329  0.00  0.00    +0.000 NA
BRANCH  10  11
ATOM     11  C   UNL     1      26.009   4.599  18.090  0.00  0.00    +0.000 C 
ATOM     12  C   UNL     1      25.222   5.608  17.350  0.00  0.00    +0.000 C 
ATOM     13  C   UNL     1      25.887   6.953  17.364  0.00  0.00    +0.000 C 
ATOM     14  C   UNL     1      27.240   6.936  16.675  0.00  0.00    +0.000 C 
ATOM     15  C   UNL     1      28.269   7.141  17.804  0.00  0.00    +0.000 C 
ATOM     16  C   UNL     1      27.677   6.301  18.958  0.00  0.00    +0.000 C 
ATOM     17  C   UNL     1      27.419   4.952  18.377  0.00  0.00    +0.000 C 
ENDBRANCH  10  11
ENDBRANCH   6   8
BRANCH   7  18
ATOM     18  N   UNL     1      23.681   1.896  15.315  0.00  0.00    +0.000 N 
ATOM     19  O   UNL     1      22.491   1.963  15.723  0.00  0.00    +0.000 OA
ATOM     20  O   UNL     1      24.090   2.871  14.452  0.00  0.00    +0.000 OA
ENDBRANCH   7  18
TORSDOF 3
ENDMDL
MODEL 9
REMARK VINA RESULT:      -5.0     32.976     34.884
REMARK  Name = 
REMARK  3 active torsions:
REMARK  status: ('A' for Active; 'I' for Inactive)
REMARK    1  A    between atoms: C_6  and  C_7
REMARK    2  A    between atoms: N_9  and  C_10
REMARK    3  A    between atoms: C_17  and  N_18
REMARK                            x       y       z     vdW  Elec       q    Type
REMARK                         _______ _______ _______ _____ _____    ______ ____
ROOT
ATOM      1  C   UNL     1      34.197  25.226  24.676  0.00  0.00    +0.000 C 
ATOM      2  C   UNL     1      33.709  24.658  25.959  0.00  0.00    +0.000 A 
ATOM      3  C   UNL     1      34.539  24.738  27.050  0.00  0.00    +0.000 A 
ATOM      4  C   UNL     1      34.081  24.205  28.257  0.00  0.00    +0.000 A 
ATOM      5  C   UNL     1      32.834  23.611  28.366  0.00  0.00    +0.000 A 
ATOM      6  C   UNL     1      31.997  23.529  27.265  0.00  0.00    +0.000 A 
ATOM      7  C   UNL     1      32.459  24.058  26.082  0.00  0.00    +0.000 A 
ENDROOT
BRANCH   6   8
ATOM      8  C   UNL     1      30.685  22.906  27.386  0.00  0.00    +0.000 C 
ATOM      9  O   UNL     1      30.471  21.690  27.141  0.00  0.00    +0.000 OA
ATOM     10  N   UNL     1      29.580  23.698  27.800  0.00  0.00    +0.000 NA
BRANCH  10  11
ATOM     11  C   UNL     1      28.252  23.066  27.923  0.00  0.00    +0.000 C 
ATOM     12  C   UNL     1      27.262  23.800  27.107  0.00  0.00    +0.000 C 
ATOM     13  C   UNL     1      25.971  24.000  27.843  0.00  0.00    +0.000 C 
ATOM     14  C   UNL     1      26.142  24.843  29.094  0.00  0.00    +0.000 C 
ATOM     15  C   UNL     1      25.907  23.873  30.269  0.00  0.00    +0.000 C 
ATOM     16  C   UNL     1      26.595  22.578  29.781  0.00  0.00    +0.000 C 
ATOM     17  C   UNL     1      27.971  22.988  29.376  0.00  0.00    +0.000 C 
ENDBRANCH  10  11
ENDBRANCH   6   8
BRANCH   7  18
ATOM     18  N   UNL     1      31.623  23.982  24.959  0.00  0.00    +0.000 N 
ATOM     19  O   UNL     1      31.728  22.983  24.199  0.00  0.00    +0.000 OA
ATOM     20  O   UNL     1      30.689  24.917  24.619  0.00  0.00    +0.000 OA
ENDBRANCH   7  18
TORSDOF 3
ENDMDL
MODEL 10
REMARK VINA RESULT:      -5.0     14.155     17.320
REMARK  Name = 
REMARK  3 active torsions:
REMARK  status: ('A' for Active; 'I' for Inactive)
REMARK    1  A    between atoms: C_6  and  C_7
REMARK    2  A    between atoms: N_9  and  C_10
REMARK    3  A    between atoms: C_17  and  N_18
REMARK                            x       y       z     vdW  Elec       q    Type
REMARK                         _______ _______ _______ _____ _____    ______ ____
ROOT
ATOM      1  C   UNL     1      21.563  -0.461  15.047  0.00  0.00    +0.000 C 
ATOM      2  C   UNL     1      21.521   0.644  16.038  0.00  0.00    +0.000 A 
ATOM      3  C   UNL     1      20.294   1.024  16.521  0.00  0.00    +0.000 A 
ATOM      4  C   UNL     1      20.253   2.062  17.454  0.00  0.00    +0.000 A 
ATOM      5  C   UNL     1      21.406   2.699  17.886  0.00  0.00    +0.000 A 
ATOM      6  C   UNL     1      22.645   2.317  17.399  0.00  0.00    +0.000 A 
ATOM      7  C   UNL     1      22.671   1.292  16.481  0.00  0.00    +0.000 A 
ENDROOT
BRANCH   6   8
ATOM      8  C   UNL     1      23.853   2.988  17.860  0.00  0.00    +0.000 C 
ATOM      9  O   UNL     1      24.454   2.679  18.922  0.00  0.00    +0.000 OA
ATOM     10  N   UNL     1      24.395   4.047  17.082  0.00  0.00    +0.000 NA
BRANCH  10  11
ATOM     11  C   UNL     1      25.619   4.725  17.549  0.00  0.00    +0.000 C 
ATOM     12  C   UNL     1      25.410   6.188  17.578  0.00  0.00    +0.000 C 
ATOM     13  C   UNL     1      26.586   6.930  17.014  0.00  0.00    +0.000 C 
ATOM     14  C   UNL     1      26.829   6.603  15.551  0.00  0.00    +0.000 C 
ATOM     15  C   UNL     1      28.150   5.809  15.531  0.00  0.00    +0.000 C 
ATOM     16  C   UNL     1      28.032   4.924  16.792  0.00  0.00    +0.000 C 
ATOM     17  C   UNL     1      26.713   4.239  16.675  0.00  0.00    +0.000 C 
ENDBRANCH  10  11
ENDBRANCH   6   8
BRANCH   7  18
ATOM     18  N   UNL     1      23.918   0.895  15.978  0.00  0.00    +0.000 N 
ATOM     19  O   UNL     1      24.551  -0.007  16.589  0.00  0.00    +0.000 OA
ATOM     20  O   UNL     1      24.509   1.414  14.864  0.00  0.00    +0.000 OA
ENDBRANCH   7  18
TORSDOF 3
ENDMDL
