MODEL 1
REMARK VINA RESULT:      -8.2      0.000      0.000
REMARK  Name = 
REMARK  9 active torsions:
REMARK  status: ('A' for Active; 'I' for Inactive)
REMARK    1  A    between atoms: C_2  and  C_3
REMARK    2  A    between atoms: C_3  and  C_5
REMARK    3  A    between atoms: C_10  and  N_11
REMARK    4  A    between atoms: C_12  and  C_14
REMARK    5  A    between atoms: C_14  and  O_15
REMARK    6  A    between atoms: O_15  and  C_16
REMARK    7  A    between atoms: C_16  and  C_18
REMARK    8  A    between atoms: C_18  and  C_19
REMARK    9  A    between atoms: C_18  and  C_25
REMARK                            x       y       z     vdW  Elec       q    Type
REMARK                         _______ _______ _______ _____ _____    ______ ____
ROOT
ATOM      1  O   UNL     1      38.500   3.897  16.481  0.00  0.00    +0.000 OA
ENDROOT
BRANCH   1   2
ATOM      2  C   UNL     1      38.731   4.688  17.599  0.00  0.00    +0.000 C 
ATOM      3  O   UNL     1      38.628   4.133  18.724  0.00  0.00    +0.000 OA
BRANCH   2   4
ATOM      4  C   UNL     1      39.069   6.089  17.362  0.00  0.00    +0.000 C 
BRANCH   4   5
ATOM      5  C   UNL     1      40.490   6.276  17.003  0.00  0.00    +0.000 A 
ATOM      6  C   UNL     1      40.830   6.325  15.646  0.00  0.00    +0.000 A 
ATOM      7  C   UNL     1      42.152   6.498  15.338  0.00  0.00    +0.000 A 
ATOM      8  C   UNL     1      43.149   6.625  16.281  0.00  0.00    +0.000 A 
ATOM      9  C   UNL     1      42.799   6.575  17.615  0.00  0.00    +0.000 A 
ATOM     10  C   UNL     1      41.472   6.400  17.959  0.00  0.00    +0.000 A 
ENDBRANCH   4   5
BRANCH   4  11
ATOM     11  C   UNL     1      38.656   7.020  18.413  0.00  0.00    +0.000 A 
ATOM     12  C   UNL     1      39.272   7.055  19.649  0.00  0.00    +0.000 A 
ATOM     13  C   UNL     1      38.885   7.934  20.651  0.00  0.00    +0.000 A 
ATOM     14  C   UNL     1      37.850   8.813  20.430  0.00  0.00    +0.000 A 
ATOM     15  C   UNL     1      37.216   8.798  19.200  0.00  0.00    +0.000 A 
ATOM     16  C   UNL     1      37.619   7.922  18.235  0.00  0.00    +0.000 A 
ENDBRANCH   4  11
ENDBRANCH   2   4
ENDBRANCH   1   2
BRANCH   1  17
ATOM     17  C   UNL     1      37.384   4.003  15.652  0.00  0.00    +0.000 C 
BRANCH  17  19
ATOM     18  N   UNL     1      36.943   1.647  16.527  0.00  0.00    +0.000 NA
ATOM     19  C   UNL     1      36.666   2.681  15.602  0.00  0.00    +0.000 C 
ATOM     20  O   UNL     1      35.789   2.452  14.730  0.00  0.00    +0.000 OA
BRANCH  18  26
ATOM     21  C   UNL     1      36.807  -0.699  15.880  0.00  0.00    +0.000 A 
ATOM     22  C   UNL     1      36.156  -1.861  15.897  0.00  0.00    +0.000 A 
ATOM     23  C   UNL     1      34.959  -2.002  16.545  0.00  0.00    +0.000 A 
ATOM     24  C   UNL     1      34.426  -0.915  17.189  0.00  0.00    +0.000 A 
ATOM     25  C   UNL     1      35.062   0.315  17.202  0.00  0.00    +0.000 A 
ATOM     26  C   UNL     1      36.287   0.383  16.515  0.00  0.00    +0.000 A 
BRANCH  21  27
ATOM     27  C   UNL     1      38.173  -0.428  15.175  0.00  0.00    +0.000 C 
ATOM     28  C   UNL     1      37.922  -1.431  13.877  0.00  0.00    +0.000 C 
BRANCH  27  30
ATOM     29  C   UNL     1      39.817  -2.313  14.936  0.00  0.00    +0.000 C 
ATOM     30  C   UNL     1      39.038  -1.562  15.970  0.00  0.00    +0.000 C 
ENDBRANCH  27  30
ENDBRANCH  21  27
ENDBRANCH  18  26
ENDBRANCH  17  19
ENDBRANCH   1  17
TORSDOF 9
ENDMDL
MODEL 2
REMARK VINA RESULT:      -8.2      1.361      3.281
REMARK  Name = 
REMARK  9 active torsions:
REMARK  status: ('A' for Active; 'I' for Inactive)
REMARK    1  A    between atoms: C_2  and  C_3
REMARK    2  A    between atoms: C_3  and  C_5
REMARK    3  A    between atoms: C_10  and  N_11
REMARK    4  A    between atoms: C_12  and  C_14
REMARK    5  A    between atoms: C_14  and  O_15
REMARK    6  A    between atoms: O_15  and  C_16
REMARK    7  A    between atoms: C_16  and  C_18
REMARK    8  A    between atoms: C_18  and  C_19
REMARK    9  A    between atoms: C_18  and  C_25
REMARK                            x       y       z     vdW  Elec       q    Type
REMARK                         _______ _______ _______ _____ _____    ______ ____
ROOT
ATOM      1  O   UNL     1      37.670   3.900  17.642  0.00  0.00    +0.000 OA
ENDROOT
BRANCH   1   2
ATOM      2  C   UNL     1      38.712   4.784  17.390  0.00  0.00    +0.000 C 
ATOM      3  O   UNL     1      39.394   4.585  16.352  0.00  0.00    +0.000 OA
BRANCH   2   4
ATOM      4  C   UNL     1      38.916   5.862  18.356  0.00  0.00    +0.000 C 
BRANCH   4   5
ATOM      5  C   UNL     1      38.181   7.092  17.996  0.00  0.00    +0.000 A 
ATOM      6  C   UNL     1      37.726   7.919  19.028  0.00  0.00    +0.000 A 
ATOM      7  C   UNL     1      37.047   9.052  18.670  0.00  0.00    +0.000 A 
ATOM      8  C   UNL     1      36.795   9.414  17.365  0.00  0.00    +0.000 A 
ATOM      9  C   UNL     1      37.250   8.588  16.356  0.00  0.00    +0.000 A 
ATOM     10  C   UNL     1      37.938   7.437  16.686  0.00  0.00    +0.000 A 
ENDBRANCH   4   5
BRANCH   4  11
ATOM     11  C   UNL     1      40.311   6.149  18.688  0.00  0.00    +0.000 A 
ATOM     12  C   UNL     1      41.261   6.407  17.719  0.00  0.00    +0.000 A 
ATOM     13  C   UNL     1      42.587   6.680  18.027  0.00  0.00    +0.000 A 
ATOM     14  C   UNL     1      42.996   6.698  19.341  0.00  0.00    +0.000 A 
ATOM     15  C   UNL     1      42.064   6.444  20.331  0.00  0.00    +0.000 A 
ATOM     16  C   UNL     1      40.768   6.179  19.997  0.00  0.00    +0.000 A 
ENDBRANCH   4  11
ENDBRANCH   2   4
ENDBRANCH   1   2
BRANCH   1  17
ATOM     17  C   UNL     1      36.773   3.439  16.679  0.00  0.00    +0.000 C 
BRANCH  17  19
ATOM     18  N   UNL     1      35.859   1.173  15.942  0.00  0.00    +0.000 NA
ATOM     19  C   UNL     1      36.476   1.984  16.924  0.00  0.00    +0.000 C 
ATOM     20  O   UNL     1      36.771   1.437  18.017  0.00  0.00    +0.000 OA
BRANCH  18  26
ATOM     21  C   UNL     1      36.250  -1.191  15.500  0.00  0.00    +0.000 A 
ATOM     22  C   UNL     1      35.936  -2.469  15.711  0.00  0.00    +0.000 A 
ATOM     23  C   UNL     1      34.923  -2.825  16.559  0.00  0.00    +0.000 A 
ATOM     24  C   UNL     1      34.222  -1.838  17.203  0.00  0.00    +0.000 A 
ATOM     25  C   UNL     1      34.509  -0.496  17.019  0.00  0.00    +0.000 A 
ATOM     26  C   UNL     1      35.562  -0.206  16.133  0.00  0.00    +0.000 A 
BRANCH  21  27
ATOM     27  C   UNL     1      37.382  -0.674  14.557  0.00  0.00    +0.000 C 
ATOM     28  C   UNL     1      37.601  -2.092  13.724  0.00  0.00    +0.000 C 
BRANCH  27  30
ATOM     29  C   UNL     1      39.529  -1.950  14.834  0.00  0.00    +0.000 C 
ATOM     30  C   UNL     1      38.635  -0.990  15.556  0.00  0.00    +0.000 C 
ENDBRANCH  27  30
ENDBRANCH  21  27
ENDBRANCH  18  26
ENDBRANCH  17  19
ENDBRANCH   1  17
TORSDOF 9
ENDMDL
MODEL 3
REMARK VINA RESULT:      -8.1      2.329      4.227
REMARK  Name = 
REMARK  9 active torsions:
REMARK  status: ('A' for Active; 'I' for Inactive)
REMARK    1  A    between atoms: C_2  and  C_3
REMARK    2  A    between atoms: C_3  and  C_5
REMARK    3  A    between atoms: C_10  and  N_11
REMARK    4  A    between atoms: C_12  and  C_14
REMARK    5  A    between atoms: C_14  and  O_15
REMARK    6  A    between atoms: O_15  and  C_16
REMARK    7  A    between atoms: C_16  and  C_18
REMARK    8  A    between atoms: C_18  and  C_19
REMARK    9  A    between atoms: C_18  and  C_25
REMARK                            x       y       z     vdW  Elec       q    Type
REMARK                         _______ _______ _______ _____ _____    ______ ____
ROOT
ATOM      1  O   UNL     1      36.252   1.875  15.317  0.00  0.00    +0.000 OA
ENDROOT
BRANCH   1   2
ATOM      2  C   UNL     1      36.336   3.227  15.008  0.00  0.00    +0.000 C 
ATOM      3  O   UNL     1      35.262   3.882  15.008  0.00  0.00    +0.000 OA
BRANCH   2   4
ATOM      4  C   UNL     1      37.665   3.758  14.713  0.00  0.00    +0.000 C 
BRANCH   4   5
ATOM      5  C   UNL     1      38.532   2.773  14.035  0.00  0.00    +0.000 A 
ATOM      6  C   UNL     1      38.424   2.638  12.646  0.00  0.00    +0.000 A 
ATOM      7  C   UNL     1      39.237   1.718  12.041  0.00  0.00    +0.000 A 
ATOM      8  C   UNL     1      40.142   0.932  12.720  0.00  0.00    +0.000 A 
ATOM      9  C   UNL     1      40.238   1.075  14.089  0.00  0.00    +0.000 A 
ATOM     10  C   UNL     1      39.430   1.995  14.729  0.00  0.00    +0.000 A 
ENDBRANCH   4   5
BRANCH   4  11
ATOM     11  C   UNL     1      38.352   4.390  15.840  0.00  0.00    +0.000 A 
ATOM     12  C   UNL     1      39.420   5.246  15.664  0.00  0.00    +0.000 A 
ATOM     13  C   UNL     1      40.077   5.849  16.728  0.00  0.00    +0.000 A 
ATOM     14  C   UNL     1      39.668   5.596  18.018  0.00  0.00    +0.000 A 
ATOM     15  C   UNL     1      38.599   4.741  18.221  0.00  0.00    +0.000 A 
ATOM     16  C   UNL     1      37.974   4.165  17.154  0.00  0.00    +0.000 A 
ENDBRANCH   4  11
ENDBRANCH   2   4
ENDBRANCH   1   2
BRANCH   1  17
ATOM     17  C   UNL     1      35.226   1.295  16.062  0.00  0.00    +0.000 C 
BRANCH  17  19
ATOM     18  N   UNL     1      37.085  -0.078  17.144  0.00  0.00    +0.000 NA
ATOM     19  C   UNL     1      35.736   0.051  16.738  0.00  0.00    +0.000 C 
ATOM     20  O   UNL     1      34.972  -0.922  16.967  0.00  0.00    +0.000 OA
BRANCH  18  26
ATOM     21  C   UNL     1      38.360  -2.155  17.127  0.00  0.00    +0.000 A 
ATOM     22  C   UNL     1      38.827  -3.223  17.771  0.00  0.00    +0.000 A 
ATOM     23  C   UNL     1      38.567  -3.430  19.098  0.00  0.00    +0.000 A 
ATOM     24  C   UNL     1      37.807  -2.509  19.772  0.00  0.00    +0.000 A 
ATOM     25  C   UNL     1      37.298  -1.381  19.150  0.00  0.00    +0.000 A 
ATOM     26  C   UNL     1      37.607  -1.237  17.786  0.00  0.00    +0.000 A 
BRANCH  21  27
ATOM     27  C   UNL     1      38.596  -1.823  15.620  0.00  0.00    +0.000 C 
ATOM     28  C   UNL     1      37.759  -3.116  15.004  0.00  0.00    +0.000 C 
BRANCH  27  30
ATOM     29  C   UNL     1      40.343  -2.629  14.003  0.00  0.00    +0.000 C 
ATOM     30  C   UNL     1      40.029  -2.592  15.467  0.00  0.00    +0.000 C 
ENDBRANCH  27  30
ENDBRANCH  21  27
ENDBRANCH  18  26
ENDBRANCH  17  19
ENDBRANCH   1  17
TORSDOF 9
ENDMDL
MODEL 4
REMARK VINA RESULT:      -8.0      1.925      8.160
REMARK  Name = 
REMARK  9 active torsions:
REMARK  status: ('A' for Active; 'I' for Inactive)
REMARK    1  A    between atoms: C_2  and  C_3
REMARK    2  A    between atoms: C_3  and  C_5
REMARK    3  A    between atoms: C_10  and  N_11
REMARK    4  A    between atoms: C_12  and  C_14
REMARK    5  A    between atoms: C_14  and  O_15
REMARK    6  A    between atoms: O_15  and  C_16
REMARK    7  A    between atoms: C_16  and  C_18
REMARK    8  A    between atoms: C_18  and  C_19
REMARK    9  A    between atoms: C_18  and  C_25
REMARK                            x       y       z     vdW  Elec       q    Type
REMARK                         _______ _______ _______ _____ _____    ______ ____
ROOT
ATOM      1  O   UNL     1      36.083   1.208  17.246  0.00  0.00    +0.000 OA
ENDROOT
BRANCH   1   2
ATOM      2  C   UNL     1      36.176  -0.057  16.678  0.00  0.00    +0.000 C 
ATOM      3  O   UNL     1      35.098  -0.674  16.474  0.00  0.00    +0.000 OA
BRANCH   2   4
ATOM      4  C   UNL     1      37.517  -0.549  16.371  0.00  0.00    +0.000 C 
BRANCH   4   5
ATOM      5  C   UNL     1      37.980  -0.137  15.031  0.00  0.00    +0.000 A 
ATOM      6  C   UNL     1      37.018   0.178  14.065  0.00  0.00    +0.000 A 
ATOM      7  C   UNL     1      37.471   0.556  12.829  0.00  0.00    +0.000 A 
ATOM      8  C   UNL     1      38.805   0.643  12.496  0.00  0.00    +0.000 A 
ATOM      9  C   UNL     1      39.743   0.329  13.459  0.00  0.00    +0.000 A 
ATOM     10  C   UNL     1      39.317  -0.057  14.715  0.00  0.00    +0.000 A 
ENDBRANCH   4   5
BRANCH   4  11
ATOM     11  C   UNL     1      37.725  -1.980  16.593  0.00  0.00    +0.000 A 
ATOM     12  C   UNL     1      37.276  -2.936  15.702  0.00  0.00    +0.000 A 
ATOM     13  C   UNL     1      37.468  -4.295  15.906  0.00  0.00    +0.000 A 
ATOM     14  C   UNL     1      38.127  -4.733  17.032  0.00  0.00    +0.000 A 
ATOM     15  C   UNL     1      38.587  -3.796  17.940  0.00  0.00    +0.000 A 
ATOM     16  C   UNL     1      38.383  -2.467  17.712  0.00  0.00    +0.000 A 
ENDBRANCH   4  11
ENDBRANCH   2   4
ENDBRANCH   1   2
BRANCH   1  17
ATOM     17  C   UNL     1      35.437   2.294  16.657  0.00  0.00    +0.000 C 
BRANCH  17  19
ATOM     18  N   UNL     1      37.805   3.237  16.530  0.00  0.00    +0.000 NA
ATOM     19  C   UNL     1      36.461   3.241  16.090  0.00  0.00    +0.000 C 
ATOM     20  O   UNL     1      36.152   4.072  15.198  0.00  0.00    +0.000 OA
BRANCH  18  26
ATOM     21  C   UNL     1      39.280   5.167  16.736  0.00  0.00    +0.000 A 
ATOM     22  C   UNL     1      40.215   5.960  16.216  0.00  0.00    +0.000 A 
ATOM     23  C   UNL     1      40.720   5.746  14.962  0.00  0.00    +0.000 A 
ATOM     24  C   UNL     1      40.246   4.687  14.233  0.00  0.00    +0.000 A 
ATOM     25  C   UNL     1      39.274   3.832  14.726  0.00  0.00    +0.000 A 
ATOM     26  C   UNL     1      38.804   4.115  16.021  0.00  0.00    +0.000 A 
BRANCH  21  27
ATOM     27  C   UNL     1      38.637   5.319  18.150  0.00  0.00    +0.000 C 
ATOM     28  C   UNL     1      38.165   6.900  17.978  0.00  0.00    +0.000 C 
BRANCH  27  30
ATOM     29  C   UNL     1      39.626   6.853  19.877  0.00  0.00    +0.000 C 
ATOM     30  C   UNL     1      39.999   5.742  18.945  0.00  0.00    +0.000 C 
ENDBRANCH  27  30
ENDBRANCH  21  27
ENDBRANCH  18  26
ENDBRANCH  17  19
ENDBRANCH   1  17
TORSDOF 9
ENDMDL
MODEL 5
REMARK VINA RESULT:      -8.0      4.667      8.796
REMARK  Name = 
REMARK  9 active torsions:
REMARK  status: ('A' for Active; 'I' for Inactive)
REMARK    1  A    between atoms: C_2  and  C_3
REMARK    2  A    between atoms: C_3  and  C_5
REMARK    3  A    between atoms: C_10  and  N_11
REMARK    4  A    between atoms: C_12  and  C_14
REMARK    5  A    between atoms: C_14  and  O_15
REMARK    6  A    between atoms: O_15  and  C_16
REMARK    7  A    between atoms: C_16  and  C_18
REMARK    8  A    between atoms: C_18  and  C_19
REMARK    9  A    between atoms: C_18  and  C_25
REMARK                            x       y       z     vdW  Elec       q    Type
REMARK                         _______ _______ _______ _____ _____    ______ ____
ROOT
ATOM      1  O   UNL     1      36.995  -0.569  17.836  0.00  0.00    +0.000 OA
ENDROOT
BRANCH   1   2
ATOM      2  C   UNL     1      36.980  -1.908  17.464  0.00  0.00    +0.000 C 
ATOM      3  O   UNL     1      37.155  -2.757  18.375  0.00  0.00    +0.000 OA
BRANCH   2   4
ATOM      4  C   UNL     1      36.763  -2.200  16.048  0.00  0.00    +0.000 C 
BRANCH   4   5
ATOM      5  C   UNL     1      35.936  -3.406  15.840  0.00  0.00    +0.000 A 
ATOM      6  C   UNL     1      36.502  -4.655  16.117  0.00  0.00    +0.000 A 
ATOM      7  C   UNL     1      35.716  -5.758  15.915  0.00  0.00    +0.000 A 
ATOM      8  C   UNL     1      34.417  -5.700  15.460  0.00  0.00    +0.000 A 
ATOM      9  C   UNL     1      33.871  -4.461  15.190  0.00  0.00    +0.000 A 
ATOM     10  C   UNL     1      34.639  -3.329  15.384  0.00  0.00    +0.000 A 
ENDBRANCH   4   5
BRANCH   4  11
ATOM     11  C   UNL     1      37.970  -2.229  15.223  0.00  0.00    +0.000 A 
ATOM     12  C   UNL     1      37.948  -2.625  13.900  0.00  0.00    +0.000 A 
ATOM     13  C   UNL     1      39.089  -2.656  13.110  0.00  0.00    +0.000 A 
ATOM     14  C   UNL     1      40.302  -2.284  13.644  0.00  0.00    +0.000 A 
ATOM     15  C   UNL     1      40.352  -1.884  14.967  0.00  0.00    +0.000 A 
ATOM     16  C   UNL     1      39.213  -1.864  15.718  0.00  0.00    +0.000 A 
ENDBRANCH   4  11
ENDBRANCH   2   4
ENDBRANCH   1   2
BRANCH   1  17
ATOM     17  C   UNL     1      35.887   0.277  17.793  0.00  0.00    +0.000 C 
BRANCH  17  19
ATOM     18  N   UNL     1      35.715   1.449  15.532  0.00  0.00    +0.000 NA
ATOM     19  C   UNL     1      36.172   1.432  16.871  0.00  0.00    +0.000 C 
ATOM     20  O   UNL     1      36.830   2.429  17.266  0.00  0.00    +0.000 OA
BRANCH  18  26
ATOM     21  C   UNL     1      36.900   2.444  13.649  0.00  0.00    +0.000 A 
ATOM     22  C   UNL     1      37.095   3.474  12.827  0.00  0.00    +0.000 A 
ATOM     23  C   UNL     1      36.370   4.628  12.942  0.00  0.00    +0.000 A 
ATOM     24  C   UNL     1      35.421   4.717  13.927  0.00  0.00    +0.000 A 
ATOM     25  C   UNL     1      35.179   3.675  14.807  0.00  0.00    +0.000 A 
ATOM     26  C   UNL     1      35.963   2.522  14.629  0.00  0.00    +0.000 A 
BRANCH  21  27
ATOM     27  C   UNL     1      37.669   1.086  13.609  0.00  0.00    +0.000 C 
ATOM     28  C   UNL     1      39.104   1.694  13.040  0.00  0.00    +0.000 C 
BRANCH  27  30
ATOM     29  C   UNL     1      38.438   0.414  11.313  0.00  0.00    +0.000 C 
ATOM     30  C   UNL     1      37.192   0.630  12.115  0.00  0.00    +0.000 C 
ENDBRANCH  27  30
ENDBRANCH  21  27
ENDBRANCH  18  26
ENDBRANCH  17  19
ENDBRANCH   1  17
TORSDOF 9
ENDMDL
MODEL 6
REMARK VINA RESULT:      -8.0      4.250      5.450
REMARK  Name = 
REMARK  9 active torsions:
REMARK  status: ('A' for Active; 'I' for Inactive)
REMARK    1  A    between atoms: C_2  and  C_3
REMARK    2  A    between atoms: C_3  and  C_5
REMARK    3  A    between atoms: C_10  and  N_11
REMARK    4  A    between atoms: C_12  and  C_14
REMARK    5  A    between atoms: C_14  and  O_15
REMARK    6  A    between atoms: O_15  and  C_16
REMARK    7  A    between atoms: C_16  and  C_18
REMARK    8  A    between atoms: C_18  and  C_19
REMARK    9  A    between atoms: C_18  and  C_25
REMARK                            x       y       z     vdW  Elec       q    Type
REMARK                         _______ _______ _______ _____ _____    ______ ____
ROOT
ATOM      1  O   UNL     1      36.154   1.690  17.259  0.00  0.00    +0.000 OA
ENDROOT
BRANCH   1   2
ATOM      2  C   UNL     1      36.724   2.611  16.389  0.00  0.00    +0.000 C 
ATOM      3  O   UNL     1      37.464   3.495  16.893  0.00  0.00    +0.000 OA
BRANCH   2   4
ATOM      4  C   UNL     1      36.409   2.464  14.969  0.00  0.00    +0.000 C 
BRANCH   4   5
ATOM      5  C   UNL     1      37.260   1.460  14.300  0.00  0.00    +0.000 A 
ATOM      6  C   UNL     1      36.725   0.749  13.221  0.00  0.00    +0.000 A 
ATOM      7  C   UNL     1      37.533  -0.177  12.618  0.00  0.00    +0.000 A 
ATOM      8  C   UNL     1      38.827  -0.438  13.014  0.00  0.00    +0.000 A 
ATOM      9  C   UNL     1      39.342   0.271  14.080  0.00  0.00    +0.000 A 
ATOM     10  C   UNL     1      38.551   1.212  14.710  0.00  0.00    +0.000 A 
ENDBRANCH   4   5
BRANCH   4  11
ATOM     11  C   UNL     1      36.354   3.713  14.208  0.00  0.00    +0.000 A 
ATOM     12  C   UNL     1      37.403   4.141  13.420  0.00  0.00    +0.000 A 
ATOM     13  C   UNL     1      37.359   5.324  12.695  0.00  0.00    +0.000 A 
ATOM     14  C   UNL     1      36.237   6.119  12.750  0.00  0.00    +0.000 A 
ATOM     15  C   UNL     1      35.171   5.713  13.533  0.00  0.00    +0.000 A 
ATOM     16  C   UNL     1      35.245   4.545  14.233  0.00  0.00    +0.000 A 
ENDBRANCH   4  11
ENDBRANCH   2   4
ENDBRANCH   1   2
BRANCH   1  17
ATOM     17  C   UNL     1      34.911   1.088  17.072  0.00  0.00    +0.000 C 
BRANCH  17  19
ATOM     18  N   UNL     1      35.744  -1.089  16.033  0.00  0.00    +0.000 NA
ATOM     19  C   UNL     1      35.071  -0.409  17.075  0.00  0.00    +0.000 C 
ATOM     20  O   UNL     1      34.609  -1.109  18.013  0.00  0.00    +0.000 OA
BRANCH  18  26
ATOM     21  C   UNL     1      37.084  -3.099  16.354  0.00  0.00    +0.000 A 
ATOM     22  C   UNL     1      37.198  -4.426  16.306  0.00  0.00    +0.000 A 
ATOM     23  C   UNL     1      36.160  -5.219  15.899  0.00  0.00    +0.000 A 
ATOM     24  C   UNL     1      34.979  -4.626  15.537  0.00  0.00    +0.000 A 
ATOM     25  C   UNL     1      34.807  -3.252  15.570  0.00  0.00    +0.000 A 
ATOM     26  C   UNL     1      35.917  -2.502  15.998  0.00  0.00    +0.000 A 
BRANCH  21  27
ATOM     27  C   UNL     1      38.200  -2.103  16.800  0.00  0.00    +0.000 C 
ATOM     28  C   UNL     1      39.465  -2.892  16.072  0.00  0.00    +0.000 C 
BRANCH  27  30
ATOM     29  C   UNL     1      37.756  -2.006  19.271  0.00  0.00    +0.000 C 
ATOM     30  C   UNL     1      38.516  -2.790  18.247  0.00  0.00    +0.000 C 
ENDBRANCH  27  30
ENDBRANCH  21  27
ENDBRANCH  18  26
ENDBRANCH  17  19
ENDBRANCH   1  17
TORSDOF 9
ENDMDL
MODEL 7
REMARK VINA RESULT:      -8.0      2.298      4.946
REMARK  Name = 
REMARK  9 active torsions:
REMARK  status: ('A' for Active; 'I' for Inactive)
REMARK    1  A    between atoms: C_2  and  C_3
REMARK    2  A    between atoms: C_3  and  C_5
REMARK    3  A    between atoms: C_10  and  N_11
REMARK    4  A    between atoms: C_12  and  C_14
REMARK    5  A    between atoms: C_14  and  O_15
REMARK    6  A    between atoms: O_15  and  C_16
REMARK    7  A    between atoms: C_16  and  C_18
REMARK    8  A    between atoms: C_18  and  C_19
REMARK    9  A    between atoms: C_18  and  C_25
REMARK                            x       y       z     vdW  Elec       q    Type
REMARK                         _______ _______ _______ _____ _____    ______ ____
ROOT
ATOM      1  O   UNL     1      35.627   2.331  15.359  0.00  0.00    +0.000 OA
ENDROOT
BRANCH   1   2
ATOM      2  C   UNL     1      36.546   3.363  15.220  0.00  0.00    +0.000 C 
ATOM      3  O   UNL     1      36.094   4.492  14.893  0.00  0.00    +0.000 OA
BRANCH   2   4
ATOM      4  C   UNL     1      37.950   3.040  15.465  0.00  0.00    +0.000 C 
BRANCH   4   5
ATOM      5  C   UNL     1      38.674   4.136  16.140  0.00  0.00    +0.000 A 
ATOM      6  C   UNL     1      38.420   4.362  17.497  0.00  0.00    +0.000 A 
ATOM      7  C   UNL     1      39.103   5.384  18.101  0.00  0.00    +0.000 A 
ATOM      8  C   UNL     1      40.014   6.186  17.449  0.00  0.00    +0.000 A 
ATOM      9  C   UNL     1      40.254   5.952  16.110  0.00  0.00    +0.000 A 
ATOM     10  C   UNL     1      39.580   4.929  15.473  0.00  0.00    +0.000 A 
ENDBRANCH   4   5
BRANCH   4  11
ATOM     11  C   UNL     1      38.690   2.543  14.305  0.00  0.00    +0.000 A 
ATOM     12  C   UNL     1      38.298   2.817  13.010  0.00  0.00    +0.000 A 
ATOM     13  C   UNL     1      38.995   2.348  11.904  0.00  0.00    +0.000 A 
ATOM     14  C   UNL     1      40.122   1.578  12.080  0.00  0.00    +0.000 A 
ATOM     15  C   UNL     1      40.536   1.290  13.368  0.00  0.00    +0.000 A 
ATOM     16  C   UNL     1      39.830   1.764  14.434  0.00  0.00    +0.000 A 
ENDBRANCH   4  11
ENDBRANCH   2   4
ENDBRANCH   1   2
BRANCH   1  17
ATOM     17  C   UNL     1      35.035   1.955  16.565  0.00  0.00    +0.000 C 
BRANCH  17  19
ATOM     18  N   UNL     1      36.092  -0.331  16.982  0.00  0.00    +0.000 NA
ATOM     19  C   UNL     1      35.963   1.038  17.316  0.00  0.00    +0.000 C 
ATOM     20  O   UNL     1      36.661   1.464  18.272  0.00  0.00    +0.000 OA
BRANCH  18  26
ATOM     21  C   UNL     1      38.001  -1.845  17.051  0.00  0.00    +0.000 A 
ATOM     22  C   UNL     1      38.784  -2.678  17.733  0.00  0.00    +0.000 A 
ATOM     23  C   UNL     1      38.566  -2.941  19.058  0.00  0.00    +0.000 A 
ATOM     24  C   UNL     1      37.516  -2.326  19.689  0.00  0.00    +0.000 A 
ATOM     25  C   UNL     1      36.672  -1.451  19.025  0.00  0.00    +0.000 A 
ATOM     26  C   UNL     1      36.957  -1.230  17.667  0.00  0.00    +0.000 A 
BRANCH  21  27
ATOM     27  C   UNL     1      38.158  -1.475  15.542  0.00  0.00    +0.000 C 
ATOM     28  C   UNL     1      37.782  -2.973  14.936  0.00  0.00    +0.000 C 
BRANCH  27  30
ATOM     29  C   UNL     1      39.999  -2.372  14.086  0.00  0.00    +0.000 C 
ATOM     30  C   UNL     1      39.762  -1.759  15.432  0.00  0.00    +0.000 C 
ENDBRANCH  27  30
ENDBRANCH  21  27
ENDBRANCH  18  26
ENDBRANCH  17  19
ENDBRANCH   1  17
TORSDOF 9
ENDMDL
MODEL 8
REMARK VINA RESULT:      -8.0      2.019      4.055
REMARK  Name = 
REMARK  9 active torsions:
REMARK  status: ('A' for Active; 'I' for Inactive)
REMARK    1  A    between atoms: C_2  and  C_3
REMARK    2  A    between atoms: C_3  and  C_5
REMARK    3  A    between atoms: C_10  and  N_11
REMARK    4  A    between atoms: C_12  and  C_14
REMARK    5  A    between atoms: C_14  and  O_15
REMARK    6  A    between atoms: O_15  and  C_16
REMARK    7  A    between atoms: C_16  and  C_18
REMARK    8  A    between atoms: C_18  and  C_19
REMARK    9  A    between atoms: C_18  and  C_25
REMARK                            x       y       z     vdW  Elec       q    Type
REMARK                         _______ _______ _______ _____ _____    ______ ____
ROOT
ATOM      1  O   UNL     1      39.102   2.424  15.264  0.00  0.00    +0.000 OA
ENDROOT
BRANCH   1   2
ATOM      2  C   UNL     1      39.151   3.797  15.052  0.00  0.00    +0.000 C 
ATOM      3  O   UNL     1      39.788   4.199  14.044  0.00  0.00    +0.000 OA
BRANCH   2   4
ATOM      4  C   UNL     1      38.458   4.642  16.022  0.00  0.00    +0.000 C 
BRANCH   4   5
ATOM      5  C   UNL     1      37.548   5.612  15.380  0.00  0.00    +0.000 A 
ATOM      6  C   UNL     1      36.510   5.120  14.581  0.00  0.00    +0.000 A 
ATOM      7  C   UNL     1      35.680   6.038  13.995  0.00  0.00    +0.000 A 
ATOM      8  C   UNL     1      35.814   7.401  14.153  0.00  0.00    +0.000 A 
ATOM      9  C   UNL     1      36.842   7.872  14.943  0.00  0.00    +0.000 A 
ATOM     10  C   UNL     1      37.696   6.971  15.547  0.00  0.00    +0.000 A 
ENDBRANCH   4   5
BRANCH   4  11
ATOM     11  C   UNL     1      39.316   5.289  17.015  0.00  0.00    +0.000 A 
ATOM     12  C   UNL     1      40.524   5.867  16.679  0.00  0.00    +0.000 A 
ATOM     13  C   UNL     1      41.344   6.482  17.616  0.00  0.00    +0.000 A 
ATOM     14  C   UNL     1      40.960   6.529  18.937  0.00  0.00    +0.000 A 
ATOM     15  C   UNL     1      39.753   5.958  19.299  0.00  0.00    +0.000 A 
ATOM     16  C   UNL     1      38.970   5.360  18.356  0.00  0.00    +0.000 A 
ENDBRANCH   4  11
ENDBRANCH   2   4
ENDBRANCH   1   2
BRANCH   1  17
ATOM     17  C   UNL     1      39.082   1.467  14.250  0.00  0.00    +0.000 C 
BRANCH  17  19
ATOM     18  N   UNL     1      37.887  -0.476  15.394  0.00  0.00    +0.000 NA
ATOM     19  C   UNL     1      37.892   0.564  14.435  0.00  0.00    +0.000 C 
ATOM     20  O   UNL     1      36.856   0.706  13.736  0.00  0.00    +0.000 OA
BRANCH  18  26
ATOM     21  C   UNL     1      35.881  -1.160  16.598  0.00  0.00    +0.000 A 
ATOM     22  C   UNL     1      34.864  -2.006  16.751  0.00  0.00    +0.000 A 
ATOM     23  C   UNL     1      34.697  -3.082  15.922  0.00  0.00    +0.000 A 
ATOM     24  C   UNL     1      35.603  -3.284  14.913  0.00  0.00    +0.000 A 
ATOM     25  C   UNL     1      36.677  -2.434  14.711  0.00  0.00    +0.000 A 
ATOM     26  C   UNL     1      36.783  -1.351  15.601  0.00  0.00    +0.000 A 
BRANCH  21  27
ATOM     27  C   UNL     1      36.165   0.095  17.482  0.00  0.00    +0.000 C 
ATOM     28  C   UNL     1      35.489  -0.496  18.877  0.00  0.00    +0.000 C 
BRANCH  27  30
ATOM     29  C   UNL     1      35.256   2.213  16.482  0.00  0.00    +0.000 C 
ATOM     30  C   UNL     1      34.811   0.923  17.097  0.00  0.00    +0.000 C 
ENDBRANCH  27  30
ENDBRANCH  21  27
ENDBRANCH  18  26
ENDBRANCH  17  19
ENDBRANCH   1  17
TORSDOF 9
ENDMDL
MODEL 9
REMARK VINA RESULT:      -7.9      1.564      8.154
REMARK  Name = 
REMARK  9 active torsions:
REMARK  status: ('A' for Active; 'I' for Inactive)
REMARK    1  A    between atoms: C_2  and  C_3
REMARK    2  A    between atoms: C_3  and  C_5
REMARK    3  A    between atoms: C_10  and  N_11
REMARK    4  A    between atoms: C_12  and  C_14
REMARK    5  A    between atoms: C_14  and  O_15
REMARK    6  A    between atoms: O_15  and  C_16
REMARK    7  A    between atoms: C_16  and  C_18
REMARK    8  A    between atoms: C_18  and  C_19
REMARK    9  A    between atoms: C_18  and  C_25
REMARK                            x       y       z     vdW  Elec       q    Type
REMARK                         _______ _______ _______ _____ _____    ______ ____
ROOT
ATOM      1  O   UNL     1      35.520   1.989  15.237  0.00  0.00    +0.000 OA
ENDROOT
BRANCH   1   2
ATOM      2  C   UNL     1      36.429   1.140  14.617  0.00  0.00    +0.000 C 
ATOM      3  O   UNL     1      36.625   1.311  13.386  0.00  0.00    +0.000 OA
BRANCH   2   4
ATOM      4  C   UNL     1      37.069   0.129  15.455  0.00  0.00    +0.000 C 
BRANCH   4   5
ATOM      5  C   UNL     1      38.472  -0.122  15.068  0.00  0.00    +0.000 A 
ATOM      6  C   UNL     1      39.212   0.937  14.530  0.00  0.00    +0.000 A 
ATOM      7  C   UNL     1      40.510   0.680  14.178  0.00  0.00    +0.000 A 
ATOM      8  C   UNL     1      41.114  -0.550  14.327  0.00  0.00    +0.000 A 
ATOM      9  C   UNL     1      40.373  -1.585  14.858  0.00  0.00    +0.000 A 
ATOM     10  C   UNL     1      39.060  -1.357  15.223  0.00  0.00    +0.000 A 
ENDBRANCH   4   5
BRANCH   4  11
ATOM     11  C   UNL     1      36.324  -1.121  15.608  0.00  0.00    +0.000 A 
ATOM     12  C   UNL     1      36.350  -2.115  14.650  0.00  0.00    +0.000 A 
ATOM     13  C   UNL     1      35.645  -3.304  14.788  0.00  0.00    +0.000 A 
ATOM     14  C   UNL     1      34.883  -3.522  15.913  0.00  0.00    +0.000 A 
ATOM     15  C   UNL     1      34.840  -2.541  16.888  0.00  0.00    +0.000 A 
ATOM     16  C   UNL     1      35.544  -1.384  16.723  0.00  0.00    +0.000 A 
ENDBRANCH   4  11
ENDBRANCH   2   4
ENDBRANCH   1   2
BRANCH   1  17
ATOM     17  C   UNL     1      35.812   2.794  16.337  0.00  0.00    +0.000 C 
BRANCH  17  19
ATOM     18  N   UNL     1      38.171   3.742  16.564  0.00  0.00    +0.000 NA
ATOM     19  C   UNL     1      36.887   3.780  15.968  0.00  0.00    +0.000 C 
ATOM     20  O   UNL     1      36.679   4.676  15.111  0.00  0.00    +0.000 OA
BRANCH  18  26
ATOM     21  C   UNL     1      39.694   5.554  17.141  0.00  0.00    +0.000 A 
ATOM     22  C   UNL     1      40.674   6.388  16.795  0.00  0.00    +0.000 A 
ATOM     23  C   UNL     1      41.221   6.368  15.541  0.00  0.00    +0.000 A 
ATOM     24  C   UNL     1      40.744   5.464  14.627  0.00  0.00    +0.000 A 
ATOM     25  C   UNL     1      39.728   4.575  14.936  0.00  0.00    +0.000 A 
ATOM     26  C   UNL     1      39.215   4.655  16.243  0.00  0.00    +0.000 A 
BRANCH  21  27
ATOM     27  C   UNL     1      39.001   5.491  18.538  0.00  0.00    +0.000 C 
ATOM     28  C   UNL     1      38.221   6.952  18.432  0.00  0.00    +0.000 C 
BRANCH  27  30
ATOM     29  C   UNL     1      39.641   7.225  20.241  0.00  0.00    +0.000 C 
ATOM     30  C   UNL     1      40.230   6.134  19.401  0.00  0.00    +0.000 C 
ENDBRANCH  27  30
ENDBRANCH  21  27
ENDBRANCH  18  26
ENDBRANCH  17  19
ENDBRANCH   1  17
TORSDOF 9
ENDMDL
MODEL 10
REMARK VINA RESULT:      -7.9      2.316      4.596
REMARK  Name = 
REMARK  9 active torsions:
REMARK  status: ('A' for Active; 'I' for Inactive)
REMARK    1  A    between atoms: C_2  and  C_3
REMARK    2  A    between atoms: C_3  and  C_5
REMARK    3  A    between atoms: C_10  and  N_11
REMARK    4  A    between atoms: C_12  and  C_14
REMARK    5  A    between atoms: C_14  and  O_15
REMARK    6  A    between atoms: O_15  and  C_16
REMARK    7  A    between atoms: C_16  and  C_18
REMARK    8  A    between atoms: C_18  and  C_19
REMARK    9  A    between atoms: C_18  and  C_25
REMARK                            x       y       z     vdW  Elec       q    Type
REMARK                         _______ _______ _______ _____ _____    ______ ____
ROOT
ATOM      1  O   UNL     1      39.323   1.832  14.986  0.00  0.00    +0.000 OA
ENDROOT
BRANCH   1   2
ATOM      2  C   UNL     1      39.283   3.080  14.376  0.00  0.00    +0.000 C 
ATOM      3  O   UNL     1      40.013   3.246  13.365  0.00  0.00    +0.000 OA
BRANCH   2   4
ATOM      4  C   UNL     1      38.395   4.079  14.966  0.00  0.00    +0.000 C 
BRANCH   4   5
ATOM      5  C   UNL     1      38.985   4.728  16.155  0.00  0.00    +0.000 A 
ATOM      6  C   UNL     1      40.095   5.560  15.975  0.00  0.00    +0.000 A 
ATOM      7  C   UNL     1      40.625   6.150  17.091  0.00  0.00    +0.000 A 
ATOM      8  C   UNL     1      40.125   5.969  18.362  0.00  0.00    +0.000 A 
ATOM      9  C   UNL     1      39.029   5.146  18.526  0.00  0.00    +0.000 A 
ATOM     10  C   UNL     1      38.473   4.536  17.418  0.00  0.00    +0.000 A 
ENDBRANCH   4   5
BRANCH   4  11
ATOM     11  C   UNL     1      37.028   3.628  15.226  0.00  0.00    +0.000 A 
ATOM     12  C   UNL     1      36.753   2.523  16.007  0.00  0.00    +0.000 A 
ATOM     13  C   UNL     1      35.459   2.088  16.257  0.00  0.00    +0.000 A 
ATOM     14  C   UNL     1      34.391   2.766  15.715  0.00  0.00    +0.000 A 
ATOM     15  C   UNL     1      34.640   3.877  14.927  0.00  0.00    +0.000 A 
ATOM     16  C   UNL     1      35.923   4.279  14.700  0.00  0.00    +0.000 A 
ENDBRANCH   4  11
ENDBRANCH   2   4
ENDBRANCH   1   2
BRANCH   1  17
ATOM     17  C   UNL     1      40.173   0.793  14.609  0.00  0.00    +0.000 C 
BRANCH  17  19
ATOM     18  N   UNL     1      38.100  -0.664  14.918  0.00  0.00    +0.000 NA
ATOM     19  C   UNL     1      39.508  -0.528  14.891  0.00  0.00    +0.000 C 
ATOM     20  O   UNL     1      40.189  -1.562  15.113  0.00  0.00    +0.000 OA
BRANCH  18  26
ATOM     21  C   UNL     1      36.945  -2.207  16.410  0.00  0.00    +0.000 A 
ATOM     22  C   UNL     1      36.326  -3.370  16.607  0.00  0.00    +0.000 A 
ATOM     23  C   UNL     1      36.165  -4.276  15.594  0.00  0.00    +0.000 A 
ATOM     24  C   UNL     1      36.654  -3.969  14.350  0.00  0.00    +0.000 A 
ATOM     25  C   UNL     1      37.304  -2.773  14.092  0.00  0.00    +0.000 A 
ATOM     26  C   UNL     1      37.432  -1.893  15.181  0.00  0.00    +0.000 A 
BRANCH  21  27
ATOM     27  C   UNL     1      37.183  -1.105  17.490  0.00  0.00    +0.000 C 
ATOM     28  C   UNL     1      37.777  -2.114  18.666  0.00  0.00    +0.000 C 
BRANCH  27  30
ATOM     29  C   UNL     1      35.672  -0.117  19.238  0.00  0.00    +0.000 C 
ATOM     30  C   UNL     1      35.682  -1.128  18.134  0.00  0.00    +0.000 C 
ENDBRANCH  27  30
ENDBRANCH  21  27
ENDBRANCH  18  26
ENDBRANCH  17  19
ENDBRANCH   1  17
TORSDOF 9
ENDMDL
