MODEL 1
REMARK VINA RESULT:      -6.7      0.000      0.000
REMARK  Name = 
REMARK  2 active torsions:
REMARK  status: ('A' for Active; 'I' for Inactive)
REMARK    1  A    between atoms: O_2  and  C_3
REMARK    2  A    between atoms: C_8  and  C_9
REMARK                            x       y       z     vdW  Elec       q    Type
REMARK                         _______ _______ _______ _____ _____    ______ ____
ROOT
ATOM      1  C   UNL     1      26.196  23.321  25.590  0.00  0.00    +0.000 C 
ATOM      2  C   UNL     1      25.665  24.166  24.311  0.00  0.00    +0.000 C 
ATOM      3  C   UNL     1      25.910  23.229  23.192  0.00  0.00    +0.000 C 
ATOM      4  O   UNL     1      24.997  22.630  22.649  0.00  0.00    +0.000 OA
ATOM      5  N   UNL     1      27.302  23.153  22.883  0.00  0.00    +0.000 NA
ATOM      6  C   UNL     1      28.163  23.223  24.056  0.00  0.00    +0.000 A 
ATOM      7  C   UNL     1      29.528  23.196  23.751  0.00  0.00    +0.000 A 
ATOM      8  C   UNL     1      30.417  23.298  24.803  0.00  0.00    +0.000 A 
ATOM      9  C   UNL     1      31.887  23.272  24.513  0.00  0.00    +0.000 C 
ATOM     10  C   UNL     1      29.963  23.423  26.099  0.00  0.00    +0.000 A 
ATOM     11  C   UNL     1      30.951  23.528  27.176  0.00  0.00    +0.000 C 
ATOM     12  C   UNL     1      28.567  23.444  26.349  0.00  0.00    +0.000 A 
ATOM     13  C   UNL     1      27.697  23.342  25.308  0.00  0.00    +0.000 A 
ENDROOT
BRANCH   1  19
ATOM     14  C   UNL     1      26.038  24.311  27.968  0.00  0.00    +0.000 A 
ATOM     15  C   UNL     1      25.958  25.417  28.816  0.00  0.00    +0.000 A 
ATOM     16  C   UNL     1      25.951  26.643  28.246  0.00  0.00    +0.000 A 
ATOM     17  C   UNL     1      26.016  26.857  26.905  0.00  0.00    +0.000 A 
ATOM     18  C   UNL     1      26.096  25.721  26.083  0.00  0.00    +0.000 A 
ATOM     19  C   UNL     1      26.104  24.477  26.658  0.00  0.00    +0.000 A 
BRANCH  14  21
ATOM     20  C   UNL     1      26.428  22.852  29.801  0.00  0.00    +0.000 C 
ATOM     21  O   UNL     1      26.053  22.994  28.445  0.00  0.00    +0.000 OA
ENDBRANCH  14  21
ENDBRANCH   1  19
TORSDOF 2
ENDMDL
MODEL 2
REMARK VINA RESULT:      -6.6     32.164     33.366
REMARK  Name = 
REMARK  2 active torsions:
REMARK  status: ('A' for Active; 'I' for Inactive)
REMARK    1  A    between atoms: O_2  and  C_3
REMARK    2  A    between atoms: C_8  and  C_9
REMARK                            x       y       z     vdW  Elec       q    Type
REMARK                         _______ _______ _______ _____ _____    ______ ____
ROOT
ATOM      1  C   UNL     1      17.811  -7.227  26.165  0.00  0.00    +0.000 C 
ATOM      2  C   UNL     1      18.188  -6.192  27.357  0.00  0.00    +0.000 C 
ATOM      3  C   UNL     1      18.749  -5.045  26.609  0.00  0.00    +0.000 C 
ATOM      4  O   UNL     1      18.127  -4.006  26.469  0.00  0.00    +0.000 OA
ATOM      5  N   UNL     1      20.055  -5.346  26.115  0.00  0.00    +0.000 NA
ATOM      6  C   UNL     1      20.206  -6.726  25.672  0.00  0.00    +0.000 A 
ATOM      7  C   UNL     1      21.497  -7.035  25.231  0.00  0.00    +0.000 A 
ATOM      8  C   UNL     1      21.738  -8.335  24.830  0.00  0.00    +0.000 A 
ATOM      9  C   UNL     1      23.110  -8.701  24.351  0.00  0.00    +0.000 C 
ATOM     10  C   UNL     1      20.736  -9.281  24.869  0.00  0.00    +0.000 A 
ATOM     11  C   UNL     1      21.049 -10.644  24.433  0.00  0.00    +0.000 C 
ATOM     12  C   UNL     1      19.446  -8.911  25.326  0.00  0.00    +0.000 A 
ATOM     13  C   UNL     1      19.215  -7.629  25.718  0.00  0.00    +0.000 A 
ENDROOT
BRANCH   1  19
ATOM     14  C   UNL     1      16.541  -9.385  26.791  0.00  0.00    +0.000 A 
ATOM     15  C   UNL     1      16.309 -10.440  27.676  0.00  0.00    +0.000 A 
ATOM     16  C   UNL     1      17.041 -10.476  28.812  0.00  0.00    +0.000 A 
ATOM     17  C   UNL     1      17.984  -9.552  29.137  0.00  0.00    +0.000 A 
ATOM     18  C   UNL     1      18.190  -8.505  28.223  0.00  0.00    +0.000 A 
ATOM     19  C   UNL     1      17.449  -8.466  27.071  0.00  0.00    +0.000 A 
BRANCH  14  21
ATOM     20  C   UNL     1      14.513  -8.780  25.714  0.00  0.00    +0.000 C 
ATOM     21  O   UNL     1      15.843  -9.244  25.585  0.00  0.00    +0.000 OA
ENDBRANCH  14  21
ENDBRANCH   1  19
TORSDOF 2
ENDMDL
MODEL 3
REMARK VINA RESULT:      -6.3      2.377      5.863
REMARK  Name = 
REMARK  2 active torsions:
REMARK  status: ('A' for Active; 'I' for Inactive)
REMARK    1  A    between atoms: O_2  and  C_3
REMARK    2  A    between atoms: C_8  and  C_9
REMARK                            x       y       z     vdW  Elec       q    Type
REMARK                         _______ _______ _______ _____ _____    ______ ____
ROOT
ATOM      1  C   UNL     1      26.786  22.706  28.170  0.00  0.00    +0.000 C 
ATOM      2  C   UNL     1      27.436  22.090  29.524  0.00  0.00    +0.000 C 
ATOM      3  C   UNL     1      26.342  22.270  30.505  0.00  0.00    +0.000 C 
ATOM      4  O   UNL     1      25.673  21.329  30.896  0.00  0.00    +0.000 OA
ATOM      5  N   UNL     1      26.217  23.641  30.886  0.00  0.00    +0.000 NA
ATOM      6  C   UNL     1      26.456  24.574  29.793  0.00  0.00    +0.000 A 
ATOM      7  C   UNL     1      26.380  25.917  30.176  0.00  0.00    +0.000 A 
ATOM      8  C   UNL     1      26.633  26.869  29.207  0.00  0.00    +0.000 A 
ATOM      9  C   UNL     1      26.559  28.318  29.582  0.00  0.00    +0.000 C 
ATOM     10  C   UNL     1      26.949  26.496  27.918  0.00  0.00    +0.000 A 
ATOM     11  C   UNL     1      27.208  27.549  26.932  0.00  0.00    +0.000 C 
ATOM     12  C   UNL     1      27.012  25.119  27.587  0.00  0.00    +0.000 A 
ATOM     13  C   UNL     1      26.760  24.186  28.545  0.00  0.00    +0.000 A 
ENDROOT
BRANCH   1  19
ATOM     14  C   UNL     1      28.116  22.647  25.958  0.00  0.00    +0.000 A 
ATOM     15  C   UNL     1      29.335  22.619  25.280  0.00  0.00    +0.000 A 
ATOM     16  C   UNL     1      30.465  22.620  26.023  0.00  0.00    +0.000 A 
ATOM     17  C   UNL     1      30.480  22.647  27.382  0.00  0.00    +0.000 A 
ATOM     18  C   UNL     1      29.234  22.675  28.031  0.00  0.00    +0.000 A 
ATOM     19  C   UNL     1      28.087  22.674  27.280  0.00  0.00    +0.000 A 
BRANCH  14  21
ATOM     20  C   UNL     1      26.851  23.391  24.092  0.00  0.00    +0.000 C 
ATOM     21  O   UNL     1      26.882  22.648  25.295  0.00  0.00    +0.000 OA
ENDBRANCH  14  21
ENDBRANCH   1  19
TORSDOF 2
ENDMDL
MODEL 4
REMARK VINA RESULT:      -6.3     32.674     33.898
REMARK  Name = 
REMARK  2 active torsions:
REMARK  status: ('A' for Active; 'I' for Inactive)
REMARK    1  A    between atoms: O_2  and  C_3
REMARK    2  A    between atoms: C_8  and  C_9
REMARK                            x       y       z     vdW  Elec       q    Type
REMARK                         _______ _______ _______ _____ _____    ______ ____
ROOT
ATOM      1  C   UNL     1      18.508  -8.940  26.659  0.00  0.00    +0.000 C 
ATOM      2  C   UNL     1      18.169  -7.914  27.869  0.00  0.00    +0.000 C 
ATOM      3  C   UNL     1      17.685  -6.720  27.141  0.00  0.00    +0.000 C 
ATOM      4  O   UNL     1      16.503  -6.423  27.115  0.00  0.00    +0.000 OA
ATOM      5  N   UNL     1      18.767  -6.026  26.519  0.00  0.00    +0.000 NA
ATOM      6  C   UNL     1      19.796  -6.910  25.987  0.00  0.00    +0.000 A 
ATOM      7  C   UNL     1      20.878  -6.230  25.419  0.00  0.00    +0.000 A 
ATOM      8  C   UNL     1      21.920  -6.993  24.925  0.00  0.00    +0.000 A 
ATOM      9  C   UNL     1      23.095  -6.298  24.309  0.00  0.00    +0.000 C 
ATOM     10  C   UNL     1      21.881  -8.369  24.998  0.00  0.00    +0.000 A 
ATOM     11  C   UNL     1      23.013  -9.127  24.460  0.00  0.00    +0.000 C 
ATOM     12  C   UNL     1      20.757  -9.004  25.586  0.00  0.00    +0.000 A 
ATOM     13  C   UNL     1      19.735  -8.247  26.068  0.00  0.00    +0.000 A 
ENDROOT
BRANCH   1  19
ATOM     14  C   UNL     1      19.208 -11.351  27.259  0.00  0.00    +0.000 A 
ATOM     15  C   UNL     1      19.872 -12.245  28.101  0.00  0.00    +0.000 A 
ATOM     16  C   UNL     1      20.510 -11.733  29.178  0.00  0.00    +0.000 A 
ATOM     17  C   UNL     1      20.541 -10.409  29.484  0.00  0.00    +0.000 A 
ATOM     18  C   UNL     1      19.862  -9.539  28.613  0.00  0.00    +0.000 A 
ATOM     19  C   UNL     1      19.215 -10.055  27.521  0.00  0.00    +0.000 A 
BRANCH  14  21
ATOM     20  C   UNL     1      19.297 -12.438  25.149  0.00  0.00    +0.000 C 
ATOM     21  O   UNL     1      18.513 -11.765  26.115  0.00  0.00    +0.000 OA
ENDBRANCH  14  21
ENDBRANCH   1  19
TORSDOF 2
ENDMDL
MODEL 5
REMARK VINA RESULT:      -6.1     33.009     34.428
REMARK  Name = 
REMARK  2 active torsions:
REMARK  status: ('A' for Active; 'I' for Inactive)
REMARK    1  A    between atoms: O_2  and  C_3
REMARK    2  A    between atoms: C_8  and  C_9
REMARK                            x       y       z     vdW  Elec       q    Type
REMARK                         _______ _______ _______ _____ _____    ______ ____
ROOT
ATOM      1  C   UNL     1      18.852  -9.285  27.285  0.00  0.00    +0.000 C 
ATOM      2  C   UNL     1      18.580  -9.002  28.860  0.00  0.00    +0.000 C 
ATOM      3  C   UNL     1      18.172 -10.337  29.351  0.00  0.00    +0.000 C 
ATOM      4  O   UNL     1      18.916 -11.023  30.030  0.00  0.00    +0.000 OA
ATOM      5  N   UNL     1      16.848 -10.658  28.922  0.00  0.00    +0.000 NA
ATOM      6  C   UNL     1      16.542 -10.185  27.578  0.00  0.00    +0.000 A 
ATOM      7  C   UNL     1      15.231 -10.458  27.174  0.00  0.00    +0.000 A 
ATOM      8  C   UNL     1      14.843 -10.008  25.926  0.00  0.00    +0.000 A 
ATOM      9  C   UNL     1      13.446 -10.283  25.461  0.00  0.00    +0.000 C 
ATOM     10  C   UNL     1      15.725  -9.317  25.122  0.00  0.00    +0.000 A 
ATOM     11  C   UNL     1      15.259  -8.863  23.809  0.00  0.00    +0.000 C 
ATOM     12  C   UNL     1      17.042  -9.070  25.584  0.00  0.00    +0.000 A 
ATOM     13  C   UNL     1      17.418  -9.516  26.813  0.00  0.00    +0.000 A 
ENDROOT
BRANCH   1  19
ATOM     14  C   UNL     1      19.969  -7.350  25.993  0.00  0.00    +0.000 A 
ATOM     15  C   UNL     1      20.044  -5.994  25.669  0.00  0.00    +0.000 A 
ATOM     16  C   UNL     1      19.148  -5.163  26.247  0.00  0.00    +0.000 A 
ATOM     17  C   UNL     1      18.185  -5.571  27.117  0.00  0.00    +0.000 A 
ATOM     18  C   UNL     1      18.140  -6.942  27.418  0.00  0.00    +0.000 A 
ATOM     19  C   UNL     1      19.048  -7.787  26.834  0.00  0.00    +0.000 A 
BRANCH  14  21
ATOM     20  C   UNL     1      22.017  -7.775  24.868  0.00  0.00    +0.000 C 
ATOM     21  O   UNL     1      20.845  -8.304  25.457  0.00  0.00    +0.000 OA
ENDBRANCH  14  21
ENDBRANCH   1  19
TORSDOF 2
ENDMDL
MODEL 6
REMARK VINA RESULT:      -6.1     14.247     17.204
REMARK  Name = 
REMARK  2 active torsions:
REMARK  status: ('A' for Active; 'I' for Inactive)
REMARK    1  A    between atoms: O_2  and  C_3
REMARK    2  A    between atoms: C_8  and  C_9
REMARK                            x       y       z     vdW  Elec       q    Type
REMARK                         _______ _______ _______ _____ _____    ______ ____
ROOT
ATOM      1  C   UNL     1      31.055  22.361  10.354  0.00  0.00    +0.000 C 
ATOM      2  C   UNL     1      29.789  21.562  10.981  0.00  0.00    +0.000 C 
ATOM      3  C   UNL     1      29.861  21.933  12.412  0.00  0.00    +0.000 C 
ATOM      4  O   UNL     1      29.077  22.723  12.908  0.00  0.00    +0.000 OA
ATOM      5  N   UNL     1      30.935  21.252  13.063  0.00  0.00    +0.000 NA
ATOM      6  C   UNL     1      32.119  21.098  12.227  0.00  0.00    +0.000 A 
ATOM      7  C   UNL     1      33.154  20.391  12.848  0.00  0.00    +0.000 A 
ATOM      8  C   UNL     1      34.300  20.165  12.110  0.00  0.00    +0.000 A 
ATOM      9  C   UNL     1      35.430  19.411  12.743  0.00  0.00    +0.000 C 
ATOM     10  C   UNL     1      34.405  20.623  10.814  0.00  0.00    +0.000 A 
ATOM     11  C   UNL     1      35.644  20.353  10.078  0.00  0.00    +0.000 C 
ATOM     12  C   UNL     1      33.323  21.334  10.236  0.00  0.00    +0.000 A 
ATOM     13  C   UNL     1      32.198  21.555  10.968  0.00  0.00    +0.000 A 
ENDROOT
BRANCH   1  19
ATOM     14  C   UNL     1      31.580  22.226   7.831  0.00  0.00    +0.000 A 
ATOM     15  C   UNL     1      31.474  21.565   6.606  0.00  0.00    +0.000 A 
ATOM     16  C   UNL     1      30.777  20.407   6.579  0.00  0.00    +0.000 A 
ATOM     17  C   UNL     1      30.180  19.854   7.668  0.00  0.00    +0.000 A 
ATOM     18  C   UNL     1      30.309  20.546   8.884  0.00  0.00    +0.000 A 
ATOM     19  C   UNL     1      31.014  21.721   8.914  0.00  0.00    +0.000 A 
BRANCH  14  21
ATOM     20  C   UNL     1      33.555  23.465   7.378  0.00  0.00    +0.000 C 
ATOM     21  O   UNL     1      32.276  23.433   7.980  0.00  0.00    +0.000 OA
ENDBRANCH  14  21
ENDBRANCH   1  19
TORSDOF 2
ENDMDL
MODEL 7
REMARK VINA RESULT:      -6.1      2.177      4.965
REMARK  Name = 
REMARK  2 active torsions:
REMARK  status: ('A' for Active; 'I' for Inactive)
REMARK    1  A    between atoms: O_2  and  C_3
REMARK    2  A    between atoms: C_8  and  C_9
REMARK                            x       y       z     vdW  Elec       q    Type
REMARK                         _______ _______ _______ _____ _____    ______ ____
ROOT
ATOM      1  C   UNL     1      27.976  24.644  23.958  0.00  0.00    +0.000 C 
ATOM      2  C   UNL     1      27.660  23.136  23.447  0.00  0.00    +0.000 C 
ATOM      3  C   UNL     1      26.184  23.141  23.351  0.00  0.00    +0.000 C 
ATOM      4  O   UNL     1      25.614  23.179  22.274  0.00  0.00    +0.000 OA
ATOM      5  N   UNL     1      25.586  23.097  24.647  0.00  0.00    +0.000 NA
ATOM      6  C   UNL     1      26.313  23.865  25.650  0.00  0.00    +0.000 A 
ATOM      7  C   UNL     1      25.754  23.785  26.929  0.00  0.00    +0.000 A 
ATOM      8  C   UNL     1      26.405  24.453  27.949  0.00  0.00    +0.000 A 
ATOM      9  C   UNL     1      25.834  24.390  29.333  0.00  0.00    +0.000 C 
ATOM     10  C   UNL     1      27.559  25.165  27.701  0.00  0.00    +0.000 A 
ATOM     11  C   UNL     1      28.207  25.852  28.821  0.00  0.00    +0.000 C 
ATOM     12  C   UNL     1      28.080  25.210  26.383  0.00  0.00    +0.000 A 
ATOM     13  C   UNL     1      27.434  24.552  25.383  0.00  0.00    +0.000 A 
ENDROOT
BRANCH   1  19
ATOM     14  C   UNL     1      30.426  25.410  24.229  0.00  0.00    +0.000 A 
ATOM     15  C   UNL     1      31.764  25.115  24.494  0.00  0.00    +0.000 A 
ATOM     16  C   UNL     1      32.080  23.827  24.758  0.00  0.00    +0.000 A 
ATOM     17  C   UNL     1      31.176  22.812  24.780  0.00  0.00    +0.000 A 
ATOM     18  C   UNL     1      29.838  23.147  24.508  0.00  0.00    +0.000 A 
ATOM     19  C   UNL     1      29.515  24.451  24.240  0.00  0.00    +0.000 A 
BRANCH  14  21
ATOM     20  C   UNL     1      30.395  27.699  24.861  0.00  0.00    +0.000 C 
ATOM     21  O   UNL     1      29.981  26.707  23.942  0.00  0.00    +0.000 OA
ENDBRANCH  14  21
ENDBRANCH   1  19
TORSDOF 2
ENDMDL
MODEL 8
REMARK VINA RESULT:      -6.0     18.504     21.481
REMARK  Name = 
REMARK  2 active torsions:
REMARK  status: ('A' for Active; 'I' for Inactive)
REMARK    1  A    between atoms: O_2  and  C_3
REMARK    2  A    between atoms: C_8  and  C_9
REMARK                            x       y       z     vdW  Elec       q    Type
REMARK                         _______ _______ _______ _____ _____    ______ ____
ROOT
ATOM      1  C   UNL     1      17.945   9.455  38.374  0.00  0.00    +0.000 C 
ATOM      2  C   UNL     1      16.619  10.326  38.035  0.00  0.00    +0.000 C 
ATOM      3  C   UNL     1      17.008  11.015  36.784  0.00  0.00    +0.000 C 
ATOM      4  O   UNL     1      16.556  10.679  35.703  0.00  0.00    +0.000 OA
ATOM      5  N   UNL     1      17.938  12.066  37.046  0.00  0.00    +0.000 NA
ATOM      6  C   UNL     1      18.892  11.749  38.101  0.00  0.00    +0.000 A 
ATOM      7  C   UNL     1      19.775  12.795  38.391  0.00  0.00    +0.000 A 
ATOM      8  C   UNL     1      20.688  12.592  39.408  0.00  0.00    +0.000 A 
ATOM      9  C   UNL     1      21.649  13.691  39.745  0.00  0.00    +0.000 C 
ATOM     10  C   UNL     1      20.717  11.402  40.102  0.00  0.00    +0.000 A 
ATOM     11  C   UNL     1      21.706  11.243  41.171  0.00  0.00    +0.000 C 
ATOM     12  C   UNL     1      19.798  10.376  39.764  0.00  0.00    +0.000 A 
ATOM     13  C   UNL     1      18.902  10.581  38.761  0.00  0.00    +0.000 A 
ENDROOT
BRANCH   1  19
ATOM     14  C   UNL     1      17.882   7.828  40.376  0.00  0.00    +0.000 A 
ATOM     15  C   UNL     1      17.430   7.499  41.655  0.00  0.00    +0.000 A 
ATOM     16  C   UNL     1      16.609   8.377  42.273  0.00  0.00    +0.000 A 
ATOM     17  C   UNL     1      16.203   9.553  41.724  0.00  0.00    +0.000 A 
ATOM     18  C   UNL     1      16.679   9.851  40.436  0.00  0.00    +0.000 A 
ATOM     19  C   UNL     1      17.511   8.962  39.807  0.00  0.00    +0.000 A 
BRANCH  14  21
ATOM     20  C   UNL     1      19.202   5.854  40.332  0.00  0.00    +0.000 C 
ATOM     21  O   UNL     1      18.735   6.995  39.639  0.00  0.00    +0.000 OA
ENDBRANCH  14  21
ENDBRANCH   1  19
TORSDOF 2
ENDMDL
MODEL 9
REMARK VINA RESULT:      -5.9     19.027     21.538
REMARK  Name = 
REMARK  2 active torsions:
REMARK  status: ('A' for Active; 'I' for Inactive)
REMARK    1  A    between atoms: O_2  and  C_3
REMARK    2  A    between atoms: C_8  and  C_9
REMARK                            x       y       z     vdW  Elec       q    Type
REMARK                         _______ _______ _______ _____ _____    ______ ____
ROOT
ATOM      1  C   UNL     1      19.338   9.685  38.070  0.00  0.00    +0.000 C 
ATOM      2  C   UNL     1      20.564  10.705  38.372  0.00  0.00    +0.000 C 
ATOM      3  C   UNL     1      21.448   9.887  39.231  0.00  0.00    +0.000 C 
ATOM      4  O   UNL     1      22.492   9.418  38.811  0.00  0.00    +0.000 OA
ATOM      5  N   UNL     1      20.904   9.752  40.545  0.00  0.00    +0.000 NA
ATOM      6  C   UNL     1      19.452   9.629  40.564  0.00  0.00    +0.000 A 
ATOM      7  C   UNL     1      18.914   9.544  41.852  0.00  0.00    +0.000 A 
ATOM      8  C   UNL     1      17.539   9.464  41.963  0.00  0.00    +0.000 A 
ATOM      9  C   UNL     1      16.928   9.371  43.327  0.00  0.00    +0.000 C 
ATOM     10  C   UNL     1      16.741   9.470  40.839  0.00  0.00    +0.000 A 
ATOM     11  C   UNL     1      15.289   9.385  41.016  0.00  0.00    +0.000 C 
ATOM     12  C   UNL     1      17.342   9.559  39.558  0.00  0.00    +0.000 A 
ATOM     13  C   UNL     1      18.696   9.636  39.455  0.00  0.00    +0.000 A 
ENDROOT
BRANCH   1  19
ATOM     14  C   UNL     1      17.468  10.418  36.450  0.00  0.00    +0.000 A 
ATOM     15  C   UNL     1      16.674  11.421  35.893  0.00  0.00    +0.000 A 
ATOM     16  C   UNL     1      16.875  12.688  36.319  0.00  0.00    +0.000 A 
ATOM     17  C   UNL     1      17.800  13.037  37.254  0.00  0.00    +0.000 A 
ATOM     18  C   UNL     1      18.580  12.000  37.793  0.00  0.00    +0.000 A 
ATOM     19  C   UNL     1      18.378  10.715  37.362  0.00  0.00    +0.000 A 
BRANCH  14  21
ATOM     20  C   UNL     1      17.871   8.747  34.811  0.00  0.00    +0.000 C 
ATOM     21  O   UNL     1      17.349   9.070  36.085  0.00  0.00    +0.000 OA
ENDBRANCH  14  21
ENDBRANCH   1  19
TORSDOF 2
ENDMDL
MODEL 10
REMARK VINA RESULT:      -5.9      1.635      2.237
REMARK  Name = 
REMARK  2 active torsions:
REMARK  status: ('A' for Active; 'I' for Inactive)
REMARK    1  A    between atoms: O_2  and  C_3
REMARK    2  A    between atoms: C_8  and  C_9
REMARK                            x       y       z     vdW  Elec       q    Type
REMARK                         _______ _______ _______ _____ _____    ______ ____
ROOT
ATOM      1  C   UNL     1      26.030  24.086  27.330  0.00  0.00    +0.000 C 
ATOM      2  C   UNL     1      25.779  25.567  26.715  0.00  0.00    +0.000 C 
ATOM      3  C   UNL     1      25.447  25.268  25.304  0.00  0.00    +0.000 C 
ATOM      4  O   UNL     1      24.307  25.355  24.883  0.00  0.00    +0.000 OA
ATOM      5  N   UNL     1      26.614  24.888  24.574  0.00  0.00    +0.000 NA
ATOM      6  C   UNL     1      27.551  24.086  25.351  0.00  0.00    +0.000 A 
ATOM      7  C   UNL     1      28.716  23.752  24.651  0.00  0.00    +0.000 A 
ATOM      8  C   UNL     1      29.677  23.025  25.328  0.00  0.00    +0.000 A 
ATOM      9  C   UNL     1      30.937  22.649  24.609  0.00  0.00    +0.000 C 
ATOM     10  C   UNL     1      29.483  22.652  26.641  0.00  0.00    +0.000 A 
ATOM     11  C   UNL     1      30.537  21.884  27.309  0.00  0.00    +0.000 C 
ATOM     12  C   UNL     1      28.282  23.020  27.299  0.00  0.00    +0.000 A 
ATOM     13  C   UNL     1      27.340  23.734  26.627  0.00  0.00    +0.000 A 
ENDROOT
BRANCH   1  19
ATOM     14  C   UNL     1      26.471  23.854  29.862  0.00  0.00    +0.000 A 
ATOM     15  C   UNL     1      27.008  24.357  31.049  0.00  0.00    +0.000 A 
ATOM     16  C   UNL     1      27.640  25.551  30.993  0.00  0.00    +0.000 A 
ATOM     17  C   UNL     1      27.782  26.282  29.855  0.00  0.00    +0.000 A 
ATOM     18  C   UNL     1      27.229  25.744  28.681  0.00  0.00    +0.000 A 
ATOM     19  C   UNL     1      26.587  24.535  28.735  0.00  0.00    +0.000 A 
BRANCH  14  21
ATOM     20  C   UNL     1      26.420  21.564  30.487  0.00  0.00    +0.000 C 
ATOM     21  O   UNL     1      25.794  22.629  29.799  0.00  0.00    +0.000 OA
ENDBRANCH  14  21
ENDBRANCH   1  19
TORSDOF 2
ENDMDL
