MODEL 1
REMARK VINA RESULT:      -8.2      0.000      0.000
REMARK  Name = 
REMARK  6 active torsions:
REMARK  status: ('A' for Active; 'I' for Inactive)
REMARK    1  A    between atoms: C_2  and  C_3
REMARK    2  A    between atoms: C_3  and  C_5
REMARK    3  A    between atoms: C_8  and  C_9
REMARK    4  A    between atoms: C_11  and  C_12
REMARK    5  A    between atoms: N_14  and  N_15
REMARK    6  A    between atoms: C_16  and  C_17
REMARK                            x       y       z     vdW  Elec       q    Type
REMARK                         _______ _______ _______ _____ _____    ______ ____
ROOT
ATOM      1  C   UNL     1      37.811   4.069  16.387  0.00  0.00    +0.000 A 
ATOM      2  C   UNL     1      37.051   3.100  17.007  0.00  0.00    +0.000 A 
ATOM      3  C   UNL     1      36.546   2.037  16.267  0.00  0.00    +0.000 A 
ATOM      4  C   UNL     1      36.834   2.003  14.923  0.00  0.00    +0.000 A 
ATOM      5  C   UNL     1      36.373   0.985  14.115  0.00  0.00    +0.000 A 
ATOM      6  C   UNL     1      36.656   0.941  12.766  0.00  0.00    +0.000 A 
ATOM      7  C   UNL     1      37.418   1.921  12.166  0.00  0.00    +0.000 A 
ATOM      8  C   UNL     1      37.884   2.943  12.968  0.00  0.00    +0.000 A 
ATOM      9  C   UNL     1      37.596   2.979  14.315  0.00  0.00    +0.000 A 
ATOM     10  N   UNL     1      38.070   3.998  15.068  0.00  0.00    +0.000 NA
ENDROOT
BRANCH   1  14
ATOM     11  C   UNL     1      39.324   7.317  18.548  0.00  0.00    +0.000 A 
ATOM     12  C   UNL     1      38.821   7.556  17.367  0.00  0.00    +0.000 A 
ATOM     13  C   UNL     1      38.316   6.469  16.644  0.00  0.00    +0.000 A 
ATOM     14  C   UNL     1      38.346   5.191  17.158  0.00  0.00    +0.000 A 
ATOM     15  C   UNL     1      38.883   4.999  18.398  0.00  0.00    +0.000 A 
ATOM     16  C   UNL     1      39.385   6.071  19.117  0.00  0.00    +0.000 A 
BRANCH  11  17
ATOM     17  C   UNL     1      39.948   8.429  19.518  0.00  0.00    +0.000 C 
ATOM     18  C   UNL     1      41.123   7.486  20.207  0.00  0.00    +0.000 C 
BRANCH  17  20
ATOM     19  C   UNL     1      37.931   9.308  20.561  0.00  0.00    +0.000 C 
ATOM     20  C   UNL     1      38.869   8.115  20.735  0.00  0.00    +0.000 C 
ENDBRANCH  17  20
ENDBRANCH  11  17
ENDBRANCH   1  14
BRANCH   3  21
ATOM     21  C   UNL     1      35.737   0.997  16.905  0.00  0.00    +0.000 C 
ATOM     22  O   UNL     1      34.481   1.089  16.945  0.00  0.00    +0.000 OA
ATOM     23  N   UNL     1      36.391  -0.102  17.469  0.00  0.00    +0.000 NA
BRANCH  23  24
ATOM     24  N   UNL     1      35.677  -1.121  18.087  0.00  0.00    +0.000 NA
ATOM     25  C   UNL     1      35.790  -2.314  17.627  0.00  0.00    +0.000 C 
BRANCH  25  26
ATOM     26  C   UNL     1      36.659  -2.539  16.482  0.00  0.00    +0.000 A 
ATOM     27  C   UNL     1      36.073  -2.552  15.243  0.00  0.00    +0.000 A 
ATOM     28  C   UNL     1      36.820  -2.756  14.122  0.00  0.00    +0.000 A 
ATOM     29  C   UNL     1      38.166  -2.950  14.228  0.00  0.00    +0.000 A 
ATOM     30  C   UNL     1      38.727  -2.930  15.504  0.00  0.00    +0.000 A 
ATOM     31  N   UNL     1      37.978  -2.728  16.596  0.00  0.00    +0.000 NA
ENDBRANCH  25  26
ENDBRANCH  23  24
ENDBRANCH   3  21
TORSDOF 6
ENDMDL
MODEL 2
REMARK VINA RESULT:      -8.2      1.362      1.710
REMARK  Name = 
REMARK  6 active torsions:
REMARK  status: ('A' for Active; 'I' for Inactive)
REMARK    1  A    between atoms: C_2  and  C_3
REMARK    2  A    between atoms: C_3  and  C_5
REMARK    3  A    between atoms: C_8  and  C_9
REMARK    4  A    between atoms: C_11  and  C_12
REMARK    5  A    between atoms: N_14  and  N_15
REMARK    6  A    between atoms: C_16  and  C_17
REMARK                            x       y       z     vdW  Elec       q    Type
REMARK                         _______ _______ _______ _____ _____    ______ ____
ROOT
ATOM      1  C   UNL     1      38.250   3.781  16.026  0.00  0.00    +0.000 A 
ATOM      2  C   UNL     1      37.163   3.096  16.526  0.00  0.00    +0.000 A 
ATOM      3  C   UNL     1      36.497   2.174  15.726  0.00  0.00    +0.000 A 
ATOM      4  C   UNL     1      36.963   1.986  14.447  0.00  0.00    +0.000 A 
ATOM      5  C   UNL     1      36.362   1.091  13.586  0.00  0.00    +0.000 A 
ATOM      6  C   UNL     1      36.823   0.895  12.302  0.00  0.00    +0.000 A 
ATOM      7  C   UNL     1      37.912   1.591  11.821  0.00  0.00    +0.000 A 
ATOM      8  C   UNL     1      38.520   2.488  12.676  0.00  0.00    +0.000 A 
ATOM      9  C   UNL     1      38.053   2.678  13.959  0.00  0.00    +0.000 A 
ATOM     10  N   UNL     1      38.675   3.566  14.767  0.00  0.00    +0.000 NA
ENDROOT
BRANCH   1  14
ATOM     11  C   UNL     1      40.297   6.584  18.363  0.00  0.00    +0.000 A 
ATOM     12  C   UNL     1      40.531   6.578  17.078  0.00  0.00    +0.000 A 
ATOM     13  C   UNL     1      39.847   5.640  16.297  0.00  0.00    +0.000 A 
ATOM     14  C   UNL     1      38.956   4.752  16.860  0.00  0.00    +0.000 A 
ATOM     15  C   UNL     1      38.750   4.803  18.209  0.00  0.00    +0.000 A 
ATOM     16  C   UNL     1      39.425   5.729  18.986  0.00  0.00    +0.000 A 
BRANCH  11  17
ATOM     17  C   UNL     1      40.983   7.579  19.413  0.00  0.00    +0.000 C 
ATOM     18  C   UNL     1      41.736   6.435  20.343  0.00  0.00    +0.000 C 
BRANCH  17  20
ATOM     19  C   UNL     1      39.378   9.122  20.397  0.00  0.00    +0.000 C 
ATOM     20  C   UNL     1      39.651   7.620  20.397  0.00  0.00    +0.000 C 
ENDBRANCH  17  20
ENDBRANCH  11  17
ENDBRANCH   1  14
BRANCH   3  21
ATOM     21  C   UNL     1      35.341   1.436  16.237  0.00  0.00    +0.000 C 
ATOM     22  O   UNL     1      34.248   2.022  16.465  0.00  0.00    +0.000 OA
ATOM     23  N   UNL     1      35.476   0.064  16.466  0.00  0.00    +0.000 NA
BRANCH  23  24
ATOM     24  N   UNL     1      34.413  -0.690  16.950  0.00  0.00    +0.000 NA
ATOM     25  C   UNL     1      34.670  -1.790  17.560  0.00  0.00    +0.000 C 
BRANCH  25  26
ATOM     26  C   UNL     1      36.060  -2.191  17.714  0.00  0.00    +0.000 A 
ATOM     27  C   UNL     1      36.742  -1.688  18.792  0.00  0.00    +0.000 A 
ATOM     28  C   UNL     1      38.047  -2.017  19.005  0.00  0.00    +0.000 A 
ATOM     29  C   UNL     1      38.687  -2.855  18.140  0.00  0.00    +0.000 A 
ATOM     30  C   UNL     1      37.962  -3.346  17.056  0.00  0.00    +0.000 A 
ATOM     31  N   UNL     1      36.679  -3.013  16.861  0.00  0.00    +0.000 NA
ENDBRANCH  25  26
ENDBRANCH  23  24
ENDBRANCH   3  21
TORSDOF 6
ENDMDL
MODEL 3
REMARK VINA RESULT:      -8.0      2.028      3.193
REMARK  Name = 
REMARK  6 active torsions:
REMARK  status: ('A' for Active; 'I' for Inactive)
REMARK    1  A    between atoms: C_2  and  C_3
REMARK    2  A    between atoms: C_3  and  C_5
REMARK    3  A    between atoms: C_8  and  C_9
REMARK    4  A    between atoms: C_11  and  C_12
REMARK    5  A    between atoms: N_14  and  N_15
REMARK    6  A    between atoms: C_16  and  C_17
REMARK                            x       y       z     vdW  Elec       q    Type
REMARK                         _______ _______ _______ _____ _____    ______ ____
ROOT
ATOM      1  C   UNL     1      37.949   3.733  16.662  0.00  0.00    +0.000 A 
ATOM      2  C   UNL     1      38.607   3.247  15.552  0.00  0.00    +0.000 A 
ATOM      3  C   UNL     1      38.193   2.056  14.967  0.00  0.00    +0.000 A 
ATOM      4  C   UNL     1      37.124   1.405  15.535  0.00  0.00    +0.000 A 
ATOM      5  C   UNL     1      36.647   0.218  15.020  0.00  0.00    +0.000 A 
ATOM      6  C   UNL     1      35.575  -0.442  15.582  0.00  0.00    +0.000 A 
ATOM      7  C   UNL     1      34.931   0.062  16.693  0.00  0.00    +0.000 A 
ATOM      8  C   UNL     1      35.402   1.250  17.215  0.00  0.00    +0.000 A 
ATOM      9  C   UNL     1      36.473   1.903  16.646  0.00  0.00    +0.000 A 
ATOM     10  N   UNL     1      36.906   3.065  17.187  0.00  0.00    +0.000 NA
ENDROOT
BRANCH   1  14
ATOM     11  C   UNL     1      39.157   7.345  18.393  0.00  0.00    +0.000 A 
ATOM     12  C   UNL     1      38.602   7.395  17.213  0.00  0.00    +0.000 A 
ATOM     13  C   UNL     1      38.198   6.186  16.634  0.00  0.00    +0.000 A 
ATOM     14  C   UNL     1      38.379   4.985  17.284  0.00  0.00    +0.000 A 
ATOM     15  C   UNL     1      38.966   4.992  18.517  0.00  0.00    +0.000 A 
ATOM     16  C   UNL     1      39.367   6.185  19.093  0.00  0.00    +0.000 A 
BRANCH  11  17
ATOM     17  C   UNL     1      39.682   8.619  19.211  0.00  0.00    +0.000 C 
ATOM     18  C   UNL     1      41.077   7.946  19.797  0.00  0.00    +0.000 C 
BRANCH  17  20
ATOM     19  C   UNL     1      37.598   9.111  20.368  0.00  0.00    +0.000 C 
ATOM     20  C   UNL     1      38.824   8.224  20.572  0.00  0.00    +0.000 C 
ENDBRANCH  17  20
ENDBRANCH  11  17
ENDBRANCH   1  14
BRANCH   3  21
ATOM     21  C   UNL     1      38.877   1.522  13.788  0.00  0.00    +0.000 C 
ATOM     22  O   UNL     1      38.513   1.848  12.626  0.00  0.00    +0.000 OA
ATOM     23  N   UNL     1      39.944   0.641  13.981  0.00  0.00    +0.000 NA
BRANCH  23  24
ATOM     24  N   UNL     1      40.633   0.102  12.900  0.00  0.00    +0.000 NA
ATOM     25  C   UNL     1      40.526  -1.157  12.672  0.00  0.00    +0.000 C 
BRANCH  25  26
ATOM     26  C   UNL     1      39.690  -1.955  13.556  0.00  0.00    +0.000 A 
ATOM     27  C   UNL     1      38.506  -2.421  13.048  0.00  0.00    +0.000 A 
ATOM     28  C   UNL     1      37.668  -3.176  13.812  0.00  0.00    +0.000 A 
ATOM     29  C   UNL     1      38.008  -3.474  15.100  0.00  0.00    +0.000 A 
ATOM     30  C   UNL     1      39.219  -2.983  15.583  0.00  0.00    +0.000 A 
ATOM     31  N   UNL     1      40.031  -2.242  14.817  0.00  0.00    +0.000 NA
ENDBRANCH  25  26
ENDBRANCH  23  24
ENDBRANCH   3  21
TORSDOF 6
ENDMDL
MODEL 4
REMARK VINA RESULT:      -8.0      1.700      2.458
REMARK  Name = 
REMARK  6 active torsions:
REMARK  status: ('A' for Active; 'I' for Inactive)
REMARK    1  A    between atoms: C_2  and  C_3
REMARK    2  A    between atoms: C_3  and  C_5
REMARK    3  A    between atoms: C_8  and  C_9
REMARK    4  A    between atoms: C_11  and  C_12
REMARK    5  A    between atoms: N_14  and  N_15
REMARK    6  A    between atoms: C_16  and  C_17
REMARK                            x       y       z     vdW  Elec       q    Type
REMARK                         _______ _______ _______ _____ _____    ______ ____
ROOT
ATOM      1  C   UNL     1      39.051   5.016  16.717  0.00  0.00    +0.000 A 
ATOM      2  C   UNL     1      38.021   4.191  17.118  0.00  0.00    +0.000 A 
ATOM      3  C   UNL     1      37.222   3.568  16.167  0.00  0.00    +0.000 A 
ATOM      4  C   UNL     1      37.502   3.810  14.843  0.00  0.00    +0.000 A 
ATOM      5  C   UNL     1      36.759   3.233  13.833  0.00  0.00    +0.000 A 
ATOM      6  C   UNL     1      37.032   3.469  12.503  0.00  0.00    +0.000 A 
ATOM      7  C   UNL     1      38.066   4.297  12.124  0.00  0.00    +0.000 A 
ATOM      8  C   UNL     1      38.815   4.879  13.127  0.00  0.00    +0.000 A 
ATOM      9  C   UNL     1      38.535   4.637  14.454  0.00  0.00    +0.000 A 
ATOM     10  N   UNL     1      39.291   5.226  15.410  0.00  0.00    +0.000 NA
ENDROOT
BRANCH   1  14
ATOM     11  C   UNL     1      41.511   6.915  19.518  0.00  0.00    +0.000 A 
ATOM     12  C   UNL     1      41.963   6.790  18.300  0.00  0.00    +0.000 A 
ATOM     13  C   UNL     1      41.140   6.155  17.363  0.00  0.00    +0.000 A 
ATOM     14  C   UNL     1      39.896   5.676  17.711  0.00  0.00    +0.000 A 
ATOM     15  C   UNL     1      39.474   5.834  19.000  0.00  0.00    +0.000 A 
ATOM     16  C   UNL     1      40.284   6.461  19.930  0.00  0.00    +0.000 A 
BRANCH  11  17
ATOM     17  C   UNL     1      42.306   7.610  20.723  0.00  0.00    +0.000 C 
ATOM     18  C   UNL     1      42.821   8.953  19.901  0.00  0.00    +0.000 C 
BRANCH  17  20
ATOM     19  C   UNL     1      43.679   5.786  21.567  0.00  0.00    +0.000 C 
ATOM     20  C   UNL     1      43.706   6.781  20.410  0.00  0.00    +0.000 C 
ENDBRANCH  17  20
ENDBRANCH  11  17
ENDBRANCH   1  14
BRANCH   3  21
ATOM     21  C   UNL     1      36.124   2.688  16.570  0.00  0.00    +0.000 C 
ATOM     22  O   UNL     1      34.932   2.955  16.257  0.00  0.00    +0.000 OA
ATOM     23  N   UNL     1      36.427   1.544  17.313  0.00  0.00    +0.000 NA
BRANCH  23  24
ATOM     24  N   UNL     1      35.427   0.670  17.723  0.00  0.00    +0.000 NA
ATOM     25  C   UNL     1      35.502  -0.560  17.362  0.00  0.00    +0.000 C 
BRANCH  25  26
ATOM     26  C   UNL     1      36.630  -0.976  16.542  0.00  0.00    +0.000 A 
ATOM     27  C   UNL     1      36.446  -0.988  15.184  0.00  0.00    +0.000 A 
ATOM     28  C   UNL     1      37.453  -1.366  14.348  0.00  0.00    +0.000 A 
ATOM     29  C   UNL     1      38.660  -1.737  14.864  0.00  0.00    +0.000 A 
ATOM     30  C   UNL     1      38.810  -1.713  16.249  0.00  0.00    +0.000 A 
ATOM     31  N   UNL     1      37.809  -1.339  17.056  0.00  0.00    +0.000 NA
ENDBRANCH  25  26
ENDBRANCH  23  24
ENDBRANCH   3  21
TORSDOF 6
ENDMDL
MODEL 5
REMARK VINA RESULT:      -7.7      1.538      2.216
REMARK  Name = 
REMARK  6 active torsions:
REMARK  status: ('A' for Active; 'I' for Inactive)
REMARK    1  A    between atoms: C_2  and  C_3
REMARK    2  A    between atoms: C_3  and  C_5
REMARK    3  A    between atoms: C_8  and  C_9
REMARK    4  A    between atoms: C_11  and  C_12
REMARK    5  A    between atoms: N_14  and  N_15
REMARK    6  A    between atoms: C_16  and  C_17
REMARK                            x       y       z     vdW  Elec       q    Type
REMARK                         _______ _______ _______ _____ _____    ______ ____
ROOT
ATOM      1  C   UNL     1      38.482   4.919  17.012  0.00  0.00    +0.000 A 
ATOM      2  C   UNL     1      37.477   3.982  17.127  0.00  0.00    +0.000 A 
ATOM      3  C   UNL     1      37.344   2.986  16.166  0.00  0.00    +0.000 A 
ATOM      4  C   UNL     1      38.240   2.983  15.124  0.00  0.00    +0.000 A 
ATOM      5  C   UNL     1      38.181   2.031  14.128  0.00  0.00    +0.000 A 
ATOM      6  C   UNL     1      39.075   2.019  13.078  0.00  0.00    +0.000 A 
ATOM      7  C   UNL     1      40.073   2.965  12.982  0.00  0.00    +0.000 A 
ATOM      8  C   UNL     1      40.140   3.921  13.975  0.00  0.00    +0.000 A 
ATOM      9  C   UNL     1      39.242   3.925  15.020  0.00  0.00    +0.000 A 
ATOM     10  N   UNL     1      39.339   4.879  15.975  0.00  0.00    +0.000 NA
ENDROOT
BRANCH   1  14
ATOM     11  C   UNL     1      38.947   7.894  19.916  0.00  0.00    +0.000 A 
ATOM     12  C   UNL     1      39.695   6.829  20.014  0.00  0.00    +0.000 A 
ATOM     13  C   UNL     1      39.539   5.834  19.043  0.00  0.00    +0.000 A 
ATOM     14  C   UNL     1      38.629   5.970  18.018  0.00  0.00    +0.000 A 
ATOM     15  C   UNL     1      37.873   7.105  17.964  0.00  0.00    +0.000 A 
ATOM     16  C   UNL     1      38.023   8.092  18.922  0.00  0.00    +0.000 A 
BRANCH  11  17
ATOM     17  C   UNL     1      38.983   9.134  20.930  0.00  0.00    +0.000 C 
ATOM     18  C   UNL     1      38.084  10.188  20.022  0.00  0.00    +0.000 C 
BRANCH  17  20
ATOM     19  C   UNL     1      40.503  11.027  21.100  0.00  0.00    +0.000 C 
ATOM     20  C   UNL     1      40.415   9.711  20.332  0.00  0.00    +0.000 C 
ENDBRANCH  17  20
ENDBRANCH  11  17
ENDBRANCH   1  14
BRANCH   3  21
ATOM     21  C   UNL     1      36.284   1.982  16.269  0.00  0.00    +0.000 C 
ATOM     22  O   UNL     1      35.141   2.195  15.782  0.00  0.00    +0.000 OA
ATOM     23  N   UNL     1      36.568   0.779  16.922  0.00  0.00    +0.000 NA
BRANCH  23  24
ATOM     24  N   UNL     1      35.603  -0.212  17.051  0.00  0.00    +0.000 NA
ATOM     25  C   UNL     1      35.770  -1.316  16.417  0.00  0.00    +0.000 C 
BRANCH  25  26
ATOM     26  C   UNL     1      36.962  -1.473  15.597  0.00  0.00    +0.000 A 
ATOM     27  C   UNL     1      38.148  -1.686  16.249  0.00  0.00    +0.000 A 
ATOM     28  C   UNL     1      39.308  -1.843  15.552  0.00  0.00    +0.000 A 
ATOM     29  C   UNL     1      39.294  -1.787  14.188  0.00  0.00    +0.000 A 
ATOM     30  C   UNL     1      38.070  -1.568  13.560  0.00  0.00    +0.000 A 
ATOM     31  N   UNL     1      36.938  -1.416  14.261  0.00  0.00    +0.000 NA
ENDBRANCH  25  26
ENDBRANCH  23  24
ENDBRANCH   3  21
TORSDOF 6
ENDMDL
MODEL 6
REMARK VINA RESULT:      -7.5      3.170      9.096
REMARK  Name = 
REMARK  6 active torsions:
REMARK  status: ('A' for Active; 'I' for Inactive)
REMARK    1  A    between atoms: C_2  and  C_3
REMARK    2  A    between atoms: C_3  and  C_5
REMARK    3  A    between atoms: C_8  and  C_9
REMARK    4  A    between atoms: C_11  and  C_12
REMARK    5  A    between atoms: N_14  and  N_15
REMARK    6  A    between atoms: C_16  and  C_17
REMARK                            x       y       z     vdW  Elec       q    Type
REMARK                         _______ _______ _______ _____ _____    ______ ____
ROOT
ATOM      1  C   UNL     1      36.672   2.496  16.040  0.00  0.00    +0.000 A 
ATOM      2  C   UNL     1      36.306   3.228  14.931  0.00  0.00    +0.000 A 
ATOM      3  C   UNL     1      36.733   4.544  14.797  0.00  0.00    +0.000 A 
ATOM      4  C   UNL     1      37.517   5.064  15.800  0.00  0.00    +0.000 A 
ATOM      5  C   UNL     1      37.985   6.361  15.748  0.00  0.00    +0.000 A 
ATOM      6  C   UNL     1      38.771   6.892  16.748  0.00  0.00    +0.000 A 
ATOM      7  C   UNL     1      39.125   6.142  17.850  0.00  0.00    +0.000 A 
ATOM      8  C   UNL     1      38.661   4.844  17.910  0.00  0.00    +0.000 A 
ATOM      9  C   UNL     1      37.876   4.321  16.905  0.00  0.00    +0.000 A 
ATOM     10  N   UNL     1      37.440   3.044  17.000  0.00  0.00    +0.000 NA
ENDROOT
BRANCH   1  14
ATOM     11  C   UNL     1      35.347  -1.446  16.499  0.00  0.00    +0.000 A 
ATOM     12  C   UNL     1      34.652  -0.503  17.072  0.00  0.00    +0.000 A 
ATOM     13  C   UNL     1      35.095   0.816  16.919  0.00  0.00    +0.000 A 
ATOM     14  C   UNL     1      36.226   1.111  16.189  0.00  0.00    +0.000 A 
ATOM     15  C   UNL     1      36.915   0.084  15.611  0.00  0.00    +0.000 A 
ATOM     16  C   UNL     1      36.480  -1.222  15.760  0.00  0.00    +0.000 A 
BRANCH  11  17
ATOM     17  C   UNL     1      34.997  -3.008  16.562  0.00  0.00    +0.000 C 
ATOM     18  C   UNL     1      36.511  -3.558  16.948  0.00  0.00    +0.000 C 
BRANCH  17  20
ATOM     19  C   UNL     1      34.239  -4.354  14.681  0.00  0.00    +0.000 C 
ATOM     20  C   UNL     1      35.241  -3.232  14.939  0.00  0.00    +0.000 C 
ENDBRANCH  17  20
ENDBRANCH  11  17
ENDBRANCH   1  14
BRANCH   3  21
ATOM     21  C   UNL     1      36.357   5.339  13.627  0.00  0.00    +0.000 C 
ATOM     22  O   UNL     1      37.114   5.408  12.621  0.00  0.00    +0.000 OA
ATOM     23  N   UNL     1      35.138   6.022  13.651  0.00  0.00    +0.000 NA
BRANCH  23  24
ATOM     24  N   UNL     1      34.727   6.792  12.569  0.00  0.00    +0.000 NA
ATOM     25  C   UNL     1      34.433   8.025  12.772  0.00  0.00    +0.000 C 
BRANCH  25  26
ATOM     26  C   UNL     1      34.545   8.553  14.123  0.00  0.00    +0.000 A 
ATOM     27  C   UNL     1      35.769   9.034  14.508  0.00  0.00    +0.000 A 
ATOM     28  C   UNL     1      35.954   9.546  15.757  0.00  0.00    +0.000 A 
ATOM     29  C   UNL     1      34.913   9.582  16.638  0.00  0.00    +0.000 A 
ATOM     30  C   UNL     1      33.684   9.084  16.211  0.00  0.00    +0.000 A 
ATOM     31  N   UNL     1      33.519   8.584  14.979  0.00  0.00    +0.000 NA
ENDBRANCH  25  26
ENDBRANCH  23  24
ENDBRANCH   3  21
TORSDOF 6
ENDMDL
MODEL 7
REMARK VINA RESULT:      -7.5      2.458      3.875
REMARK  Name = 
REMARK  6 active torsions:
REMARK  status: ('A' for Active; 'I' for Inactive)
REMARK    1  A    between atoms: C_2  and  C_3
REMARK    2  A    between atoms: C_3  and  C_5
REMARK    3  A    between atoms: C_8  and  C_9
REMARK    4  A    between atoms: C_11  and  C_12
REMARK    5  A    between atoms: N_14  and  N_15
REMARK    6  A    between atoms: C_16  and  C_17
REMARK                            x       y       z     vdW  Elec       q    Type
REMARK                         _______ _______ _______ _____ _____    ______ ____
ROOT
ATOM      1  C   UNL     1      39.163   5.450  16.565  0.00  0.00    +0.000 A 
ATOM      2  C   UNL     1      39.303   4.180  16.046  0.00  0.00    +0.000 A 
ATOM      3  C   UNL     1      38.458   3.750  15.029  0.00  0.00    +0.000 A 
ATOM      4  C   UNL     1      37.503   4.629  14.580  0.00  0.00    +0.000 A 
ATOM      5  C   UNL     1      36.624   4.285  13.574  0.00  0.00    +0.000 A 
ATOM      6  C   UNL     1      35.661   5.160  13.117  0.00  0.00    +0.000 A 
ATOM      7  C   UNL     1      35.538   6.425  13.650  0.00  0.00    +0.000 A 
ATOM      8  C   UNL     1      36.413   6.778  14.657  0.00  0.00    +0.000 A 
ATOM      9  C   UNL     1      37.372   5.897  15.108  0.00  0.00    +0.000 A 
ATOM     10  N   UNL     1      38.213   6.280  16.097  0.00  0.00    +0.000 NA
ENDROOT
BRANCH   1  14
ATOM     11  C   UNL     1      41.734   6.778  19.586  0.00  0.00    +0.000 A 
ATOM     12  C   UNL     1      42.195   6.755  18.365  0.00  0.00    +0.000 A 
ATOM     13  C   UNL     1      41.334   6.310  17.355  0.00  0.00    +0.000 A 
ATOM     14  C   UNL     1      40.046   5.910  17.636  0.00  0.00    +0.000 A 
ATOM     15  C   UNL     1      39.617   5.955  18.931  0.00  0.00    +0.000 A 
ATOM     16  C   UNL     1      40.465   6.394  19.934  0.00  0.00    +0.000 A 
BRANCH  11  17
ATOM     17  C   UNL     1      42.568   7.254  20.869  0.00  0.00    +0.000 C 
ATOM     18  C   UNL     1      43.965   7.668  20.083  0.00  0.00    +0.000 C 
BRANCH  17  20
ATOM     19  C   UNL     1      44.619   5.972  21.141  0.00  0.00    +0.000 C 
ATOM     20  C   UNL     1      43.113   5.726  21.205  0.00  0.00    +0.000 C 
ENDBRANCH  17  20
ENDBRANCH  11  17
ENDBRANCH   1  14
BRANCH   3  21
ATOM     21  C   UNL     1      38.591   2.406  14.463  0.00  0.00    +0.000 C 
ATOM     22  O   UNL     1      39.169   2.224  13.359  0.00  0.00    +0.000 OA
ATOM     23  N   UNL     1      38.059   1.329  15.177  0.00  0.00    +0.000 NA
BRANCH  23  24
ATOM     24  N   UNL     1      38.155   0.030  14.691  0.00  0.00    +0.000 NA
ATOM     25  C   UNL     1      37.596  -0.915  15.356  0.00  0.00    +0.000 C 
BRANCH  25  26
ATOM     26  C   UNL     1      36.892  -0.580  16.585  0.00  0.00    +0.000 A 
ATOM     27  C   UNL     1      37.364  -1.129  17.748  0.00  0.00    +0.000 A 
ATOM     28  C   UNL     1      36.760  -0.863  18.940  0.00  0.00    +0.000 A 
ATOM     29  C   UNL     1      35.671  -0.041  18.980  0.00  0.00    +0.000 A 
ATOM     30  C   UNL     1      35.219   0.498  17.778  0.00  0.00    +0.000 A 
ATOM     31  N   UNL     1      35.826   0.226  16.615  0.00  0.00    +0.000 NA
ENDBRANCH  25  26
ENDBRANCH  23  24
ENDBRANCH   3  21
TORSDOF 6
ENDMDL
MODEL 8
REMARK VINA RESULT:      -7.5      3.265      7.505
REMARK  Name = 
REMARK  6 active torsions:
REMARK  status: ('A' for Active; 'I' for Inactive)
REMARK    1  A    between atoms: C_2  and  C_3
REMARK    2  A    between atoms: C_3  and  C_5
REMARK    3  A    between atoms: C_8  and  C_9
REMARK    4  A    between atoms: C_11  and  C_12
REMARK    5  A    between atoms: N_14  and  N_15
REMARK    6  A    between atoms: C_16  and  C_17
REMARK                            x       y       z     vdW  Elec       q    Type
REMARK                         _______ _______ _______ _____ _____    ______ ____
ROOT
ATOM      1  C   UNL     1      38.891  -1.618  14.986  0.00  0.00    +0.000 A 
ATOM      2  C   UNL     1      38.112  -0.627  15.545  0.00  0.00    +0.000 A 
ATOM      3  C   UNL     1      36.782  -0.884  15.857  0.00  0.00    +0.000 A 
ATOM      4  C   UNL     1      36.296  -2.141  15.587  0.00  0.00    +0.000 A 
ATOM      5  C   UNL     1      34.988  -2.481  15.865  0.00  0.00    +0.000 A 
ATOM      6  C   UNL     1      34.491  -3.739  15.598  0.00  0.00    +0.000 A 
ATOM      7  C   UNL     1      35.287  -4.716  15.038  0.00  0.00    +0.000 A 
ATOM      8  C   UNL     1      36.596  -4.384  14.757  0.00  0.00    +0.000 A 
ATOM      9  C   UNL     1      37.085  -3.124  15.027  0.00  0.00    +0.000 A 
ATOM     10  N   UNL     1      38.375  -2.836  14.737  0.00  0.00    +0.000 NA
ENDROOT
BRANCH   1  14
ATOM     11  C   UNL     1      42.882  -0.808  14.027  0.00  0.00    +0.000 A 
ATOM     12  C   UNL     1      42.035   0.184  13.983  0.00  0.00    +0.000 A 
ATOM     13  C   UNL     1      40.699  -0.088  14.303  0.00  0.00    +0.000 A 
ATOM     14  C   UNL     1      40.290  -1.356  14.653  0.00  0.00    +0.000 A 
ATOM     15  C   UNL     1      41.220  -2.356  14.684  0.00  0.00    +0.000 A 
ATOM     16  C   UNL     1      42.541  -2.092  14.367  0.00  0.00    +0.000 A 
BRANCH  11  17
ATOM     17  C   UNL     1      44.445  -0.692  13.695  0.00  0.00    +0.000 C 
ATOM     18  C   UNL     1      44.589  -2.092  12.822  0.00  0.00    +0.000 C 
BRANCH  17  20
ATOM     19  C   UNL     1      45.231  -0.195  15.944  0.00  0.00    +0.000 C 
ATOM     20  C   UNL     1      44.902  -1.428  15.106  0.00  0.00    +0.000 C 
ENDBRANCH  17  20
ENDBRANCH  11  17
ENDBRANCH   1  14
BRANCH   3  21
ATOM     21  C   UNL     1      35.938   0.153  16.452  0.00  0.00    +0.000 C 
ATOM     22  O   UNL     1      35.791   0.230  17.702  0.00  0.00    +0.000 OA
ATOM     23  N   UNL     1      35.296   1.058  15.601  0.00  0.00    +0.000 NA
BRANCH  23  24
ATOM     24  N   UNL     1      34.483   2.065  16.108  0.00  0.00    +0.000 NA
ATOM     25  C   UNL     1      34.884   3.281  16.015  0.00  0.00    +0.000 C 
BRANCH  25  26
ATOM     26  C   UNL     1      36.170   3.543  15.386  0.00  0.00    +0.000 A 
ATOM     27  C   UNL     1      37.267   3.610  16.204  0.00  0.00    +0.000 A 
ATOM     28  C   UNL     1      38.505   3.852  15.691  0.00  0.00    +0.000 A 
ATOM     29  C   UNL     1      38.660   4.030  14.347  0.00  0.00    +0.000 A 
ATOM     30  C   UNL     1      37.523   3.955  13.546  0.00  0.00    +0.000 A 
ATOM     31  N   UNL     1      36.312   3.716  14.068  0.00  0.00    +0.000 NA
ENDBRANCH  25  26
ENDBRANCH  23  24
ENDBRANCH   3  21
TORSDOF 6
ENDMDL
MODEL 9
REMARK VINA RESULT:      -7.3      2.203      3.464
REMARK  Name = 
REMARK  6 active torsions:
REMARK  status: ('A' for Active; 'I' for Inactive)
REMARK    1  A    between atoms: C_2  and  C_3
REMARK    2  A    between atoms: C_3  and  C_5
REMARK    3  A    between atoms: C_8  and  C_9
REMARK    4  A    between atoms: C_11  and  C_12
REMARK    5  A    between atoms: N_14  and  N_15
REMARK    6  A    between atoms: C_16  and  C_17
REMARK                            x       y       z     vdW  Elec       q    Type
REMARK                         _______ _______ _______ _____ _____    ______ ____
ROOT
ATOM      1  C   UNL     1      38.953   5.503  16.713  0.00  0.00    +0.000 A 
ATOM      2  C   UNL     1      38.322   4.289  16.884  0.00  0.00    +0.000 A 
ATOM      3  C   UNL     1      37.276   3.927  16.043  0.00  0.00    +0.000 A 
ATOM      4  C   UNL     1      36.912   4.816  15.060  0.00  0.00    +0.000 A 
ATOM      5  C   UNL     1      35.885   4.537  14.182  0.00  0.00    +0.000 A 
ATOM      6  C   UNL     1      35.512   5.422  13.193  0.00  0.00    +0.000 A 
ATOM      7  C   UNL     1      36.157   6.631  13.039  0.00  0.00    +0.000 A 
ATOM      8  C   UNL     1      37.186   6.918  13.913  0.00  0.00    +0.000 A 
ATOM      9  C   UNL     1      37.551   6.028  14.899  0.00  0.00    +0.000 A 
ATOM     10  N   UNL     1      38.565   6.345  15.737  0.00  0.00    +0.000 NA
ENDROOT
BRANCH   1  14
ATOM     11  C   UNL     1      42.066   6.606  19.281  0.00  0.00    +0.000 A 
ATOM     12  C   UNL     1      40.915   6.306  19.818  0.00  0.00    +0.000 A 
ATOM     13  C   UNL     1      39.874   5.937  18.958  0.00  0.00    +0.000 A 
ATOM     14  C   UNL     1      40.054   5.892  17.593  0.00  0.00    +0.000 A 
ATOM     15  C   UNL     1      41.279   6.215  17.086  0.00  0.00    +0.000 A 
ATOM     16  C   UNL     1      42.312   6.581  17.932  0.00  0.00    +0.000 A 
BRANCH  11  17
ATOM     17  C   UNL     1      43.370   7.049  20.100  0.00  0.00    +0.000 C 
ATOM     18  C   UNL     1      43.128   6.096  21.432  0.00  0.00    +0.000 C 
BRANCH  17  20
ATOM     19  C   UNL     1      43.836   9.178  21.185  0.00  0.00    +0.000 C 
ATOM     20  C   UNL     1      42.614   8.350  20.793  0.00  0.00    +0.000 C 
ENDBRANCH  17  20
ENDBRANCH  11  17
ENDBRANCH   1  14
BRANCH   3  21
ATOM     21  C   UNL     1      36.592   2.643  16.207  0.00  0.00    +0.000 C 
ATOM     22  O   UNL     1      35.429   2.586  16.689  0.00  0.00    +0.000 OA
ATOM     23  N   UNL     1      37.261   1.479  15.817  0.00  0.00    +0.000 NA
BRANCH  23  24
ATOM     24  N   UNL     1      36.663   0.231  15.947  0.00  0.00    +0.000 NA
ATOM     25  C   UNL     1      36.690  -0.569  14.944  0.00  0.00    +0.000 C 
BRANCH  25  26
ATOM     26  C   UNL     1      37.345  -0.129  13.721  0.00  0.00    +0.000 A 
ATOM     27  C   UNL     1      36.605   0.627  12.851  0.00  0.00    +0.000 A 
ATOM     28  C   UNL     1      37.147   1.077  11.684  0.00  0.00    +0.000 A 
ATOM     29  C   UNL     1      38.441   0.774  11.376  0.00  0.00    +0.000 A 
ATOM     30  C   UNL     1      39.163   0.003  12.284  0.00  0.00    +0.000 A 
ATOM     31  N   UNL     1      38.614  -0.431  13.427  0.00  0.00    +0.000 NA
ENDBRANCH  25  26
ENDBRANCH  23  24
ENDBRANCH   3  21
TORSDOF 6
ENDMDL
MODEL 10
REMARK VINA RESULT:      -7.3      2.670      3.884
REMARK  Name = 
REMARK  6 active torsions:
REMARK  status: ('A' for Active; 'I' for Inactive)
REMARK    1  A    between atoms: C_2  and  C_3
REMARK    2  A    between atoms: C_3  and  C_5
REMARK    3  A    between atoms: C_8  and  C_9
REMARK    4  A    between atoms: C_11  and  C_12
REMARK    5  A    between atoms: N_14  and  N_15
REMARK    6  A    between atoms: C_16  and  C_17
REMARK                            x       y       z     vdW  Elec       q    Type
REMARK                         _______ _______ _______ _____ _____    ______ ____
ROOT
ATOM      1  C   UNL     1      37.547   3.289  16.607  0.00  0.00    +0.000 A 
ATOM      2  C   UNL     1      37.760   2.957  15.285  0.00  0.00    +0.000 A 
ATOM      3  C   UNL     1      37.263   1.759  14.783  0.00  0.00    +0.000 A 
ATOM      4  C   UNL     1      36.569   0.946  15.646  0.00  0.00    +0.000 A 
ATOM      5  C   UNL     1      36.041  -0.259  15.231  0.00  0.00    +0.000 A 
ATOM      6  C   UNL     1      35.343  -1.083  16.089  0.00  0.00    +0.000 A 
ATOM      7  C   UNL     1      35.142  -0.731  17.407  0.00  0.00    +0.000 A 
ATOM      8  C   UNL     1      35.666   0.473  17.830  0.00  0.00    +0.000 A 
ATOM      9  C   UNL     1      36.362   1.290  16.966  0.00  0.00    +0.000 A 
ATOM     10  N   UNL     1      36.862   2.463  17.418  0.00  0.00    +0.000 NA
ENDROOT
BRANCH   1  14
ATOM     11  C   UNL     1      39.015   6.914  18.092  0.00  0.00    +0.000 A 
ATOM     12  C   UNL     1      38.466   6.922  16.908  0.00  0.00    +0.000 A 
ATOM     13  C   UNL     1      37.976   5.709  16.411  0.00  0.00    +0.000 A 
ATOM     14  C   UNL     1      38.067   4.546  17.143  0.00  0.00    +0.000 A 
ATOM     15  C   UNL     1      38.651   4.596  18.377  0.00  0.00    +0.000 A 
ATOM     16  C   UNL     1      39.138   5.793  18.872  0.00  0.00    +0.000 A 
BRANCH  11  17
ATOM     17  C   UNL     1      39.631   8.199  18.824  0.00  0.00    +0.000 C 
ATOM     18  C   UNL     1      39.448   7.674  20.383  0.00  0.00    +0.000 C 
BRANCH  17  20
ATOM     19  C   UNL     1      37.878   8.954  20.334  0.00  0.00    +0.000 C 
ATOM     20  C   UNL     1      38.185   9.007  18.840  0.00  0.00    +0.000 C 
ENDBRANCH  17  20
ENDBRANCH  11  17
ENDBRANCH   1  14
BRANCH   3  21
ATOM     21  C   UNL     1      37.477   1.388  13.383  0.00  0.00    +0.000 C 
ATOM     22  O   UNL     1      37.050   2.116  12.448  0.00  0.00    +0.000 OA
ATOM     23  N   UNL     1      38.168   0.204  13.108  0.00  0.00    +0.000 NA
BRANCH  23  24
ATOM     24  N   UNL     1      38.403  -0.200  11.799  0.00  0.00    +0.000 NA
ATOM     25  C   UNL     1      39.562  -0.662  11.499  0.00  0.00    +0.000 C 
BRANCH  25  26
ATOM     26  C   UNL     1      40.572  -0.737  12.544  0.00  0.00    +0.000 A 
ATOM     27  C   UNL     1      40.653  -1.907  13.253  0.00  0.00    +0.000 A 
ATOM     28  C   UNL     1      41.573  -2.056  14.248  0.00  0.00    +0.000 A 
ATOM     29  C   UNL     1      42.424  -1.032  14.544  0.00  0.00    +0.000 A 
ATOM     30  C   UNL     1      42.312   0.142  13.802  0.00  0.00    +0.000 A 
ATOM     31  N   UNL     1      41.402   0.271  12.828  0.00  0.00    +0.000 NA
ENDBRANCH  25  26
ENDBRANCH  23  24
ENDBRANCH   3  21
TORSDOF 6
ENDMDL
