MODEL 1
REMARK VINA RESULT:      -7.5      0.000      0.000
REMARK  Name = 
REMARK  8 active torsions:
REMARK  status: ('A' for Active; 'I' for Inactive)
REMARK    1  A    between atoms: C_3  and  C_4
REMARK    2  A    between atoms: N_6  and  C_7
REMARK    3  A    between atoms: C_7  and  C_9
REMARK    4  A    between atoms: C_14  and  O_15
REMARK    5  A    between atoms: O_15  and  C_16
REMARK    6  A    between atoms: C_16  and  C_17
REMARK    7  A    between atoms: N_26  and  C_27
REMARK    8  A    between atoms: C_27  and  C_28
REMARK                            x       y       z     vdW  Elec       q    Type
REMARK                         _______ _______ _______ _____ _____    ______ ____
ROOT
ATOM      1  C   UNL     1      40.099   3.665  13.916  0.00  0.00    +0.000 C 
ATOM      2  C   UNL     1      38.938   3.064  14.589  0.00  0.00    +0.000 A 
ATOM      3  C   UNL     1      38.616   1.704  14.561  0.00  0.00    +0.000 A 
ATOM      4  C   UNL     1      37.470   1.543  15.301  0.00  0.00    +0.000 A 
ATOM      5  C   UNL     1      36.687   0.492  15.623  0.00  0.00    +0.000 A 
ATOM      6  C   UNL     1      35.532   0.557  16.392  0.00  0.00    +0.000 A 
ATOM      7  C   UNL     1      35.206   1.867  16.849  0.00  0.00    +0.000 A 
ATOM      8  C   UNL     1      35.967   2.933  16.546  0.00  0.00    +0.000 A 
ATOM      9  C   UNL     1      37.093   2.798  15.782  0.00  0.00    +0.000 A 
ATOM     10  N   UNL     1      38.004   3.682  15.329  0.00  0.00    +0.000 N 
ENDROOT
BRANCH   3  11
ATOM     11  C   UNL     1      39.356   0.660  13.861  0.00  0.00    +0.000 C 
ATOM     12  O   UNL     1      39.280   0.656  12.605  0.00  0.00    +0.000 OA
ATOM     13  N   UNL     1      40.132  -0.317  14.537  0.00  0.00    +0.000 NA
BRANCH  13  14
ATOM     14  C   UNL     1      40.808  -1.288  13.498  0.00  0.00    +0.000 C 
ATOM     15  C   UNL     1      42.231  -1.358  14.392  0.00  0.00    +0.000 C 
BRANCH  14  16
ATOM     16  C   UNL     1      40.255  -2.697  14.157  0.00  0.00    +0.000 C 
ATOM     17  C   UNL     1      38.902  -2.777  13.420  0.00  0.00    +0.000 C 
ATOM     18  C   UNL     1      39.884  -2.423  15.571  0.00  0.00    +0.000 C 
ENDBRANCH  14  16
ENDBRANCH  13  14
ENDBRANCH   3  11
BRANCH   6  19
ATOM     19  O   UNL     1      34.811  -0.442  16.683  0.00  0.00    +0.000 OA
BRANCH  19  20
ATOM     20  C   UNL     1      34.350  -1.591  17.018  0.00  0.00    +0.000 C 
BRANCH  20  21
ATOM     21  C   UNL     1      35.109  -2.728  16.476  0.00  0.00    +0.000 A 
ATOM     22  C   UNL     1      36.259  -3.150  17.134  0.00  0.00    +0.000 A 
ATOM     23  C   UNL     1      36.987  -4.203  16.633  0.00  0.00    +0.000 A 
ATOM     24  C   UNL     1      36.597  -4.841  15.504  0.00  0.00    +0.000 A 
ATOM     25  C   UNL     1      35.445  -4.425  14.837  0.00  0.00    +0.000 A 
ATOM     26  C   UNL     1      34.730  -3.370  15.350  0.00  0.00    +0.000 A 
ENDBRANCH  20  21
ENDBRANCH  19  20
ENDBRANCH   6  19
BRANCH  10  27
ATOM     27  C   UNL     1      37.937   5.092  15.645  0.00  0.00    +0.000 C 
BRANCH  27  28
ATOM     28  C   UNL     1      38.816   5.401  16.808  0.00  0.00    +0.000 A 
ATOM     29  C   UNL     1      38.599   5.151  18.133  0.00  0.00    +0.000 A 
ATOM     30  C   UNL     1      39.695   5.621  18.815  0.00  0.00    +0.000 A 
ATOM     31  C   UNL     1      40.568   6.157  17.858  0.00  0.00    +0.000 A 
ATOM     32  O   UNL     1      39.974   5.988  16.707  0.00  0.00    +0.000 OA
ENDBRANCH  27  28
ENDBRANCH  10  27
TORSDOF 8
ENDMDL
MODEL 2
REMARK VINA RESULT:      -7.0      2.315      7.499
REMARK  Name = 
REMARK  8 active torsions:
REMARK  status: ('A' for Active; 'I' for Inactive)
REMARK    1  A    between atoms: C_3  and  C_4
REMARK    2  A    between atoms: N_6  and  C_7
REMARK    3  A    between atoms: C_7  and  C_9
REMARK    4  A    between atoms: C_14  and  O_15
REMARK    5  A    between atoms: O_15  and  C_16
REMARK    6  A    between atoms: C_16  and  C_17
REMARK    7  A    between atoms: N_26  and  C_27
REMARK    8  A    between atoms: C_27  and  C_28
REMARK                            x       y       z     vdW  Elec       q    Type
REMARK                         _______ _______ _______ _____ _____    ______ ____
ROOT
ATOM      1  C   UNL     1      40.528  -3.004  14.230  0.00  0.00    +0.000 C 
ATOM      2  C   UNL     1      40.483  -1.538  14.128  0.00  0.00    +0.000 A 
ATOM      3  C   UNL     1      39.505  -0.727  14.714  0.00  0.00    +0.000 A 
ATOM      4  C   UNL     1      39.809   0.573  14.389  0.00  0.00    +0.000 A 
ATOM      5  C   UNL     1      39.244   1.772  14.645  0.00  0.00    +0.000 A 
ATOM      6  C   UNL     1      39.721   2.996  14.192  0.00  0.00    +0.000 A 
ATOM      7  C   UNL     1      40.904   2.908  13.403  0.00  0.00    +0.000 A 
ATOM      8  C   UNL     1      41.490   1.729  13.132  0.00  0.00    +0.000 A 
ATOM      9  C   UNL     1      40.967   0.559  13.610  0.00  0.00    +0.000 A 
ATOM     10  N   UNL     1      41.337  -0.731  13.478  0.00  0.00    +0.000 N 
ENDROOT
BRANCH   3  11
ATOM     11  C   UNL     1      38.371  -1.186  15.507  0.00  0.00    +0.000 C 
ATOM     12  O   UNL     1      37.435  -1.751  14.885  0.00  0.00    +0.000 OA
ATOM     13  N   UNL     1      38.299  -1.017  16.914  0.00  0.00    +0.000 NA
BRANCH  13  14
ATOM     14  C   UNL     1      36.957  -1.628  17.466  0.00  0.00    +0.000 C 
ATOM     15  C   UNL     1      37.559  -1.697  19.036  0.00  0.00    +0.000 C 
BRANCH  14  16
ATOM     16  C   UNL     1      36.194  -0.193  17.761  0.00  0.00    +0.000 C 
ATOM     17  C   UNL     1      35.754  -0.464  19.215  0.00  0.00    +0.000 C 
ATOM     18  C   UNL     1      34.922  -0.189  16.989  0.00  0.00    +0.000 C 
ENDBRANCH  14  16
ENDBRANCH  13  14
ENDBRANCH   3  11
BRANCH   6  19
ATOM     19  O   UNL     1      39.176   4.111  14.444  0.00  0.00    +0.000 OA
BRANCH  19  20
ATOM     20  C   UNL     1      38.708   5.175  14.985  0.00  0.00    +0.000 C 
BRANCH  20  21
ATOM     21  C   UNL     1      39.258   5.468  16.317  0.00  0.00    +0.000 A 
ATOM     22  C   UNL     1      38.521   5.127  17.445  0.00  0.00    +0.000 A 
ATOM     23  C   UNL     1      39.017   5.406  18.696  0.00  0.00    +0.000 A 
ATOM     24  C   UNL     1      40.219   6.008  18.848  0.00  0.00    +0.000 A 
ATOM     25  C   UNL     1      40.967   6.354  17.722  0.00  0.00    +0.000 A 
ATOM     26  C   UNL     1      40.457   6.070  16.479  0.00  0.00    +0.000 A 
ENDBRANCH  20  21
ENDBRANCH  19  20
ENDBRANCH   6  19
BRANCH  10  27
ATOM     27  C   UNL     1      42.513  -1.126  12.737  0.00  0.00    +0.000 C 
BRANCH  27  28
ATOM     28  C   UNL     1      43.656  -1.352  13.666  0.00  0.00    +0.000 A 
ATOM     29  C   UNL     1      44.124  -0.536  14.657  0.00  0.00    +0.000 A 
ATOM     30  C   UNL     1      45.192  -1.179  15.234  0.00  0.00    +0.000 A 
ATOM     31  C   UNL     1      45.344  -2.398  14.558  0.00  0.00    +0.000 A 
ATOM     32  O   UNL     1      44.403  -2.418  13.654  0.00  0.00    +0.000 OA
ENDBRANCH  27  28
ENDBRANCH  10  27
TORSDOF 8
ENDMDL
MODEL 3
REMARK VINA RESULT:      -7.0      2.272      7.959
REMARK  Name = 
REMARK  8 active torsions:
REMARK  status: ('A' for Active; 'I' for Inactive)
REMARK    1  A    between atoms: C_3  and  C_4
REMARK    2  A    between atoms: N_6  and  C_7
REMARK    3  A    between atoms: C_7  and  C_9
REMARK    4  A    between atoms: C_14  and  O_15
REMARK    5  A    between atoms: O_15  and  C_16
REMARK    6  A    between atoms: C_16  and  C_17
REMARK    7  A    between atoms: N_26  and  C_27
REMARK    8  A    between atoms: C_27  and  C_28
REMARK                            x       y       z     vdW  Elec       q    Type
REMARK                         _______ _______ _______ _____ _____    ______ ____
ROOT
ATOM      1  C   UNL     1      35.505   0.132  16.429  0.00  0.00    +0.000 C 
ATOM      2  C   UNL     1      36.792  -0.500  16.105  0.00  0.00    +0.000 A 
ATOM      3  C   UNL     1      37.810   0.102  15.358  0.00  0.00    +0.000 A 
ATOM      4  C   UNL     1      38.841  -0.803  15.275  0.00  0.00    +0.000 A 
ATOM      5  C   UNL     1      40.056  -0.806  14.688  0.00  0.00    +0.000 A 
ATOM      6  C   UNL     1      40.958  -1.863  14.716  0.00  0.00    +0.000 A 
ATOM      7  C   UNL     1      40.503  -3.002  15.441  0.00  0.00    +0.000 A 
ATOM      8  C   UNL     1      39.297  -3.029  16.037  0.00  0.00    +0.000 A 
ATOM      9  C   UNL     1      38.457  -1.952  15.969  0.00  0.00    +0.000 A 
ATOM     10  N   UNL     1      37.219  -1.725  16.451  0.00  0.00    +0.000 N 
ENDROOT
BRANCH   3  11
ATOM     11  C   UNL     1      37.770   1.434  14.768  0.00  0.00    +0.000 C 
ATOM     12  O   UNL     1      37.663   1.498  13.516  0.00  0.00    +0.000 OA
ATOM     13  N   UNL     1      37.846   2.621  15.543  0.00  0.00    +0.000 NA
BRANCH  13  14
ATOM     14  C   UNL     1      37.766   3.885  14.609  0.00  0.00    +0.000 C 
ATOM     15  C   UNL     1      36.125   4.088  14.916  0.00  0.00    +0.000 C 
BRANCH  14  16
ATOM     16  C   UNL     1      38.177   5.002  15.754  0.00  0.00    +0.000 C 
ATOM     17  C   UNL     1      39.698   5.045  15.493  0.00  0.00    +0.000 C 
ATOM     18  C   UNL     1      38.054   4.352  17.087  0.00  0.00    +0.000 C 
ENDBRANCH  14  16
ENDBRANCH  13  14
ENDBRANCH   3  11
BRANCH   6  19
ATOM     19  O   UNL     1      42.095  -1.846  14.159  0.00  0.00    +0.000 OA
BRANCH  19  20
ATOM     20  C   UNL     1      43.291  -1.586  13.775  0.00  0.00    +0.000 C 
BRANCH  20  21
ATOM     21  C   UNL     1      44.266  -1.475  14.869  0.00  0.00    +0.000 A 
ATOM     22  C   UNL     1      44.520  -0.227  15.427  0.00  0.00    +0.000 A 
ATOM     23  C   UNL     1      45.439  -0.105  16.442  0.00  0.00    +0.000 A 
ATOM     24  C   UNL     1      46.101  -1.188  16.912  0.00  0.00    +0.000 A 
ATOM     25  C   UNL     1      45.853  -2.445  16.359  0.00  0.00    +0.000 A 
ATOM     26  C   UNL     1      44.933  -2.549  15.345  0.00  0.00    +0.000 A 
ENDBRANCH  20  21
ENDBRANCH  19  20
ENDBRANCH   6  19
BRANCH  10  27
ATOM     27  C   UNL     1      36.505  -2.703  17.241  0.00  0.00    +0.000 C 
BRANCH  27  28
ATOM     28  C   UNL     1      35.749  -3.630  16.352  0.00  0.00    +0.000 A 
ATOM     29  C   UNL     1      34.773  -3.334  15.442  0.00  0.00    +0.000 A 
ATOM     30  C   UNL     1      34.384  -4.521  14.872  0.00  0.00    +0.000 A 
ATOM     31  C   UNL     1      35.155  -5.529  15.468  0.00  0.00    +0.000 A 
ATOM     32  O   UNL     1      35.929  -4.919  16.325  0.00  0.00    +0.000 OA
ENDBRANCH  27  28
ENDBRANCH  10  27
TORSDOF 8
ENDMDL
MODEL 4
REMARK VINA RESULT:      -6.9      2.012      6.805
REMARK  Name = 
REMARK  8 active torsions:
REMARK  status: ('A' for Active; 'I' for Inactive)
REMARK    1  A    between atoms: C_3  and  C_4
REMARK    2  A    between atoms: N_6  and  C_7
REMARK    3  A    between atoms: C_7  and  C_9
REMARK    4  A    between atoms: C_14  and  O_15
REMARK    5  A    between atoms: O_15  and  C_16
REMARK    6  A    between atoms: C_16  and  C_17
REMARK    7  A    between atoms: N_26  and  C_27
REMARK    8  A    between atoms: C_27  and  C_28
REMARK                            x       y       z     vdW  Elec       q    Type
REMARK                         _______ _______ _______ _____ _____    ______ ____
ROOT
ATOM      1  C   UNL     1      37.302  -1.070  13.684  0.00  0.00    +0.000 C 
ATOM      2  C   UNL     1      37.571   0.257  14.256  0.00  0.00    +0.000 A 
ATOM      3  C   UNL     1      38.689   1.042  13.958  0.00  0.00    +0.000 A 
ATOM      4  C   UNL     1      38.578   2.200  14.690  0.00  0.00    +0.000 A 
ATOM      5  C   UNL     1      39.334   3.309  14.833  0.00  0.00    +0.000 A 
ATOM      6  C   UNL     1      39.034   4.383  15.662  0.00  0.00    +0.000 A 
ATOM      7  C   UNL     1      37.817   4.240  16.388  0.00  0.00    +0.000 A 
ATOM      8  C   UNL     1      37.041   3.148  16.266  0.00  0.00    +0.000 A 
ATOM      9  C   UNL     1      37.397   2.125  15.431  0.00  0.00    +0.000 A 
ATOM     10  N   UNL     1      36.824   0.941  15.139  0.00  0.00    +0.000 N 
ENDROOT
BRANCH   3  11
ATOM     11  C   UNL     1      39.773   0.685  13.051  0.00  0.00    +0.000 C 
ATOM     12  O   UNL     1      39.699   1.128  11.876  0.00  0.00    +0.000 OA
ATOM     13  N   UNL     1      40.872  -0.122  13.447  0.00  0.00    +0.000 NA
BRANCH  13  14
ATOM     14  C   UNL     1      41.867  -0.312  12.242  0.00  0.00    +0.000 C 
ATOM     15  C   UNL     1      43.044   0.636  12.981  0.00  0.00    +0.000 C 
BRANCH  14  16
ATOM     16  C   UNL     1      42.568  -1.706  12.783  0.00  0.00    +0.000 C 
ATOM     17  C   UNL     1      41.463  -2.695  12.357  0.00  0.00    +0.000 C 
ATOM     18  C   UNL     1      42.499  -1.701  14.270  0.00  0.00    +0.000 C 
ENDBRANCH  14  16
ENDBRANCH  13  14
ENDBRANCH   3  11
BRANCH   6  19
ATOM     19  O   UNL     1      39.758   5.415  15.782  0.00  0.00    +0.000 OA
BRANCH  19  20
ATOM     20  C   UNL     1      40.334   6.495  16.165  0.00  0.00    +0.000 C 
BRANCH  20  21
ATOM     21  C   UNL     1      40.763   6.486  17.571  0.00  0.00    +0.000 A 
ATOM     22  C   UNL     1      42.121   6.541  17.865  0.00  0.00    +0.000 A 
ATOM     23  C   UNL     1      42.538   6.521  19.175  0.00  0.00    +0.000 A 
ATOM     24  C   UNL     1      41.643   6.451  20.188  0.00  0.00    +0.000 A 
ATOM     25  C   UNL     1      40.278   6.395  19.902  0.00  0.00    +0.000 A 
ATOM     26  C   UNL     1      39.878   6.415  18.589  0.00  0.00    +0.000 A 
ENDBRANCH  20  21
ENDBRANCH  19  20
ENDBRANCH   6  19
BRANCH  10  27
ATOM     27  C   UNL     1      35.568   0.525  15.720  0.00  0.00    +0.000 C 
BRANCH  27  28
ATOM     28  C   UNL     1      35.802  -0.139  17.033  0.00  0.00    +0.000 A 
ATOM     29  C   UNL     1      35.559   0.342  18.288  0.00  0.00    +0.000 A 
ATOM     30  C   UNL     1      35.939  -0.638  19.173  0.00  0.00    +0.000 A 
ATOM     31  C   UNL     1      36.414  -1.713  18.408  0.00  0.00    +0.000 A 
ATOM     32  O   UNL     1      36.298  -1.336  17.163  0.00  0.00    +0.000 OA
ENDBRANCH  27  28
ENDBRANCH  10  27
TORSDOF 8
ENDMDL
MODEL 5
REMARK VINA RESULT:      -6.8      1.509      2.461
REMARK  Name = 
REMARK  8 active torsions:
REMARK  status: ('A' for Active; 'I' for Inactive)
REMARK    1  A    between atoms: C_3  and  C_4
REMARK    2  A    between atoms: N_6  and  C_7
REMARK    3  A    between atoms: C_7  and  C_9
REMARK    4  A    between atoms: C_14  and  O_15
REMARK    5  A    between atoms: O_15  and  C_16
REMARK    6  A    between atoms: C_16  and  C_17
REMARK    7  A    between atoms: N_26  and  C_27
REMARK    8  A    between atoms: C_27  and  C_28
REMARK                            x       y       z     vdW  Elec       q    Type
REMARK                         _______ _______ _______ _____ _____    ______ ____
ROOT
ATOM      1  C   UNL     1      39.573   3.677  13.592  0.00  0.00    +0.000 C 
ATOM      2  C   UNL     1      38.500   3.033  14.364  0.00  0.00    +0.000 A 
ATOM      3  C   UNL     1      38.303   1.652  14.456  0.00  0.00    +0.000 A 
ATOM      4  C   UNL     1      37.207   1.451  15.260  0.00  0.00    +0.000 A 
ATOM      5  C   UNL     1      36.537   0.365  15.699  0.00  0.00    +0.000 A 
ATOM      6  C   UNL     1      35.412   0.391  16.514  0.00  0.00    +0.000 A 
ATOM      7  C   UNL     1      34.986   1.700  16.882  0.00  0.00    +0.000 A 
ATOM      8  C   UNL     1      35.633   2.801  16.462  0.00  0.00    +0.000 A 
ATOM      9  C   UNL     1      36.736   2.704  15.659  0.00  0.00    +0.000 A 
ATOM     10  N   UNL     1      37.543   3.625  15.097  0.00  0.00    +0.000 N 
ENDROOT
BRANCH   3  11
ATOM     11  C   UNL     1      39.107   0.623  13.806  0.00  0.00    +0.000 C 
ATOM     12  O   UNL     1      39.073   0.587  12.549  0.00  0.00    +0.000 OA
ATOM     13  N   UNL     1      39.899  -0.305  14.530  0.00  0.00    +0.000 NA
BRANCH  13  14
ATOM     14  C   UNL     1      40.648  -1.270  13.537  0.00  0.00    +0.000 C 
ATOM     15  C   UNL     1      42.052  -1.239  14.462  0.00  0.00    +0.000 C 
BRANCH  14  16
ATOM     16  C   UNL     1      40.155  -2.686  14.229  0.00  0.00    +0.000 C 
ATOM     17  C   UNL     1      38.778  -2.807  13.542  0.00  0.00    +0.000 C 
ATOM     18  C   UNL     1      39.827  -2.405  15.654  0.00  0.00    +0.000 C 
ENDBRANCH  14  16
ENDBRANCH  13  14
ENDBRANCH   3  11
BRANCH   6  19
ATOM     19  O   UNL     1      34.797  -0.641  16.915  0.00  0.00    +0.000 OA
BRANCH  19  20
ATOM     20  C   UNL     1      34.190  -1.765  17.025  0.00  0.00    +0.000 C 
BRANCH  20  21
ATOM     21  C   UNL     1      34.903  -2.899  16.421  0.00  0.00    +0.000 A 
ATOM     22  C   UNL     1      34.296  -3.611  15.392  0.00  0.00    +0.000 A 
ATOM     23  C   UNL     1      34.945  -4.682  14.826  0.00  0.00    +0.000 A 
ATOM     24  C   UNL     1      36.173  -5.055  15.255  0.00  0.00    +0.000 A 
ATOM     25  C   UNL     1      36.790  -4.348  16.287  0.00  0.00    +0.000 A 
ATOM     26  C   UNL     1      36.128  -3.281  16.843  0.00  0.00    +0.000 A 
ENDBRANCH  20  21
ENDBRANCH  19  20
ENDBRANCH   6  19
BRANCH  10  27
ATOM     27  C   UNL     1      37.360   5.044  15.304  0.00  0.00    +0.000 C 
BRANCH  27  28
ATOM     28  C   UNL     1      36.687   5.655  14.123  0.00  0.00    +0.000 A 
ATOM     29  C   UNL     1      35.460   5.366  13.596  0.00  0.00    +0.000 A 
ATOM     30  C   UNL     1      35.285   6.194  12.513  0.00  0.00    +0.000 A 
ATOM     31  C   UNL     1      36.442   6.980  12.413  0.00  0.00    +0.000 A 
ATOM     32  O   UNL     1      37.212   6.598  13.395  0.00  0.00    +0.000 OA
ENDBRANCH  27  28
ENDBRANCH  10  27
TORSDOF 8
ENDMDL
MODEL 6
REMARK VINA RESULT:      -6.7      2.305      7.734
REMARK  Name = 
REMARK  8 active torsions:
REMARK  status: ('A' for Active; 'I' for Inactive)
REMARK    1  A    between atoms: C_3  and  C_4
REMARK    2  A    between atoms: N_6  and  C_7
REMARK    3  A    between atoms: C_7  and  C_9
REMARK    4  A    between atoms: C_14  and  O_15
REMARK    5  A    between atoms: O_15  and  C_16
REMARK    6  A    between atoms: C_16  and  C_17
REMARK    7  A    between atoms: N_26  and  C_27
REMARK    8  A    between atoms: C_27  and  C_28
REMARK                            x       y       z     vdW  Elec       q    Type
REMARK                         _______ _______ _______ _____ _____    ______ ____
ROOT
ATOM      1  C   UNL     1      40.278  -2.946  14.111  0.00  0.00    +0.000 C 
ATOM      2  C   UNL     1      40.247  -1.478  14.034  0.00  0.00    +0.000 A 
ATOM      3  C   UNL     1      39.313  -0.666  14.686  0.00  0.00    +0.000 A 
ATOM      4  C   UNL     1      39.616   0.636  14.366  0.00  0.00    +0.000 A 
ATOM      5  C   UNL     1      39.082   1.837  14.671  0.00  0.00    +0.000 A 
ATOM      6  C   UNL     1      39.550   3.063  14.212  0.00  0.00    +0.000 A 
ATOM      7  C   UNL     1      40.687   2.974  13.358  0.00  0.00    +0.000 A 
ATOM      8  C   UNL     1      41.241   1.791  13.037  0.00  0.00    +0.000 A 
ATOM      9  C   UNL     1      40.730   0.620  13.523  0.00  0.00    +0.000 A 
ATOM     10  N   UNL     1      41.074  -0.671  13.352  0.00  0.00    +0.000 N 
ENDROOT
BRANCH   3  11
ATOM     11  C   UNL     1      38.218  -1.123  15.533  0.00  0.00    +0.000 C 
ATOM     12  O   UNL     1      37.233  -1.647  14.951  0.00  0.00    +0.000 OA
ATOM     13  N   UNL     1      38.236  -0.998  16.946  0.00  0.00    +0.000 NA
BRANCH  13  14
ATOM     14  C   UNL     1      36.915  -1.595  17.560  0.00  0.00    +0.000 C 
ATOM     15  C   UNL     1      37.535  -1.530  19.122  0.00  0.00    +0.000 C 
BRANCH  14  16
ATOM     16  C   UNL     1      36.121  -0.160  17.754  0.00  0.00    +0.000 C 
ATOM     17  C   UNL     1      35.782  -0.289  19.254  0.00  0.00    +0.000 C 
ATOM     18  C   UNL     1      34.804  -0.274  17.071  0.00  0.00    +0.000 C 
ENDBRANCH  14  16
ENDBRANCH  13  14
ENDBRANCH   3  11
BRANCH   6  19
ATOM     19  O   UNL     1      39.034   4.180  14.511  0.00  0.00    +0.000 OA
BRANCH  19  20
ATOM     20  C   UNL     1      38.739   5.321  15.018  0.00  0.00    +0.000 C 
BRANCH  20  21
ATOM     21  C   UNL     1      39.305   5.553  16.355  0.00  0.00    +0.000 A 
ATOM     22  C   UNL     1      38.592   5.139  17.474  0.00  0.00    +0.000 A 
ATOM     23  C   UNL     1      39.102   5.360  18.731  0.00  0.00    +0.000 A 
ATOM     24  C   UNL     1      40.296   5.975  18.897  0.00  0.00    +0.000 A 
ATOM     25  C   UNL     1      41.020   6.394  17.780  0.00  0.00    +0.000 A 
ATOM     26  C   UNL     1      40.496   6.167  16.532  0.00  0.00    +0.000 A 
ENDBRANCH  20  21
ENDBRANCH  19  20
ENDBRANCH   6  19
BRANCH  10  27
ATOM     27  C   UNL     1      42.203  -1.069  12.541  0.00  0.00    +0.000 C 
BRANCH  27  28
ATOM     28  C   UNL     1      41.793  -1.196  11.114  0.00  0.00    +0.000 A 
ATOM     29  C   UNL     1      40.864  -2.034  10.564  0.00  0.00    +0.000 A 
ATOM     30  C   UNL     1      40.844  -1.778   9.214  0.00  0.00    +0.000 A 
ATOM     31  C   UNL     1      41.785  -0.767   8.979  0.00  0.00    +0.000 A 
ATOM     32  O   UNL     1      42.297  -0.484  10.147  0.00  0.00    +0.000 OA
ENDBRANCH  27  28
ENDBRANCH  10  27
TORSDOF 8
ENDMDL
MODEL 7
REMARK VINA RESULT:      -6.7      2.406      6.390
REMARK  Name = 
REMARK  8 active torsions:
REMARK  status: ('A' for Active; 'I' for Inactive)
REMARK    1  A    between atoms: C_3  and  C_4
REMARK    2  A    between atoms: N_6  and  C_7
REMARK    3  A    between atoms: C_7  and  C_9
REMARK    4  A    between atoms: C_14  and  O_15
REMARK    5  A    between atoms: O_15  and  C_16
REMARK    6  A    between atoms: C_16  and  C_17
REMARK    7  A    between atoms: N_26  and  C_27
REMARK    8  A    between atoms: C_27  and  C_28
REMARK                            x       y       z     vdW  Elec       q    Type
REMARK                         _______ _______ _______ _____ _____    ______ ____
ROOT
ATOM      1  C   UNL     1      41.012   2.493  12.362  0.00  0.00    +0.000 C 
ATOM      2  C   UNL     1      40.766   1.254  13.114  0.00  0.00    +0.000 A 
ATOM      3  C   UNL     1      39.824   1.117  14.138  0.00  0.00    +0.000 A 
ATOM      4  C   UNL     1      39.897  -0.180  14.586  0.00  0.00    +0.000 A 
ATOM      5  C   UNL     1      39.266  -0.892  15.542  0.00  0.00    +0.000 A 
ATOM      6  C   UNL     1      39.513  -2.225  15.847  0.00  0.00    +0.000 A 
ATOM      7  C   UNL     1      40.525  -2.830  15.046  0.00  0.00    +0.000 A 
ATOM      8  C   UNL     1      41.171  -2.147  14.085  0.00  0.00    +0.000 A 
ATOM      9  C   UNL     1      40.878  -0.835  13.837  0.00  0.00    +0.000 A 
ATOM     10  N   UNL     1      41.373   0.066  12.965  0.00  0.00    +0.000 N 
ENDROOT
BRANCH   3  11
ATOM     11  C   UNL     1      38.943   2.164  14.642  0.00  0.00    +0.000 C 
ATOM     12  O   UNL     1      39.490   3.237  15.009  0.00  0.00    +0.000 OA
ATOM     13  N   UNL     1      37.535   2.010  14.725  0.00  0.00    +0.000 NA
BRANCH  13  14
ATOM     14  C   UNL     1      36.879   3.321  15.299  0.00  0.00    +0.000 C 
ATOM     15  C   UNL     1      36.060   3.618  13.860  0.00  0.00    +0.000 C 
BRANCH  14  16
ATOM     16  C   UNL     1      35.554   2.599  15.971  0.00  0.00    +0.000 C 
ATOM     17  C   UNL     1      35.651   1.235  15.256  0.00  0.00    +0.000 C 
ATOM     18  C   UNL     1      34.344   3.234  15.382  0.00  0.00    +0.000 C 
ENDBRANCH  14  16
ENDBRANCH  13  14
ENDBRANCH   3  11
BRANCH   6  19
ATOM     19  O   UNL     1      38.908  -2.875  16.749  0.00  0.00    +0.000 OA
BRANCH  19  20
ATOM     20  C   UNL     1      38.083  -3.317  17.626  0.00  0.00    +0.000 C 
BRANCH  20  21
ATOM     21  C   UNL     1      36.917  -2.451  17.849  0.00  0.00    +0.000 A 
ATOM     22  C   UNL     1      35.773  -2.643  17.083  0.00  0.00    +0.000 A 
ATOM     23  C   UNL     1      34.678  -1.833  17.272  0.00  0.00    +0.000 A 
ATOM     24  C   UNL     1      34.697  -0.847  18.198  0.00  0.00    +0.000 A 
ATOM     25  C   UNL     1      35.840  -0.645  18.972  0.00  0.00    +0.000 A 
ATOM     26  C   UNL     1      36.925  -1.462  18.770  0.00  0.00    +0.000 A 
ENDBRANCH  20  21
ENDBRANCH  19  20
ENDBRANCH   6  19
BRANCH  10  27
ATOM     27  C   UNL     1      42.408  -0.269  12.013  0.00  0.00    +0.000 C 
BRANCH  27  28
ATOM     28  C   UNL     1      41.839  -1.073  10.895  0.00  0.00    +0.000 A 
ATOM     29  C   UNL     1      40.811  -0.757  10.053  0.00  0.00    +0.000 A 
ATOM     30  C   UNL     1      40.659  -1.817   9.192  0.00  0.00    +0.000 A 
ATOM     31  C   UNL     1      41.624  -2.769   9.546  0.00  0.00    +0.000 A 
ATOM     32  O   UNL     1      42.273  -2.253  10.555  0.00  0.00    +0.000 OA
ENDBRANCH  27  28
ENDBRANCH  10  27
TORSDOF 8
ENDMDL
MODEL 8
REMARK VINA RESULT:      -6.7     25.284     28.387
REMARK  Name = 
REMARK  8 active torsions:
REMARK  status: ('A' for Active; 'I' for Inactive)
REMARK    1  A    between atoms: C_3  and  C_4
REMARK    2  A    between atoms: N_6  and  C_7
REMARK    3  A    between atoms: C_7  and  C_9
REMARK    4  A    between atoms: C_14  and  O_15
REMARK    5  A    between atoms: O_15  and  C_16
REMARK    6  A    between atoms: C_16  and  C_17
REMARK    7  A    between atoms: N_26  and  C_27
REMARK    8  A    between atoms: C_27  and  C_28
REMARK                            x       y       z     vdW  Elec       q    Type
REMARK                         _______ _______ _______ _____ _____    ______ ____
ROOT
ATOM      1  C   UNL     1      28.622  17.021  35.395  0.00  0.00    +0.000 C 
ATOM      2  C   UNL     1      27.765  16.394  36.412  0.00  0.00    +0.000 A 
ATOM      3  C   UNL     1      28.234  15.676  37.517  0.00  0.00    +0.000 A 
ATOM      4  C   UNL     1      27.133  15.252  38.222  0.00  0.00    +0.000 A 
ATOM      5  C   UNL     1      26.946  14.525  39.343  0.00  0.00    +0.000 A 
ATOM      6  C   UNL     1      25.711  14.190  39.886  0.00  0.00    +0.000 A 
ATOM      7  C   UNL     1      24.595  14.688  39.153  0.00  0.00    +0.000 A 
ATOM      8  C   UNL     1      24.750  15.417  38.033  0.00  0.00    +0.000 A 
ATOM      9  C   UNL     1      25.996  15.710  37.552  0.00  0.00    +0.000 A 
ATOM     10  N   UNL     1      26.424  16.391  36.471  0.00  0.00    +0.000 N 
ENDROOT
BRANCH   3  11
ATOM     11  C   UNL     1      29.631  15.418  37.844  0.00  0.00    +0.000 C 
ATOM     12  O   UNL     1      30.150  16.145  38.730  0.00  0.00    +0.000 OA
ATOM     13  N   UNL     1      30.393  14.402  37.212  0.00  0.00    +0.000 NA
BRANCH  13  14
ATOM     14  C   UNL     1      31.855  14.376  37.796  0.00  0.00    +0.000 C 
ATOM     15  C   UNL     1      31.548  12.977  38.678  0.00  0.00    +0.000 C 
BRANCH  14  16
ATOM     16  C   UNL     1      32.544  13.518  36.565  0.00  0.00    +0.000 C 
ATOM     17  C   UNL     1      31.286  13.323  35.693  0.00  0.00    +0.000 C 
ATOM     18  C   UNL     1      32.848  12.155  37.077  0.00  0.00    +0.000 C 
ENDBRANCH  14  16
ENDBRANCH  13  14
ENDBRANCH   3  11
BRANCH   6  19
ATOM     19  O   UNL     1      25.557  13.506  40.940  0.00  0.00    +0.000 OA
BRANCH  19  20
ATOM     20  C   UNL     1      25.687  12.904  42.065  0.00  0.00    +0.000 C 
BRANCH  20  21
ATOM     21  C   UNL     1      26.138  11.509  41.955  0.00  0.00    +0.000 A 
ATOM     22  C   UNL     1      25.672  10.572  42.870  0.00  0.00    +0.000 A 
ATOM     23  C   UNL     1      26.095   9.266  42.787  0.00  0.00    +0.000 A 
ATOM     24  C   UNL     1      26.961   8.877  41.823  0.00  0.00    +0.000 A 
ATOM     25  C   UNL     1      27.435   9.811  40.901  0.00  0.00    +0.000 A 
ATOM     26  C   UNL     1      27.004  11.111  40.998  0.00  0.00    +0.000 A 
ENDBRANCH  20  21
ENDBRANCH  19  20
ENDBRANCH   6  19
BRANCH  10  27
ATOM     27  C   UNL     1      25.512  17.022  35.544  0.00  0.00    +0.000 C 
BRANCH  27  28
ATOM     28  C   UNL     1      25.355  16.183  34.323  0.00  0.00    +0.000 A 
ATOM     29  C   UNL     1      25.048  16.576  33.051  0.00  0.00    +0.000 A 
ATOM     30  C   UNL     1      25.017  15.441  32.278  0.00  0.00    +0.000 A 
ATOM     31  C   UNL     1      25.313  14.365  33.126  0.00  0.00    +0.000 A 
ATOM     32  O   UNL     1      25.497  14.889  34.307  0.00  0.00    +0.000 OA
ENDBRANCH  27  28
ENDBRANCH  10  27
TORSDOF 8
ENDMDL
MODEL 9
REMARK VINA RESULT:      -6.7     22.768     26.545
REMARK  Name = 
REMARK  8 active torsions:
REMARK  status: ('A' for Active; 'I' for Inactive)
REMARK    1  A    between atoms: C_3  and  C_4
REMARK    2  A    between atoms: N_6  and  C_7
REMARK    3  A    between atoms: C_7  and  C_9
REMARK    4  A    between atoms: C_14  and  O_15
REMARK    5  A    between atoms: O_15  and  C_16
REMARK    6  A    between atoms: C_16  and  C_17
REMARK    7  A    between atoms: N_26  and  C_27
REMARK    8  A    between atoms: C_27  and  C_28
REMARK                            x       y       z     vdW  Elec       q    Type
REMARK                         _______ _______ _______ _____ _____    ______ ____
ROOT
ATOM      1  C   UNL     1      10.562  -1.025  27.715  0.00  0.00    +0.000 C 
ATOM      2  C   UNL     1      11.979  -0.774  27.413  0.00  0.00    +0.000 A 
ATOM      3  C   UNL     1      12.806  -1.642  26.693  0.00  0.00    +0.000 A 
ATOM      4  C   UNL     1      14.048  -1.056  26.627  0.00  0.00    +0.000 A 
ATOM      5  C   UNL     1      15.235  -1.407  26.089  0.00  0.00    +0.000 A 
ATOM      6  C   UNL     1      16.400  -0.652  26.155  0.00  0.00    +0.000 A 
ATOM      7  C   UNL     1      16.260   0.580  26.858  0.00  0.00    +0.000 A 
ATOM      8  C   UNL     1      15.090   0.957  27.403  0.00  0.00    +0.000 A 
ATOM      9  C   UNL     1      13.980   0.164  27.302  0.00  0.00    +0.000 A 
ATOM     10  N   UNL     1      12.719   0.292  27.758  0.00  0.00    +0.000 N 
ENDROOT
BRANCH   3  11
ATOM     11  C   UNL     1      12.420  -2.931  26.133  0.00  0.00    +0.000 C 
ATOM     12  O   UNL     1      12.843  -3.957  26.726  0.00  0.00    +0.000 OA
ATOM     13  N   UNL     1      11.606  -3.054  24.977  0.00  0.00    +0.000 NA
BRANCH  13  14
ATOM     14  C   UNL     1      11.366  -4.574  24.641  0.00  0.00    +0.000 C 
ATOM     15  C   UNL     1       9.779  -4.512  25.196  0.00  0.00    +0.000 C 
BRANCH  14  16
ATOM     16  C   UNL     1      10.889  -4.357  23.076  0.00  0.00    +0.000 C 
ATOM     17  C   UNL     1       9.424  -4.821  23.219  0.00  0.00    +0.000 C 
ATOM     18  C   UNL     1      11.530  -5.419  22.254  0.00  0.00    +0.000 C 
ENDBRANCH  14  16
ENDBRANCH  13  14
ENDBRANCH   3  11
BRANCH   6  19
ATOM     19  O   UNL     1      17.505  -0.998  25.643  0.00  0.00    +0.000 OA
BRANCH  19  20
ATOM     20  C   UNL     1      18.684  -1.444  25.410  0.00  0.00    +0.000 C 
BRANCH  20  21
ATOM     21  C   UNL     1      19.394  -0.740  24.332  0.00  0.00    +0.000 A 
ATOM     22  C   UNL     1      19.464   0.649  24.361  0.00  0.00    +0.000 A 
ATOM     23  C   UNL     1      20.113   1.322  23.354  0.00  0.00    +0.000 A 
ATOM     24  C   UNL     1      20.692   0.651  22.331  0.00  0.00    +0.000 A 
ATOM     25  C   UNL     1      20.628  -0.742  22.293  0.00  0.00    +0.000 A 
ATOM     26  C   UNL     1      19.974  -1.400  23.306  0.00  0.00    +0.000 A 
ENDBRANCH  20  21
ENDBRANCH  19  20
ENDBRANCH   6  19
BRANCH  10  27
ATOM     27  C   UNL     1      12.279   1.452  28.500  0.00  0.00    +0.000 C 
BRANCH  27  28
ATOM     28  C   UNL     1      11.862   2.534  27.564  0.00  0.00    +0.000 A 
ATOM     29  C   UNL     1      10.781   2.572  26.729  0.00  0.00    +0.000 A 
ATOM     30  C   UNL     1      10.825   3.776  26.070  0.00  0.00    +0.000 A 
ATOM     31  C   UNL     1      11.961   4.452  26.537  0.00  0.00    +0.000 A 
ATOM     32  O   UNL     1      12.512   3.652  27.410  0.00  0.00    +0.000 OA
ENDBRANCH  27  28
ENDBRANCH  10  27
TORSDOF 8
ENDMDL
MODEL 10
REMARK VINA RESULT:      -6.5      2.261      5.993
REMARK  Name = 
REMARK  8 active torsions:
REMARK  status: ('A' for Active; 'I' for Inactive)
REMARK    1  A    between atoms: C_3  and  C_4
REMARK    2  A    between atoms: N_6  and  C_7
REMARK    3  A    between atoms: C_7  and  C_9
REMARK    4  A    between atoms: C_14  and  O_15
REMARK    5  A    between atoms: O_15  and  C_16
REMARK    6  A    between atoms: C_16  and  C_17
REMARK    7  A    between atoms: N_26  and  C_27
REMARK    8  A    between atoms: C_27  and  C_28
REMARK                            x       y       z     vdW  Elec       q    Type
REMARK                         _______ _______ _______ _____ _____    ______ ____
ROOT
ATOM      1  C   UNL     1      42.051   1.997  12.855  0.00  0.00    +0.000 C 
ATOM      2  C   UNL     1      41.489   0.799  13.496  0.00  0.00    +0.000 A 
ATOM      3  C   UNL     1      40.209   0.720  14.055  0.00  0.00    +0.000 A 
ATOM      4  C   UNL     1      40.062  -0.553  14.550  0.00  0.00    +0.000 A 
ATOM      5  C   UNL     1      39.078  -1.212  15.198  0.00  0.00    +0.000 A 
ATOM      6  C   UNL     1      39.147  -2.529  15.636  0.00  0.00    +0.000 A 
ATOM      7  C   UNL     1      40.381  -3.179  15.344  0.00  0.00    +0.000 A 
ATOM      8  C   UNL     1      41.379  -2.550  14.699  0.00  0.00    +0.000 A 
ATOM      9  C   UNL     1      41.245  -1.250  14.295  0.00  0.00    +0.000 A 
ATOM     10  N   UNL     1      42.074  -0.398  13.660  0.00  0.00    +0.000 N 
ENDROOT
BRANCH   3  11
ATOM     11  C   UNL     1      39.227   1.796  14.110  0.00  0.00    +0.000 C 
ATOM     12  O   UNL     1      38.558   2.007  13.065  0.00  0.00    +0.000 OA
ATOM     13  N   UNL     1      39.014   2.583  15.271  0.00  0.00    +0.000 NA
BRANCH  13  14
ATOM     14  C   UNL     1      37.884   3.647  15.006  0.00  0.00    +0.000 C 
ATOM     15  C   UNL     1      36.968   3.093  16.303  0.00  0.00    +0.000 C 
BRANCH  14  16
ATOM     16  C   UNL     1      38.540   4.861  15.912  0.00  0.00    +0.000 C 
ATOM     17  C   UNL     1      37.640   6.017  15.428  0.00  0.00    +0.000 C 
ATOM     18  C   UNL     1      39.879   5.178  15.346  0.00  0.00    +0.000 C 
ENDBRANCH  14  16
ENDBRANCH  13  14
ENDBRANCH   3  11
BRANCH   6  19
ATOM     19  O   UNL     1      38.212  -3.129  16.243  0.00  0.00    +0.000 OA
BRANCH  19  20
ATOM     20  C   UNL     1      37.216  -3.461  16.980  0.00  0.00    +0.000 C 
BRANCH  20  21
ATOM     21  C   UNL     1      36.520  -2.326  17.602  0.00  0.00    +0.000 A 
ATOM     22  C   UNL     1      37.125  -1.654  18.658  0.00  0.00    +0.000 A 
ATOM     23  C   UNL     1      36.481  -0.598  19.257  0.00  0.00    +0.000 A 
ATOM     24  C   UNL     1      35.260  -0.199  18.832  0.00  0.00    +0.000 A 
ATOM     25  C   UNL     1      34.644  -0.866  17.772  0.00  0.00    +0.000 A 
ATOM     26  C   UNL     1      35.300  -1.919  17.185  0.00  0.00    +0.000 A 
ENDBRANCH  20  21
ENDBRANCH  19  20
ENDBRANCH   6  19
BRANCH  10  27
ATOM     27  C   UNL     1      43.397  -0.786  13.227  0.00  0.00    +0.000 C 
BRANCH  27  28
ATOM     28  C   UNL     1      44.324  -0.848  14.392  0.00  0.00    +0.000 A 
ATOM     29  C   UNL     1      45.015  -1.922  14.876  0.00  0.00    +0.000 A 
ATOM     30  C   UNL     1      45.732  -1.481  15.962  0.00  0.00    +0.000 A 
ATOM     31  C   UNL     1      45.446  -0.117  16.109  0.00  0.00    +0.000 A 
ATOM     32  O   UNL     1      44.611   0.172  15.147  0.00  0.00    +0.000 OA
ENDBRANCH  27  28
ENDBRANCH  10  27
TORSDOF 8
ENDMDL
