MODEL 1
REMARK VINA RESULT:      -5.9      0.000      0.000
REMARK  Name = 
REMARK  4 active torsions:
REMARK  status: ('A' for Active; 'I' for Inactive)
REMARK    1  A    between atoms: C_2  and  C_3
REMARK    2  A    between atoms: C_2  and  C_12
REMARK    3  A    between atoms: C_3  and  C_5
REMARK    4  A    between atoms: C_5  and  C_6
REMARK                            x       y       z     vdW  Elec       q    Type
REMARK                         _______ _______ _______ _____ _____    ______ ____
ROOT
ATOM      1  C   UNL     1      25.689  24.122  24.936  0.00  0.00    +0.000 C 
ATOM      2  C   UNL     1      27.160  24.485  25.489  0.00  0.00    +0.000 C 
ENDROOT
BRANCH   2   3
ATOM      3  C   UNL     1      27.868  24.598  24.107  0.00  0.00    +0.000 A 
ATOM      4  C   UNL     1      27.643  23.677  23.108  0.00  0.00    +0.000 A 
ATOM      5  C   UNL     1      28.260  23.813  21.867  0.00  0.00    +0.000 A 
ATOM      6  C   UNL     1      29.107  24.850  21.582  0.00  0.00    +0.000 A 
ATOM      7  N   UNL     1      29.760  25.016  20.318  0.00  0.00    +0.000 NA
ATOM      8  C   UNL     1      29.336  25.785  22.595  0.00  0.00    +0.000 A 
ATOM      9  C   UNL     1      28.710  25.641  23.841  0.00  0.00    +0.000 A 
ATOM     10 CL   UNL     1      28.957  26.754  25.145  0.00  0.00    +0.000 Cl
ENDBRANCH   2   3
BRANCH   2  11
ATOM     11  C   UNL     1      27.662  23.063  25.937  0.00  0.00    +0.000 C 
ATOM     12  O   UNL     1      26.913  22.127  26.092  0.00  0.00    +0.000 OA
BRANCH  11  13
ATOM     13  C   UNL     1      28.974  22.846  26.168  0.00  0.00    +0.000 C 
BRANCH  13  14
ATOM     14  C   UNL     1      30.233  22.632  26.211  0.00  0.00    +0.000 C 
ATOM     15  C   UNL     1      31.286  22.835  27.224  0.00  0.00    +0.000 C 
ATOM     16  C   UNL     1      32.155  23.993  26.850  0.00  0.00    +0.000 C 
ATOM     17  C   UNL     1      31.879  24.605  25.519  0.00  0.00    +0.000 C 
ATOM     18  C   UNL     1      31.681  23.600  24.412  0.00  0.00    +0.000 C 
ATOM     19  C   UNL     1      30.838  22.419  24.802  0.00  0.00    +0.000 C 
ENDBRANCH  13  14
ENDBRANCH  11  13
ENDBRANCH   2  11
TORSDOF 4
ENDMDL
MODEL 2
REMARK VINA RESULT:      -5.4      2.867      3.972
REMARK  Name = 
REMARK  4 active torsions:
REMARK  status: ('A' for Active; 'I' for Inactive)
REMARK    1  A    between atoms: C_2  and  C_3
REMARK    2  A    between atoms: C_2  and  C_12
REMARK    3  A    between atoms: C_3  and  C_5
REMARK    4  A    between atoms: C_5  and  C_6
REMARK                            x       y       z     vdW  Elec       q    Type
REMARK                         _______ _______ _______ _____ _____    ______ ____
ROOT
ATOM      1  C   UNL     1      27.638  26.059  21.278  0.00  0.00    +0.000 C 
ATOM      2  C   UNL     1      27.361  24.604  21.917  0.00  0.00    +0.000 C 
ENDROOT
BRANCH   2   3
ATOM      3  C   UNL     1      27.067  25.080  23.369  0.00  0.00    +0.000 A 
ATOM      4  C   UNL     1      27.720  26.164  23.916  0.00  0.00    +0.000 A 
ATOM      5  C   UNL     1      27.420  26.594  25.206  0.00  0.00    +0.000 A 
ATOM      6  C   UNL     1      26.479  25.975  25.983  0.00  0.00    +0.000 A 
ATOM      7  N   UNL     1      26.149  26.391  27.314  0.00  0.00    +0.000 NA
ATOM      8  C   UNL     1      25.815  24.876  25.429  0.00  0.00    +0.000 A 
ATOM      9  C   UNL     1      26.123  24.449  24.130  0.00  0.00    +0.000 A 
ATOM     10 CL   UNL     1      25.351  23.089  23.386  0.00  0.00    +0.000 Cl
ENDBRANCH   2   3
BRANCH   2  11
ATOM     11  C   UNL     1      28.833  24.078  22.095  0.00  0.00    +0.000 C 
ATOM     12  O   UNL     1      29.693  24.258  21.265  0.00  0.00    +0.000 OA
BRANCH  11  13
ATOM     13  C   UNL     1      29.181  23.393  23.205  0.00  0.00    +0.000 C 
BRANCH  13  14
ATOM     14  C   UNL     1      29.569  22.900  24.318  0.00  0.00    +0.000 C 
ATOM     15  C   UNL     1      28.906  22.569  25.594  0.00  0.00    +0.000 C 
ATOM     16  C   UNL     1      29.280  23.561  26.648  0.00  0.00    +0.000 C 
ATOM     17  C   UNL     1      30.306  24.567  26.255  0.00  0.00    +0.000 C 
ATOM     18  C   UNL     1      31.483  23.985  25.513  0.00  0.00    +0.000 C 
ATOM     19  C   UNL     1      31.108  22.962  24.479  0.00  0.00    +0.000 C 
ENDBRANCH  13  14
ENDBRANCH  11  13
ENDBRANCH   2  11
TORSDOF 4
ENDMDL
MODEL 3
REMARK VINA RESULT:      -5.4      1.742      2.217
REMARK  Name = 
REMARK  4 active torsions:
REMARK  status: ('A' for Active; 'I' for Inactive)
REMARK    1  A    between atoms: C_2  and  C_3
REMARK    2  A    between atoms: C_2  and  C_12
REMARK    3  A    between atoms: C_3  and  C_5
REMARK    4  A    between atoms: C_5  and  C_6
REMARK                            x       y       z     vdW  Elec       q    Type
REMARK                         _______ _______ _______ _____ _____    ______ ____
ROOT
ATOM      1  C   UNL     1      25.702  24.165  27.954  0.00  0.00    +0.000 C 
ATOM      2  C   UNL     1      27.165  24.611  27.440  0.00  0.00    +0.000 C 
ENDROOT
BRANCH   2   3
ATOM      3  C   UNL     1      26.949  24.289  25.932  0.00  0.00    +0.000 A 
ATOM      4  C   UNL     1      26.274  23.158  25.529  0.00  0.00    +0.000 A 
ATOM      5  C   UNL     1      26.064  22.903  24.176  0.00  0.00    +0.000 A 
ATOM      6  C   UNL     1      26.509  23.748  23.196  0.00  0.00    +0.000 A 
ATOM      7  N   UNL     1      26.312  23.514  21.795  0.00  0.00    +0.000 NA
ATOM      8  C   UNL     1      27.193  24.897  23.604  0.00  0.00    +0.000 A 
ATOM      9  C   UNL     1      27.401  25.145  24.967  0.00  0.00    +0.000 A 
ATOM     10 CL   UNL     1      28.251  26.540  25.545  0.00  0.00    +0.000 Cl
ENDBRANCH   2   3
BRANCH   2  11
ATOM     11  C   UNL     1      28.018  23.360  27.867  0.00  0.00    +0.000 C 
ATOM     12  O   UNL     1      27.606  22.524  28.636  0.00  0.00    +0.000 OA
BRANCH  11  13
ATOM     13  C   UNL     1      29.263  23.186  27.375  0.00  0.00    +0.000 C 
BRANCH  13  14
ATOM     14  C   UNL     1      30.362  22.962  26.763  0.00  0.00    +0.000 C 
ATOM     15  C   UNL     1      31.729  23.510  26.851  0.00  0.00    +0.000 C 
ATOM     16  C   UNL     1      32.013  24.395  25.681  0.00  0.00    +0.000 C 
ATOM     17  C   UNL     1      30.953  24.443  24.634  0.00  0.00    +0.000 C 
ATOM     18  C   UNL     1      30.396  23.091  24.263  0.00  0.00    +0.000 C 
ATOM     19  C   UNL     1      30.146  22.190  25.439  0.00  0.00    +0.000 C 
ENDBRANCH  13  14
ENDBRANCH  11  13
ENDBRANCH   2  11
TORSDOF 4
ENDMDL
MODEL 4
REMARK VINA RESULT:      -5.2      2.854      4.061
REMARK  Name = 
REMARK  4 active torsions:
REMARK  status: ('A' for Active; 'I' for Inactive)
REMARK    1  A    between atoms: C_2  and  C_3
REMARK    2  A    between atoms: C_2  and  C_12
REMARK    3  A    between atoms: C_3  and  C_5
REMARK    4  A    between atoms: C_5  and  C_6
REMARK                            x       y       z     vdW  Elec       q    Type
REMARK                         _______ _______ _______ _____ _____    ______ ____
ROOT
ATOM      1  C   UNL     1      28.882  26.026  23.803  0.00  0.00    +0.000 C 
ATOM      2  C   UNL     1      27.657  25.036  23.454  0.00  0.00    +0.000 C 
ENDROOT
BRANCH   2   3
ATOM      3  C   UNL     1      27.204  24.761  24.918  0.00  0.00    +0.000 A 
ATOM      4  C   UNL     1      27.884  25.293  25.992  0.00  0.00    +0.000 A 
ATOM      5  C   UNL     1      27.445  25.062  27.293  0.00  0.00    +0.000 A 
ATOM      6  C   UNL     1      26.337  24.307  27.567  0.00  0.00    +0.000 A 
ATOM      7  N   UNL     1      25.861  24.047  28.894  0.00  0.00    +0.000 NA
ATOM      8  C   UNL     1      25.646  23.766  26.478  0.00  0.00    +0.000 A 
ATOM      9  C   UNL     1      26.095  24.004  25.172  0.00  0.00    +0.000 A 
ATOM     10 CL   UNL     1      25.297  23.356  23.777  0.00  0.00    +0.000 Cl
ENDBRANCH   2   3
BRANCH   2  11
ATOM     11  C   UNL     1      28.435  23.703  23.153  0.00  0.00    +0.000 C 
ATOM     12  O   UNL     1      28.187  23.006  22.197  0.00  0.00    +0.000 OA
BRANCH  11  13
ATOM     13  C   UNL     1      29.422  23.291  23.977  0.00  0.00    +0.000 C 
BRANCH  13  14
ATOM     14  C   UNL     1      30.262  22.753  24.775  0.00  0.00    +0.000 C 
ATOM     15  C   UNL     1      30.162  22.065  26.077  0.00  0.00    +0.000 C 
ATOM     16  C   UNL     1      30.671  22.944  27.173  0.00  0.00    +0.000 C 
ATOM     17  C   UNL     1      31.274  24.236  26.738  0.00  0.00    +0.000 C 
ATOM     18  C   UNL     1      32.213  24.110  25.564  0.00  0.00    +0.000 C 
ATOM     19  C   UNL     1      31.716  23.196  24.480  0.00  0.00    +0.000 C 
ENDBRANCH  13  14
ENDBRANCH  11  13
ENDBRANCH   2  11
TORSDOF 4
ENDMDL
MODEL 5
REMARK VINA RESULT:      -4.8      2.959      4.865
REMARK  Name = 
REMARK  4 active torsions:
REMARK  status: ('A' for Active; 'I' for Inactive)
REMARK    1  A    between atoms: C_2  and  C_3
REMARK    2  A    between atoms: C_2  and  C_12
REMARK    3  A    between atoms: C_3  and  C_5
REMARK    4  A    between atoms: C_5  and  C_6
REMARK                            x       y       z     vdW  Elec       q    Type
REMARK                         _______ _______ _______ _____ _____    ______ ____
ROOT
ATOM      1  C   UNL     1      30.052  22.096  26.915  0.00  0.00    +0.000 C 
ATOM      2  C   UNL     1      28.528  22.470  26.543  0.00  0.00    +0.000 C 
ENDROOT
BRANCH   2   3
ATOM      3  C   UNL     1      28.807  23.042  25.122  0.00  0.00    +0.000 A 
ATOM      4  C   UNL     1      30.085  23.347  24.710  0.00  0.00    +0.000 A 
ATOM      5  C   UNL     1      30.319  23.828  23.424  0.00  0.00    +0.000 A 
ATOM      6  C   UNL     1      29.309  24.020  22.521  0.00  0.00    +0.000 A 
ATOM      7  N   UNL     1      29.515  24.516  21.192  0.00  0.00    +0.000 NA
ATOM      8  C   UNL     1      28.011  23.710  22.938  0.00  0.00    +0.000 A 
ATOM      9  C   UNL     1      27.785  23.226  24.234  0.00  0.00    +0.000 A 
ATOM     10 CL   UNL     1      26.203  22.835  24.822  0.00  0.00    +0.000 Cl
ENDBRANCH   2   3
BRANCH   2  11
ATOM     11  C   UNL     1      28.351  23.810  27.347  0.00  0.00    +0.000 C 
ATOM     12  O   UNL     1      29.266  24.574  27.547  0.00  0.00    +0.000 OA
BRANCH  11  13
ATOM     13  C   UNL     1      27.145  24.148  27.850  0.00  0.00    +0.000 C 
BRANCH  13  14
ATOM     14  C   UNL     1      25.953  24.303  28.285  0.00  0.00    +0.000 C 
ATOM     15  C   UNL     1      24.746  24.984  27.780  0.00  0.00    +0.000 C 
ATOM     16  C   UNL     1      24.494  26.240  28.551  0.00  0.00    +0.000 C 
ATOM     17  C   UNL     1      25.398  26.478  29.712  0.00  0.00    +0.000 C 
ATOM     18  C   UNL     1      25.623  25.261  30.574  0.00  0.00    +0.000 C 
ATOM     19  C   UNL     1      25.839  23.994  29.797  0.00  0.00    +0.000 C 
ENDBRANCH  13  14
ENDBRANCH  11  13
ENDBRANCH   2  11
TORSDOF 4
ENDMDL
MODEL 6
REMARK VINA RESULT:      -4.8      3.893      6.040
REMARK  Name = 
REMARK  4 active torsions:
REMARK  status: ('A' for Active; 'I' for Inactive)
REMARK    1  A    between atoms: C_2  and  C_3
REMARK    2  A    between atoms: C_2  and  C_12
REMARK    3  A    between atoms: C_3  and  C_5
REMARK    4  A    between atoms: C_5  and  C_6
REMARK                            x       y       z     vdW  Elec       q    Type
REMARK                         _______ _______ _______ _____ _____    ______ ____
ROOT
ATOM      1  C   UNL     1      31.998  22.748  30.751  0.00  0.00    +0.000 C 
ATOM      2  C   UNL     1      31.543  23.502  29.399  0.00  0.00    +0.000 C 
ENDROOT
BRANCH   2   3
ATOM      3  C   UNL     1      30.019  23.559  29.710  0.00  0.00    +0.000 A 
ATOM      4  C   UNL     1      29.397  22.569  30.439  0.00  0.00    +0.000 A 
ATOM      5  C   UNL     1      28.039  22.654  30.734  0.00  0.00    +0.000 A 
ATOM      6  C   UNL     1      27.266  23.706  30.323  0.00  0.00    +0.000 A 
ATOM      7  N   UNL     1      25.866  23.822  30.607  0.00  0.00    +0.000 NA
ATOM      8  C   UNL     1      27.896  24.712  29.584  0.00  0.00    +0.000 A 
ATOM      9  C   UNL     1      29.263  24.618  29.291  0.00  0.00    +0.000 A 
ATOM     10 CL   UNL     1      30.106  25.820  28.371  0.00  0.00    +0.000 Cl
ENDBRANCH   2   3
BRANCH   2  11
ATOM     11  C   UNL     1      31.568  22.307  28.376  0.00  0.00    +0.000 C 
ATOM     12  O   UNL     1      32.179  21.285  28.584  0.00  0.00    +0.000 OA
BRANCH  11  13
ATOM     13  C   UNL     1      30.894  22.396  27.210  0.00  0.00    +0.000 C 
BRANCH  13  14
ATOM     14  C   UNL     1      30.249  22.304  26.111  0.00  0.00    +0.000 C 
ATOM     15  C   UNL     1      30.612  22.403  24.684  0.00  0.00    +0.000 C 
ATOM     16  C   UNL     1      30.121  23.692  24.109  0.00  0.00    +0.000 C 
ATOM     17  C   UNL     1      29.284  24.528  25.016  0.00  0.00    +0.000 C 
ATOM     18  C   UNL     1      28.235  23.751  25.771  0.00  0.00    +0.000 C 
ATOM     19  C   UNL     1      28.720  22.439  26.316  0.00  0.00    +0.000 C 
ENDBRANCH  13  14
ENDBRANCH  11  13
ENDBRANCH   2  11
TORSDOF 4
ENDMDL
MODEL 7
REMARK VINA RESULT:      -4.8     20.999     22.110
REMARK  Name = 
REMARK  4 active torsions:
REMARK  status: ('A' for Active; 'I' for Inactive)
REMARK    1  A    between atoms: C_2  and  C_3
REMARK    2  A    between atoms: C_2  and  C_12
REMARK    3  A    between atoms: C_3  and  C_5
REMARK    4  A    between atoms: C_5  and  C_6
REMARK                            x       y       z     vdW  Elec       q    Type
REMARK                         _______ _______ _______ _____ _____    ______ ____
ROOT
ATOM      1  C   UNL     1      25.468   1.677  14.921  0.00  0.00    +0.000 C 
ATOM      2  C   UNL     1      25.598   2.838  16.034  0.00  0.00    +0.000 C 
ENDROOT
BRANCH   2   3
ATOM      3  C   UNL     1      24.122   2.803  16.527  0.00  0.00    +0.000 A 
ATOM      4  C   UNL     1      23.103   2.363  15.711  0.00  0.00    +0.000 A 
ATOM      5  C   UNL     1      21.793   2.309  16.180  0.00  0.00    +0.000 A 
ATOM      6  C   UNL     1      21.456   2.684  17.453  0.00  0.00    +0.000 A 
ATOM      7  N   UNL     1      20.118   2.643  17.965  0.00  0.00    +0.000 NA
ATOM      8  C   UNL     1      22.490   3.130  18.282  0.00  0.00    +0.000 A 
ATOM      9  C   UNL     1      23.805   3.181  17.802  0.00  0.00    +0.000 A 
ATOM     10 CL   UNL     1      25.132   3.734  18.768  0.00  0.00    +0.000 Cl
ENDBRANCH   2   3
BRANCH   2  11
ATOM     11  C   UNL     1      25.552   4.120  15.125  0.00  0.00    +0.000 C 
ATOM     12  O   UNL     1      25.134   4.100  13.992  0.00  0.00    +0.000 OA
BRANCH  11  13
ATOM     13  C   UNL     1      25.993   5.305  15.598  0.00  0.00    +0.000 C 
BRANCH  13  14
ATOM     14  C   UNL     1      26.440   6.469  15.877  0.00  0.00    +0.000 C 
ATOM     15  C   UNL     1      27.484   7.343  15.308  0.00  0.00    +0.000 C 
ATOM     16  C   UNL     1      28.679   7.381  16.205  0.00  0.00    +0.000 C 
ATOM     17  C   UNL     1      28.536   6.665  17.505  0.00  0.00    +0.000 C 
ATOM     18  C   UNL     1      27.228   6.929  18.209  0.00  0.00    +0.000 C 
ATOM     19  C   UNL     1      26.033   6.927  17.299  0.00  0.00    +0.000 C 
ENDBRANCH  13  14
ENDBRANCH  11  13
ENDBRANCH   2  11
TORSDOF 4
ENDMDL
MODEL 8
REMARK VINA RESULT:      -4.7     13.806     16.121
REMARK  Name = 
REMARK  4 active torsions:
REMARK  status: ('A' for Active; 'I' for Inactive)
REMARK    1  A    between atoms: C_2  and  C_3
REMARK    2  A    between atoms: C_2  and  C_12
REMARK    3  A    between atoms: C_3  and  C_5
REMARK    4  A    between atoms: C_5  and  C_6
REMARK                            x       y       z     vdW  Elec       q    Type
REMARK                         _______ _______ _______ _____ _____    ______ ____
ROOT
ATOM      1  C   UNL     1      32.545  20.481   6.149  0.00  0.00    +0.000 C 
ATOM      2  C   UNL     1      31.949  21.411   7.325  0.00  0.00    +0.000 C 
ENDROOT
BRANCH   2   3
ATOM      3  C   UNL     1      33.079  21.160   8.366  0.00  0.00    +0.000 A 
ATOM      4  C   UNL     1      33.431  19.885   8.750  0.00  0.00    +0.000 A 
ATOM      5  C   UNL     1      34.466  19.679   9.658  0.00  0.00    +0.000 A 
ATOM      6  C   UNL     1      35.174  20.714  10.207  0.00  0.00    +0.000 A 
ATOM      7  N   UNL     1      36.241  20.536  11.146  0.00  0.00    +0.000 NA
ATOM      8  C   UNL     1      34.818  22.008   9.817  0.00  0.00    +0.000 A 
ATOM      9  C   UNL     1      33.775  22.207   8.902  0.00  0.00    +0.000 A 
ATOM     10 CL   UNL     1      33.273  23.782   8.385  0.00  0.00    +0.000 Cl
ENDBRANCH   2   3
BRANCH   2  11
ATOM     11  C   UNL     1      30.830  20.470   7.904  0.00  0.00    +0.000 C 
ATOM     12  O   UNL     1      30.396  19.523   7.291  0.00  0.00    +0.000 OA
BRANCH  11  13
ATOM     13  C   UNL     1      30.312  20.703   9.128  0.00  0.00    +0.000 C 
BRANCH  13  14
ATOM     14  C   UNL     1      29.981  20.986  10.329  0.00  0.00    +0.000 C 
ATOM     15  C   UNL     1      29.159  22.038  10.958  0.00  0.00    +0.000 C 
ATOM     16  C   UNL     1      30.030  23.035  11.653  0.00  0.00    +0.000 C 
ATOM     17  C   UNL     1      31.485  22.712  11.685  0.00  0.00    +0.000 C 
ATOM     18  C   UNL     1      31.786  21.277  12.039  0.00  0.00    +0.000 C 
ATOM     19  C   UNL     1      30.886  20.280  11.367  0.00  0.00    +0.000 C 
ENDBRANCH  13  14
ENDBRANCH  11  13
ENDBRANCH   2  11
TORSDOF 4
ENDMDL
MODEL 9
REMARK VINA RESULT:      -4.7      3.239      4.495
REMARK  Name = 
REMARK  4 active torsions:
REMARK  status: ('A' for Active; 'I' for Inactive)
REMARK    1  A    between atoms: C_2  and  C_3
REMARK    2  A    between atoms: C_2  and  C_12
REMARK    3  A    between atoms: C_3  and  C_5
REMARK    4  A    between atoms: C_5  and  C_6
REMARK                            x       y       z     vdW  Elec       q    Type
REMARK                         _______ _______ _______ _____ _____    ______ ____
ROOT
ATOM      1  C   UNL     1      29.066  25.906  25.485  0.00  0.00    +0.000 C 
ATOM      2  C   UNL     1      27.577  25.456  25.059  0.00  0.00    +0.000 C 
ENDROOT
BRANCH   2   3
ATOM      3  C   UNL     1      27.091  25.019  26.472  0.00  0.00    +0.000 A 
ATOM      4  C   UNL     1      27.984  24.754  27.487  0.00  0.00    +0.000 A 
ATOM      5  C   UNL     1      27.530  24.396  28.754  0.00  0.00    +0.000 A 
ATOM      6  C   UNL     1      26.198  24.289  29.049  0.00  0.00    +0.000 A 
ATOM      7  N   UNL     1      25.698  23.919  30.341  0.00  0.00    +0.000 NA
ATOM      8  C   UNL     1      25.291  24.558  28.020  0.00  0.00    +0.000 A 
ATOM      9  C   UNL     1      25.757  24.919  26.748  0.00  0.00    +0.000 A 
ATOM     10 CL   UNL     1      24.692  25.253  25.423  0.00  0.00    +0.000 Cl
ENDBRANCH   2   3
BRANCH   2  11
ATOM     11  C   UNL     1      27.868  24.048  24.422  0.00  0.00    +0.000 C 
ATOM     12  O   UNL     1      27.119  23.523  23.633  0.00  0.00    +0.000 OA
BRANCH  11  13
ATOM     13  C   UNL     1      28.989  23.371  24.752  0.00  0.00    +0.000 C 
BRANCH  13  14
ATOM     14  C   UNL     1      29.969  22.697  25.218  0.00  0.00    +0.000 C 
ATOM     15  C   UNL     1      30.205  21.930  26.456  0.00  0.00    +0.000 C 
ATOM     16  C   UNL     1      31.133  22.674  27.362  0.00  0.00    +0.000 C 
ATOM     17  C   UNL     1      31.714  23.928  26.804  0.00  0.00    +0.000 C 
ATOM     18  C   UNL     1      32.213  23.794  25.386  0.00  0.00    +0.000 C 
ATOM     19  C   UNL     1      31.296  23.015  24.487  0.00  0.00    +0.000 C 
ENDBRANCH  13  14
ENDBRANCH  11  13
ENDBRANCH   2  11
TORSDOF 4
ENDMDL
MODEL 10
REMARK VINA RESULT:      -4.6      3.762      6.267
REMARK  Name = 
REMARK  4 active torsions:
REMARK  status: ('A' for Active; 'I' for Inactive)
REMARK    1  A    between atoms: C_2  and  C_3
REMARK    2  A    between atoms: C_2  and  C_12
REMARK    3  A    between atoms: C_3  and  C_5
REMARK    4  A    between atoms: C_5  and  C_6
REMARK                            x       y       z     vdW  Elec       q    Type
REMARK                         _______ _______ _______ _____ _____    ______ ____
ROOT
ATOM      1  C   UNL     1      26.514  21.577  30.483  0.00  0.00    +0.000 C 
ATOM      2  C   UNL     1      26.448  22.447  29.126  0.00  0.00    +0.000 C 
ENDROOT
BRANCH   2   3
ATOM      3  C   UNL     1      27.982  22.647  28.947  0.00  0.00    +0.000 A 
ATOM      4  C   UNL     1      28.808  22.867  30.027  0.00  0.00    +0.000 A 
ATOM      5  C   UNL     1      30.182  23.012  29.849  0.00  0.00    +0.000 A 
ATOM      6  C   UNL     1      30.770  22.944  28.616  0.00  0.00    +0.000 A 
ATOM      7  N   UNL     1      32.179  23.092  28.399  0.00  0.00    +0.000 NA
ATOM      8  C   UNL     1      29.933  22.720  27.519  0.00  0.00    +0.000 A 
ATOM      9  C   UNL     1      28.551  22.575  27.707  0.00  0.00    +0.000 A 
ATOM     10 CL   UNL     1      27.453  22.309  26.394  0.00  0.00    +0.000 Cl
ENDBRANCH   2   3
BRANCH   2  11
ATOM     11  C   UNL     1      26.055  23.857  29.702  0.00  0.00    +0.000 C 
ATOM     12  O   UNL     1      25.835  24.041  30.876  0.00  0.00    +0.000 OA
BRANCH  11  13
ATOM     13  C   UNL     1      25.948  24.922  28.880  0.00  0.00    +0.000 C 
BRANCH  13  14
ATOM     14  C   UNL     1      25.724  25.835  28.015  0.00  0.00    +0.000 C 
ATOM     15  C   UNL     1      24.510  26.455  27.451  0.00  0.00    +0.000 C 
ATOM     16  C   UNL     1      24.285  25.982  26.050  0.00  0.00    +0.000 C 
ATOM     17  C   UNL     1      25.357  25.118  25.480  0.00  0.00    +0.000 C 
ATOM     18  C   UNL     1      26.755  25.620  25.744  0.00  0.00    +0.000 C 
ATOM     19  C   UNL     1      26.968  26.129  27.141  0.00  0.00    +0.000 C 
ENDBRANCH  13  14
ENDBRANCH  11  13
ENDBRANCH   2  11
TORSDOF 4
ENDMDL
