MODEL 1
REMARK VINA RESULT:      -6.0      0.000      0.000
REMARK  Name = 
REMARK  4 active torsions:
REMARK  status: ('A' for Active; 'I' for Inactive)
REMARK    1  A    between atoms: O_2  and  C_3
REMARK    2  A    between atoms: C_5  and  O_6
REMARK    3  A    between atoms: C_9  and  N_10
REMARK    4  A    between atoms: C_13  and  C_14
REMARK                            x       y       z     vdW  Elec       q    Type
REMARK                         _______ _______ _______ _____ _____    ______ ____
ROOT
ATOM      1  N   UNL     1      17.138  11.000  36.203  0.00  0.00    +0.000 N 
ATOM      2  C   UNL     1      17.333  10.597  34.920  0.00  0.00    +0.000 A 
ATOM      3  N   UNL     1      18.403   9.745  34.496  0.00  0.00    +0.000 NA
ATOM      4  C   UNL     1      16.340  11.147  34.137  0.00  0.00    +0.000 A 
ATOM      5  C   UNL     1      15.541  11.895  34.987  0.00  0.00    +0.000 A 
ATOM      6  C   UNL     1      16.053  11.790  36.264  0.00  0.00    +0.000 A 
ATOM      7  C   UNL     1      15.344  12.521  37.349  0.00  0.00    +0.000 C 
ATOM      8  C   UNL     1      13.851  12.303  37.084  0.00  0.00    +0.000 C 
ATOM      9  C   UNL     1      13.427  12.931  35.798  0.00  0.00    +0.000 C 
ATOM     10  C   UNL     1      14.336  12.688  34.649  0.00  0.00    +0.000 C 
ENDROOT
BRANCH   1  15
ATOM     11  C   UNL     1      18.674   9.029  38.953  0.00  0.00    +0.000 A 
ATOM     12  C   UNL     1      19.565   9.939  39.458  0.00  0.00    +0.000 A 
ATOM     13  C   UNL     1      19.682  11.199  38.919  0.00  0.00    +0.000 A 
ATOM     14  C   UNL     1      18.881  11.541  37.849  0.00  0.00    +0.000 A 
ATOM     15  C   UNL     1      17.966  10.635  37.316  0.00  0.00    +0.000 A 
ATOM     16  C   UNL     1      17.872   9.382  37.877  0.00  0.00    +0.000 A 
BRANCH  11  18
ATOM     17  C   UNL     1      17.735   7.599  40.623  0.00  0.00    +0.000 C 
ATOM     18  O   UNL     1      18.608   7.781  39.543  0.00  0.00    +0.000 OA
ENDBRANCH  11  18
BRANCH  13  19
ATOM     19  O   UNL     1      20.599  12.068  39.475  0.00  0.00    +0.000 OA
ATOM     20  C   UNL     1      21.242  13.046  38.721  0.00  0.00    +0.000 C 
ENDBRANCH  13  19
ENDBRANCH   1  15
BRANCH   4  21
ATOM     21  C   UNL     1      16.207  10.952  32.722  0.00  0.00    +0.000 C 
ATOM     22  N   UNL     1      16.117  10.792  31.578  0.00  0.00    +0.000 NA
ENDBRANCH   4  21
TORSDOF 4
ENDMDL
MODEL 2
REMARK VINA RESULT:      -6.0     17.584     19.803
REMARK  Name = 
REMARK  4 active torsions:
REMARK  status: ('A' for Active; 'I' for Inactive)
REMARK    1  A    between atoms: O_2  and  C_3
REMARK    2  A    between atoms: C_5  and  O_6
REMARK    3  A    between atoms: C_9  and  N_10
REMARK    4  A    between atoms: C_13  and  C_14
REMARK                            x       y       z     vdW  Elec       q    Type
REMARK                         _______ _______ _______ _____ _____    ______ ____
ROOT
ATOM      1  N   UNL     1      27.504  23.869  26.456  0.00  0.00    +0.000 N 
ATOM      2  C   UNL     1      26.751  24.002  25.332  0.00  0.00    +0.000 A 
ATOM      3  N   UNL     1      25.406  24.490  25.315  0.00  0.00    +0.000 NA
ATOM      4  C   UNL     1      27.508  23.593  24.253  0.00  0.00    +0.000 A 
ATOM      5  C   UNL     1      28.738  23.208  24.762  0.00  0.00    +0.000 A 
ATOM      6  C   UNL     1      28.715  23.387  26.130  0.00  0.00    +0.000 A 
ATOM      7  C   UNL     1      29.945  23.034  26.889  0.00  0.00    +0.000 C 
ATOM      8  C   UNL     1      31.112  23.563  26.050  0.00  0.00    +0.000 C 
ATOM      9  C   UNL     1      31.204  22.861  24.736  0.00  0.00    +0.000 C 
ATOM     10  C   UNL     1      29.912  22.689  24.023  0.00  0.00    +0.000 C 
ENDROOT
BRANCH   1  15
ATOM     11  C   UNL     1      26.596  25.818  29.486  0.00  0.00    +0.000 A 
ATOM     12  C   UNL     1      26.221  24.812  30.339  0.00  0.00    +0.000 A 
ATOM     13  C   UNL     1      26.257  23.494  29.948  0.00  0.00    +0.000 A 
ATOM     14  C   UNL     1      26.680  23.192  28.670  0.00  0.00    +0.000 A 
ATOM     15  C   UNL     1      27.066  24.194  27.783  0.00  0.00    +0.000 A 
ATOM     16  C   UNL     1      27.020  25.503  28.203  0.00  0.00    +0.000 A 
BRANCH  11  18
ATOM     17  C   UNL     1      25.975  28.096  29.111  0.00  0.00    +0.000 C 
ATOM     18  O   UNL     1      26.536  27.120  29.945  0.00  0.00    +0.000 OA
ENDBRANCH  11  18
BRANCH  13  19
ATOM     19  O   UNL     1      25.866  22.530  30.855  0.00  0.00    +0.000 OA
ATOM     20  C   UNL     1      26.140  21.179  30.662  0.00  0.00    +0.000 C 
ENDBRANCH  13  19
ENDBRANCH   1  15
BRANCH   4  21
ATOM     21  C   UNL     1      27.059  23.586  22.891  0.00  0.00    +0.000 C 
ATOM     22  N   UNL     1      26.689  23.597  21.793  0.00  0.00    +0.000 NA
ENDBRANCH   4  21
TORSDOF 4
ENDMDL
MODEL 3
REMARK VINA RESULT:      -5.9     17.570     19.620
REMARK  Name = 
REMARK  4 active torsions:
REMARK  status: ('A' for Active; 'I' for Inactive)
REMARK    1  A    between atoms: O_2  and  C_3
REMARK    2  A    between atoms: C_5  and  O_6
REMARK    3  A    between atoms: C_9  and  N_10
REMARK    4  A    between atoms: C_13  and  C_14
REMARK                            x       y       z     vdW  Elec       q    Type
REMARK                         _______ _______ _______ _____ _____    ______ ____
ROOT
ATOM      1  N   UNL     1      27.362  23.958  26.406  0.00  0.00    +0.000 N 
ATOM      2  C   UNL     1      26.629  24.067  25.266  0.00  0.00    +0.000 A 
ATOM      3  N   UNL     1      25.275  24.531  25.219  0.00  0.00    +0.000 NA
ATOM      4  C   UNL     1      27.413  23.660  24.207  0.00  0.00    +0.000 A 
ATOM      5  C   UNL     1      28.640  23.303  24.743  0.00  0.00    +0.000 A 
ATOM      6  C   UNL     1      28.587  23.495  26.108  0.00  0.00    +0.000 A 
ATOM      7  C   UNL     1      29.808  23.171  26.894  0.00  0.00    +0.000 C 
ATOM      8  C   UNL     1      30.981  23.713  26.073  0.00  0.00    +0.000 C 
ATOM      9  C   UNL     1      31.111  22.999  24.768  0.00  0.00    +0.000 C 
ATOM     10  C   UNL     1      29.837  22.797  24.032  0.00  0.00    +0.000 C 
ENDROOT
BRANCH   1  15
ATOM     11  C   UNL     1      26.161  23.617  29.906  0.00  0.00    +0.000 A 
ATOM     12  C   UNL     1      25.987  24.932  30.250  0.00  0.00    +0.000 A 
ATOM     13  C   UNL     1      26.255  25.945  29.359  0.00  0.00    +0.000 A 
ATOM     14  C   UNL     1      26.707  25.617  28.097  0.00  0.00    +0.000 A 
ATOM     15  C   UNL     1      26.892  24.289  27.721  0.00  0.00    +0.000 A 
ATOM     16  C   UNL     1      26.615  23.298  28.634  0.00  0.00    +0.000 A 
BRANCH  11  18
ATOM     17  C   UNL     1      26.241  21.326  30.584  0.00  0.00    +0.000 C 
ATOM     18  O   UNL     1      25.872  22.650  30.850  0.00  0.00    +0.000 OA
ENDBRANCH  11  18
BRANCH  13  19
ATOM     19  O   UNL     1      26.060  27.249  29.769  0.00  0.00    +0.000 OA
ATOM     20  C   UNL     1      24.793  27.755  30.044  0.00  0.00    +0.000 C 
ENDBRANCH  13  19
ENDBRANCH   1  15
BRANCH   4  21
ATOM     21  C   UNL     1      26.991  23.632  22.836  0.00  0.00    +0.000 C 
ATOM     22  N   UNL     1      26.646  23.592  21.731  0.00  0.00    +0.000 NA
ENDBRANCH   4  21
TORSDOF 4
ENDMDL
MODEL 4
REMARK VINA RESULT:      -5.9      3.494      6.952
REMARK  Name = 
REMARK  4 active torsions:
REMARK  status: ('A' for Active; 'I' for Inactive)
REMARK    1  A    between atoms: O_2  and  C_3
REMARK    2  A    between atoms: C_5  and  O_6
REMARK    3  A    between atoms: C_9  and  N_10
REMARK    4  A    between atoms: C_13  and  C_14
REMARK                            x       y       z     vdW  Elec       q    Type
REMARK                         _______ _______ _______ _____ _____    ______ ____
ROOT
ATOM      1  N   UNL     1      21.177  11.356  38.274  0.00  0.00    +0.000 N 
ATOM      2  C   UNL     1      21.718  12.449  38.877  0.00  0.00    +0.000 A 
ATOM      3  N   UNL     1      21.047  13.238  39.866  0.00  0.00    +0.000 NA
ATOM      4  C   UNL     1      22.986  12.640  38.371  0.00  0.00    +0.000 A 
ATOM      5  C   UNL     1      23.194  11.630  37.445  0.00  0.00    +0.000 A 
ATOM      6  C   UNL     1      22.060  10.845  37.400  0.00  0.00    +0.000 A 
ATOM      7  C   UNL     1      22.062   9.690  36.462  0.00  0.00    +0.000 C 
ATOM      8  C   UNL     1      23.449   9.054  36.596  0.00  0.00    +0.000 C 
ATOM      9  C   UNL     1      24.523   9.982  36.134  0.00  0.00    +0.000 C 
ATOM     10  C   UNL     1      24.397  11.381  36.617  0.00  0.00    +0.000 C 
ENDROOT
BRANCH   1  15
ATOM     11  C   UNL     1      17.550  10.621  37.945  0.00  0.00    +0.000 A 
ATOM     12  C   UNL     1      17.344   9.832  39.046  0.00  0.00    +0.000 A 
ATOM     13  C   UNL     1      18.372   9.526  39.908  0.00  0.00    +0.000 A 
ATOM     14  C   UNL     1      19.630  10.031  39.647  0.00  0.00    +0.000 A 
ATOM     15  C   UNL     1      19.867  10.836  38.535  0.00  0.00    +0.000 A 
ATOM     16  C   UNL     1      18.818  11.124  37.692  0.00  0.00    +0.000 A 
BRANCH  11  18
ATOM     17  C   UNL     1      15.254  11.246  37.712  0.00  0.00    +0.000 C 
ATOM     18  O   UNL     1      16.472  10.889  37.122  0.00  0.00    +0.000 OA
ENDBRANCH  11  18
BRANCH  13  19
ATOM     19  O   UNL     1      18.098   8.725  40.998  0.00  0.00    +0.000 OA
ATOM     20  C   UNL     1      17.142   7.714  40.950  0.00  0.00    +0.000 C 
ENDBRANCH  13  19
ENDBRANCH   1  15
BRANCH   4  21
ATOM     21  C   UNL     1      23.876  13.694  38.762  0.00  0.00    +0.000 C 
ATOM     22  N   UNL     1      24.586  14.558  39.068  0.00  0.00    +0.000 NA
ENDBRANCH   4  21
TORSDOF 4
ENDMDL
MODEL 5
REMARK VINA RESULT:      -5.9      3.490      6.758
REMARK  Name = 
REMARK  4 active torsions:
REMARK  status: ('A' for Active; 'I' for Inactive)
REMARK    1  A    between atoms: O_2  and  C_3
REMARK    2  A    between atoms: C_5  and  O_6
REMARK    3  A    between atoms: C_9  and  N_10
REMARK    4  A    between atoms: C_13  and  C_14
REMARK                            x       y       z     vdW  Elec       q    Type
REMARK                         _______ _______ _______ _____ _____    ______ ____
ROOT
ATOM      1  N   UNL     1      21.171  11.342  38.276  0.00  0.00    +0.000 N 
ATOM      2  C   UNL     1      21.710  12.434  38.880  0.00  0.00    +0.000 A 
ATOM      3  N   UNL     1      21.041  13.218  39.873  0.00  0.00    +0.000 NA
ATOM      4  C   UNL     1      22.976  12.630  38.370  0.00  0.00    +0.000 A 
ATOM      5  C   UNL     1      23.184  11.624  37.439  0.00  0.00    +0.000 A 
ATOM      6  C   UNL     1      22.051  10.836  37.397  0.00  0.00    +0.000 A 
ATOM      7  C   UNL     1      22.054   9.683  36.456  0.00  0.00    +0.000 C 
ATOM      8  C   UNL     1      23.443   9.051  36.583  0.00  0.00    +0.000 C 
ATOM      9  C   UNL     1      24.513   9.983  36.119  0.00  0.00    +0.000 C 
ATOM     10  C   UNL     1      24.384  11.381  36.606  0.00  0.00    +0.000 C 
ENDROOT
BRANCH   1  15
ATOM     11  C   UNL     1      18.369   9.526  39.905  0.00  0.00    +0.000 A 
ATOM     12  C   UNL     1      17.340   9.809  39.045  0.00  0.00    +0.000 A 
ATOM     13  C   UNL     1      17.538  10.589  37.929  0.00  0.00    +0.000 A 
ATOM     14  C   UNL     1      18.800  11.089  37.683  0.00  0.00    +0.000 A 
ATOM     15  C   UNL     1      19.863  10.817  38.541  0.00  0.00    +0.000 A 
ATOM     16  C   UNL     1      19.634  10.034  39.649  0.00  0.00    +0.000 A 
BRANCH  11  18
ATOM     17  C   UNL     1      16.938   7.954  41.001  0.00  0.00    +0.000 C 
ATOM     18  O   UNL     1      18.100   8.736  41.007  0.00  0.00    +0.000 OA
ENDBRANCH  11  18
BRANCH  13  19
ATOM     19  O   UNL     1      16.460  10.836  37.103  0.00  0.00    +0.000 OA
ATOM     20  C   UNL     1      15.316  11.488  37.556  0.00  0.00    +0.000 C 
ENDBRANCH  13  19
ENDBRANCH   1  15
BRANCH   4  21
ATOM     21  C   UNL     1      23.865  13.686  38.760  0.00  0.00    +0.000 C 
ATOM     22  N   UNL     1      24.595  14.532  39.066  0.00  0.00    +0.000 NA
ENDBRANCH   4  21
TORSDOF 4
ENDMDL
MODEL 6
REMARK VINA RESULT:      -5.9      2.876      5.017
REMARK  Name = 
REMARK  4 active torsions:
REMARK  status: ('A' for Active; 'I' for Inactive)
REMARK    1  A    between atoms: O_2  and  C_3
REMARK    2  A    between atoms: C_5  and  O_6
REMARK    3  A    between atoms: C_9  and  N_10
REMARK    4  A    between atoms: C_13  and  C_14
REMARK                            x       y       z     vdW  Elec       q    Type
REMARK                         _______ _______ _______ _____ _____    ______ ____
ROOT
ATOM      1  N   UNL     1      18.699  10.643  38.506  0.00  0.00    +0.000 N 
ATOM      2  C   UNL     1      18.281   9.933  39.588  0.00  0.00    +0.000 A 
ATOM      3  N   UNL     1      19.159   9.340  40.551  0.00  0.00    +0.000 NA
ATOM      4  C   UNL     1      16.903   9.898  39.577  0.00  0.00    +0.000 A 
ATOM      5  C   UNL     1      16.502  10.607  38.456  0.00  0.00    +0.000 A 
ATOM      6  C   UNL     1      17.631  11.060  37.805  0.00  0.00    +0.000 A 
ATOM      7  C   UNL     1      17.435  11.854  36.563  0.00  0.00    +0.000 C 
ATOM      8  C   UNL     1      16.270  12.802  36.860  0.00  0.00    +0.000 C 
ATOM      9  C   UNL     1      15.000  12.052  37.093  0.00  0.00    +0.000 C 
ATOM     10  C   UNL     1      15.123  10.869  37.983  0.00  0.00    +0.000 C 
ENDROOT
BRANCH   1  15
ATOM     11  C   UNL     1      22.022  12.291  38.292  0.00  0.00    +0.000 A 
ATOM     12  C   UNL     1      22.709  11.392  37.519  0.00  0.00    +0.000 A 
ATOM     13  C   UNL     1      22.109  10.243  37.058  0.00  0.00    +0.000 A 
ATOM     14  C   UNL     1      20.791  10.003  37.387  0.00  0.00    +0.000 A 
ATOM     15  C   UNL     1      20.069  10.901  38.170  0.00  0.00    +0.000 A 
ATOM     16  C   UNL     1      20.696  12.042  38.617  0.00  0.00    +0.000 A 
BRANCH  11  18
ATOM     17  C   UNL     1      22.879  13.604  40.096  0.00  0.00    +0.000 C 
ATOM     18  O   UNL     1      22.685  13.426  38.721  0.00  0.00    +0.000 OA
ENDBRANCH  11  18
BRANCH  13  19
ATOM     19  O   UNL     1      22.857   9.378  36.284  0.00  0.00    +0.000 OA
ATOM     20  C   UNL     1      24.162   9.672  35.899  0.00  0.00    +0.000 C 
ENDBRANCH  13  19
ENDBRANCH   1  15
BRANCH   4  21
ATOM     21  C   UNL     1      16.090   9.240  40.559  0.00  0.00    +0.000 C 
ATOM     22  N   UNL     1      15.420   8.718  41.347  0.00  0.00    +0.000 NA
ENDBRANCH   4  21
TORSDOF 4
ENDMDL
MODEL 7
REMARK VINA RESULT:      -5.6      2.906      6.272
REMARK  Name = 
REMARK  4 active torsions:
REMARK  status: ('A' for Active; 'I' for Inactive)
REMARK    1  A    between atoms: O_2  and  C_3
REMARK    2  A    between atoms: C_5  and  O_6
REMARK    3  A    between atoms: C_9  and  N_10
REMARK    4  A    between atoms: C_13  and  C_14
REMARK                            x       y       z     vdW  Elec       q    Type
REMARK                         _______ _______ _______ _____ _____    ______ ____
ROOT
ATOM      1  N   UNL     1      20.668  11.365  38.069  0.00  0.00    +0.000 N 
ATOM      2  C   UNL     1      21.572  10.680  37.320  0.00  0.00    +0.000 A 
ATOM      3  N   UNL     1      21.269   9.498  36.571  0.00  0.00    +0.000 NA
ATOM      4  C   UNL     1      22.790  11.321  37.417  0.00  0.00    +0.000 A 
ATOM      5  C   UNL     1      22.592  12.412  38.248  0.00  0.00    +0.000 A 
ATOM      6  C   UNL     1      21.269  12.421  38.642  0.00  0.00    +0.000 A 
ATOM      7  C   UNL     1      20.830  13.517  39.547  0.00  0.00    +0.000 C 
ATOM      8  C   UNL     1      21.495  14.787  39.007  0.00  0.00    +0.000 C 
ATOM      9  C   UNL     1      22.982  14.714  39.114  0.00  0.00    +0.000 C 
ATOM     10  C   UNL     1      23.582  13.427  38.677  0.00  0.00    +0.000 C 
ENDROOT
BRANCH   1  15
ATOM     11  C   UNL     1      17.000  11.167  37.510  0.00  0.00    +0.000 A 
ATOM     12  C   UNL     1      16.629  10.318  38.520  0.00  0.00    +0.000 A 
ATOM     13  C   UNL     1      17.556   9.800  39.394  0.00  0.00    +0.000 A 
ATOM     14  C   UNL     1      18.882  10.148  39.239  0.00  0.00    +0.000 A 
ATOM     15  C   UNL     1      19.287  11.008  38.221  0.00  0.00    +0.000 A 
ATOM     16  C   UNL     1      18.336  11.511  37.363  0.00  0.00    +0.000 A 
BRANCH  11  18
ATOM     17  C   UNL     1      14.732  11.852  37.189  0.00  0.00    +0.000 C 
ATOM     18  O   UNL     1      16.016  11.652  36.668  0.00  0.00    +0.000 OA
ENDBRANCH  11  18
BRANCH  13  19
ATOM     19  O   UNL     1      17.116   8.950  40.389  0.00  0.00    +0.000 OA
ATOM     20  C   UNL     1      15.923   9.167  41.072  0.00  0.00    +0.000 C 
ENDBRANCH  13  19
ENDBRANCH   1  15
BRANCH   4  21
ATOM     21  C   UNL     1      23.995  10.898  36.765  0.00  0.00    +0.000 C 
ATOM     22  N   UNL     1      24.964  10.539  36.241  0.00  0.00    +0.000 NA
ENDBRANCH   4  21
TORSDOF 4
ENDMDL
MODEL 8
REMARK VINA RESULT:      -5.6     17.948     19.933
REMARK  Name = 
REMARK  4 active torsions:
REMARK  status: ('A' for Active; 'I' for Inactive)
REMARK    1  A    between atoms: O_2  and  C_3
REMARK    2  A    between atoms: C_5  and  O_6
REMARK    3  A    between atoms: C_9  and  N_10
REMARK    4  A    between atoms: C_13  and  C_14
REMARK                            x       y       z     vdW  Elec       q    Type
REMARK                         _______ _______ _______ _____ _____    ______ ____
ROOT
ATOM      1  N   UNL     1      27.736  24.233  26.424  0.00  0.00    +0.000 N 
ATOM      2  C   UNL     1      29.072  23.990  26.347  0.00  0.00    +0.000 A 
ATOM      3  N   UNL     1      29.951  23.951  27.476  0.00  0.00    +0.000 NA
ATOM      4  C   UNL     1      29.401  23.796  25.022  0.00  0.00    +0.000 A 
ATOM      5  C   UNL     1      28.224  23.930  24.303  0.00  0.00    +0.000 A 
ATOM      6  C   UNL     1      27.204  24.201  25.191  0.00  0.00    +0.000 A 
ATOM      7  C   UNL     1      25.837  24.384  24.632  0.00  0.00    +0.000 C 
ATOM      8  C   UNL     1      25.680  23.294  23.567  0.00  0.00    +0.000 C 
ATOM      9  C   UNL     1      26.634  23.491  22.436  0.00  0.00    +0.000 C 
ATOM     10  C   UNL     1      28.028  23.814  22.839  0.00  0.00    +0.000 C 
ENDROOT
BRANCH   1  15
ATOM     11  C   UNL     1      25.835  25.986  29.092  0.00  0.00    +0.000 A 
ATOM     12  C   UNL     1      25.626  24.961  29.978  0.00  0.00    +0.000 A 
ATOM     13  C   UNL     1      26.095  23.693  29.726  0.00  0.00    +0.000 A 
ATOM     14  C   UNL     1      26.787  23.461  28.555  0.00  0.00    +0.000 A 
ATOM     15  C   UNL     1      27.014  24.484  27.638  0.00  0.00    +0.000 A 
ATOM     16  C   UNL     1      26.533  25.742  27.918  0.00  0.00    +0.000 A 
BRANCH  11  18
ATOM     17  C   UNL     1      24.557  27.904  28.456  0.00  0.00    +0.000 C 
ATOM     18  O   UNL     1      25.337  27.236  29.409  0.00  0.00    +0.000 OA
ENDBRANCH  11  18
BRANCH  13  19
ATOM     19  O   UNL     1      25.849  22.705  30.659  0.00  0.00    +0.000 OA
ATOM     20  C   UNL     1      26.334  21.409  30.508  0.00  0.00    +0.000 C 
ENDBRANCH  13  19
ENDBRANCH   1  15
BRANCH   4  21
ATOM     21  C   UNL     1      30.721  23.514  24.536  0.00  0.00    +0.000 C 
ATOM     22  N   UNL     1      31.792  23.280  24.160  0.00  0.00    +0.000 NA
ENDBRANCH   4  21
TORSDOF 4
ENDMDL
MODEL 9
REMARK VINA RESULT:      -5.5      2.822      6.010
REMARK  Name = 
REMARK  4 active torsions:
REMARK  status: ('A' for Active; 'I' for Inactive)
REMARK    1  A    between atoms: O_2  and  C_3
REMARK    2  A    between atoms: C_5  and  O_6
REMARK    3  A    between atoms: C_9  and  N_10
REMARK    4  A    between atoms: C_13  and  C_14
REMARK                            x       y       z     vdW  Elec       q    Type
REMARK                         _______ _______ _______ _____ _____    ______ ____
ROOT
ATOM      1  N   UNL     1      20.667  11.361  38.060  0.00  0.00    +0.000 N 
ATOM      2  C   UNL     1      21.583  10.680  37.322  0.00  0.00    +0.000 A 
ATOM      3  N   UNL     1      21.294   9.497  36.569  0.00  0.00    +0.000 NA
ATOM      4  C   UNL     1      22.797  11.325  37.435  0.00  0.00    +0.000 A 
ATOM      5  C   UNL     1      22.584  12.415  38.264  0.00  0.00    +0.000 A 
ATOM      6  C   UNL     1      21.257  12.419  38.641  0.00  0.00    +0.000 A 
ATOM      7  C   UNL     1      20.803  13.513  39.541  0.00  0.00    +0.000 C 
ATOM      8  C   UNL     1      21.469  14.785  39.010  0.00  0.00    +0.000 C 
ATOM      9  C   UNL     1      22.955  14.718  39.135  0.00  0.00    +0.000 C 
ATOM     10  C   UNL     1      23.565  13.434  38.705  0.00  0.00    +0.000 C 
ENDROOT
BRANCH   1  15
ATOM     11  C   UNL     1      17.542   9.799  39.327  0.00  0.00    +0.000 A 
ATOM     12  C   UNL     1      16.623  10.306  38.446  0.00  0.00    +0.000 A 
ATOM     13  C   UNL     1      16.999  11.157  37.433  0.00  0.00    +0.000 A 
ATOM     14  C   UNL     1      18.330  11.500  37.313  0.00  0.00    +0.000 A 
ATOM     15  C   UNL     1      19.285  10.999  38.194  0.00  0.00    +0.000 A 
ATOM     16  C   UNL     1      18.879  10.150  39.198  0.00  0.00    +0.000 A 
BRANCH  11  18
ATOM     17  C   UNL     1      17.833   7.788  40.587  0.00  0.00    +0.000 C 
ATOM     18  O   UNL     1      17.096   8.949  40.321  0.00  0.00    +0.000 OA
ENDBRANCH  11  18
BRANCH  13  19
ATOM     19  O   UNL     1      16.023  11.633  36.580  0.00  0.00    +0.000 OA
ATOM     20  C   UNL     1      14.829  12.170  37.050  0.00  0.00    +0.000 C 
ENDBRANCH  13  19
ENDBRANCH   1  15
BRANCH   4  21
ATOM     21  C   UNL     1      24.012  10.907  36.797  0.00  0.00    +0.000 C 
ATOM     22  N   UNL     1      24.998  10.587  36.281  0.00  0.00    +0.000 NA
ENDBRANCH   4  21
TORSDOF 4
ENDMDL
MODEL 10
REMARK VINA RESULT:      -5.5     21.359     23.212
REMARK  Name = 
REMARK  4 active torsions:
REMARK  status: ('A' for Active; 'I' for Inactive)
REMARK    1  A    between atoms: O_2  and  C_3
REMARK    2  A    between atoms: C_5  and  O_6
REMARK    3  A    between atoms: C_9  and  N_10
REMARK    4  A    between atoms: C_13  and  C_14
REMARK                            x       y       z     vdW  Elec       q    Type
REMARK                         _______ _______ _______ _____ _____    ______ ____
ROOT
ATOM      1  N   UNL     1      25.679   4.443  16.270  0.00  0.00    +0.000 N 
ATOM      2  C   UNL     1      25.655   4.813  14.962  0.00  0.00    +0.000 A 
ATOM      3  N   UNL     1      24.767   4.261  13.984  0.00  0.00    +0.000 NA
ATOM      4  C   UNL     1      26.613   5.787  14.770  0.00  0.00    +0.000 A 
ATOM      5  C   UNL     1      27.215   5.991  16.001  0.00  0.00    +0.000 A 
ATOM      6  C   UNL     1      26.621   5.148  16.918  0.00  0.00    +0.000 A 
ATOM      7  C   UNL     1      27.117   5.200  18.319  0.00  0.00    +0.000 C 
ATOM      8  C   UNL     1      27.309   6.686  18.633  0.00  0.00    +0.000 C 
ATOM      9  C   UNL     1      28.374   7.293  17.780  0.00  0.00    +0.000 C 
ATOM     10  C   UNL     1      28.307   6.932  16.340  0.00  0.00    +0.000 C 
ENDROOT
BRANCH   1  15
ATOM     11  C   UNL     1      24.443   1.199  17.596  0.00  0.00    +0.000 A 
ATOM     12  C   UNL     1      23.179   1.547  17.997  0.00  0.00    +0.000 A 
ATOM     13  C   UNL     1      22.710   2.831  17.845  0.00  0.00    +0.000 A 
ATOM     14  C   UNL     1      23.538   3.778  17.276  0.00  0.00    +0.000 A 
ATOM     15  C   UNL     1      24.827   3.451  16.860  0.00  0.00    +0.000 A 
ATOM     16  C   UNL     1      25.268   2.159  17.025  0.00  0.00    +0.000 A 
BRANCH  11  18
ATOM     17  C   UNL     1      26.076  -0.509  17.230  0.00  0.00    +0.000 C 
ATOM     18  O   UNL     1      24.850  -0.109  17.778  0.00  0.00    +0.000 OA
ENDBRANCH  11  18
BRANCH  13  19
ATOM     19  O   UNL     1      21.428   3.115  18.270  0.00  0.00    +0.000 OA
ATOM     20  C   UNL     1      20.314   2.469  17.741  0.00  0.00    +0.000 C 
ENDBRANCH  13  19
ENDBRANCH   1  15
BRANCH   4  21
ATOM     21  C   UNL     1      26.891   6.429  13.518  0.00  0.00    +0.000 C 
ATOM     22  N   UNL     1      27.131   6.940  12.506  0.00  0.00    +0.000 NA
ENDBRANCH   4  21
TORSDOF 4
ENDMDL
