MODEL 1
REMARK VINA RESULT:      -6.7      0.000      0.000
REMARK  Name = 
REMARK  3 active torsions:
REMARK  status: ('A' for Active; 'I' for Inactive)
REMARK    1  A    between atoms: C_2  and  O_3
REMARK    2  A    between atoms: O_3  and  C_4
REMARK    3  A    between atoms: C_16  and  O_17
REMARK                            x       y       z     vdW  Elec       q    Type
REMARK                         _______ _______ _______ _____ _____    ______ ____
ROOT
ATOM      1  C   UNL     1      16.299  10.437  38.341  0.00  0.00    +0.000 A 
ATOM      2  C   UNL     1      15.144  11.162  38.521  0.00  0.00    +0.000 A 
ATOM      3  C   UNL     1      14.532  11.778  37.447  0.00  0.00    +0.000 A 
ATOM      4  C   UNL     1      15.051  11.689  36.162  0.00  0.00    +0.000 A 
ATOM      5  N   UNL     1      14.441  12.293  35.136  0.00  0.00    +0.000 NA
ATOM      6  C   UNL     1      14.951  12.200  33.898  0.00  0.00    +0.000 A 
ATOM      7  C   UNL     1      14.365  12.802  32.804  0.00  0.00    +0.000 A 
ATOM      8  C   UNL     1      14.904  12.696  31.540  0.00  0.00    +0.000 A 
ATOM      9  N   UNL     1      14.258  13.342  30.420  0.00  0.00    +0.000 NA
ATOM     10  C   UNL     1      16.054  11.976  31.346  0.00  0.00    +0.000 A 
ATOM     11  C   UNL     1      16.663  11.367  32.405  0.00  0.00    +0.000 A 
ATOM     12  C   UNL     1      16.116  11.480  33.656  0.00  0.00    +0.000 A 
ATOM     13  C   UNL     1      16.734  10.865  34.710  0.00  0.00    +0.000 A 
ATOM     14  C   UNL     1      16.205  10.967  35.962  0.00  0.00    +0.000 A 
ATOM     15  C   UNL     1      16.815  10.349  37.066  0.00  0.00    +0.000 A 
ENDROOT
BRANCH  13  16
ATOM     16  O   UNL     1      17.917  10.122  34.527  0.00  0.00    +0.000 OA
ATOM     17  C   UNL     1      17.966   8.742  34.899  0.00  0.00    +0.000 C 
ENDBRANCH  13  16
BRANCH   1  18
ATOM     18  O   UNL     1      16.966   9.793  39.381  0.00  0.00    +0.000 OA
BRANCH  18  20
ATOM     19  C   UNL     1      19.061   9.871  40.450  0.00  0.00    +0.000 C 
ATOM     20  C   UNL     1      18.311   9.365  39.212  0.00  0.00    +0.000 C 
ENDBRANCH  18  20
ENDBRANCH   1  18
TORSDOF 3
ENDMDL
MODEL 2
REMARK VINA RESULT:      -6.5     18.840     20.532
REMARK  Name = 
REMARK  3 active torsions:
REMARK  status: ('A' for Active; 'I' for Inactive)
REMARK    1  A    between atoms: C_2  and  O_3
REMARK    2  A    between atoms: O_3  and  C_4
REMARK    3  A    between atoms: C_16  and  O_17
REMARK                            x       y       z     vdW  Elec       q    Type
REMARK                         _______ _______ _______ _____ _____    ______ ____
ROOT
ATOM      1  C   UNL     1      33.911   5.380  35.914  0.00  0.00    +0.000 A 
ATOM      2  C   UNL     1      33.596   5.443  34.575  0.00  0.00    +0.000 A 
ATOM      3  C   UNL     1      33.449   4.285  33.838  0.00  0.00    +0.000 A 
ATOM      4  C   UNL     1      33.611   3.029  34.410  0.00  0.00    +0.000 A 
ATOM      5  N   UNL     1      33.464   1.920  33.677  0.00  0.00    +0.000 NA
ATOM      6  C   UNL     1      33.622   0.713  34.240  0.00  0.00    +0.000 A 
ATOM      7  C   UNL     1      33.482  -0.463  33.532  0.00  0.00    +0.000 A 
ATOM      8  C   UNL     1      33.649  -1.694  34.128  0.00  0.00    +0.000 A 
ATOM      9  N   UNL     1      33.493  -2.902  33.351  0.00  0.00    +0.000 NA
ATOM     10  C   UNL     1      33.963  -1.772  35.460  0.00  0.00    +0.000 A 
ATOM     11  C   UNL     1      34.110  -0.630  36.193  0.00  0.00    +0.000 A 
ATOM     12  C   UNL     1      33.940   0.588  35.587  0.00  0.00    +0.000 A 
ATOM     13  C   UNL     1      34.090   1.727  36.331  0.00  0.00    +0.000 A 
ATOM     14  C   UNL     1      33.926   2.947  35.747  0.00  0.00    +0.000 A 
ATOM     15  C   UNL     1      34.072   4.135  36.482  0.00  0.00    +0.000 A 
ENDROOT
BRANCH  13  16
ATOM     16  O   UNL     1      34.412   1.663  37.701  0.00  0.00    +0.000 OA
ATOM     17  C   UNL     1      35.779   1.641  38.121  0.00  0.00    +0.000 C 
ENDBRANCH  13  16
BRANCH   1  18
ATOM     18  O   UNL     1      34.074   6.510  36.713  0.00  0.00    +0.000 OA
BRANCH  18  20
ATOM     19  C   UNL     1      35.897   7.903  36.192  0.00  0.00    +0.000 C 
ATOM     20  C   UNL     1      34.371   7.767  36.121  0.00  0.00    +0.000 C 
ENDBRANCH  18  20
ENDBRANCH   1  18
TORSDOF 3
ENDMDL
MODEL 3
REMARK VINA RESULT:      -6.4     17.964     19.234
REMARK  Name = 
REMARK  3 active torsions:
REMARK  status: ('A' for Active; 'I' for Inactive)
REMARK    1  A    between atoms: C_2  and  O_3
REMARK    2  A    between atoms: O_3  and  C_4
REMARK    3  A    between atoms: C_16  and  O_17
REMARK                            x       y       z     vdW  Elec       q    Type
REMARK                         _______ _______ _______ _____ _____    ______ ____
ROOT
ATOM      1  C   UNL     1      30.601  22.600  29.310  0.00  0.00    +0.000 A 
ATOM      2  C   UNL     1      31.583  22.623  28.346  0.00  0.00    +0.000 A 
ATOM      3  C   UNL     1      31.247  22.753  27.012  0.00  0.00    +0.000 A 
ATOM      4  C   UNL     1      29.925  22.865  26.599  0.00  0.00    +0.000 A 
ATOM      5  N   UNL     1      29.623  22.990  25.302  0.00  0.00    +0.000 NA
ATOM      6  C   UNL     1      28.344  23.098  24.915  0.00  0.00    +0.000 A 
ATOM      7  C   UNL     1      27.975  23.230  23.591  0.00  0.00    +0.000 A 
ATOM      8  C   UNL     1      26.654  23.339  23.213  0.00  0.00    +0.000 A 
ATOM      9  N   UNL     1      26.311  23.476  21.816  0.00  0.00    +0.000 NA
ATOM     10  C   UNL     1      25.667  23.319  24.163  0.00  0.00    +0.000 A 
ATOM     11  C   UNL     1      25.993  23.190  25.482  0.00  0.00    +0.000 A 
ATOM     12  C   UNL     1      27.311  23.083  25.845  0.00  0.00    +0.000 A 
ATOM     13  C   UNL     1      27.627  22.954  27.169  0.00  0.00    +0.000 A 
ATOM     14  C   UNL     1      28.931  22.845  27.550  0.00  0.00    +0.000 A 
ATOM     15  C   UNL     1      29.290  22.712  28.901  0.00  0.00    +0.000 A 
ENDROOT
BRANCH  13  16
ATOM     16  O   UNL     1      26.623  22.932  28.158  0.00  0.00    +0.000 OA
ATOM     17  C   UNL     1      26.233  24.139  28.818  0.00  0.00    +0.000 C 
ENDBRANCH  13  16
BRANCH   1  18
ATOM     18  O   UNL     1      30.872  22.471  30.671  0.00  0.00    +0.000 OA
BRANCH  18  20
ATOM     19  C   UNL     1      30.440  21.481  32.761  0.00  0.00    +0.000 C 
ATOM     20  C   UNL     1      29.812  22.250  31.593  0.00  0.00    +0.000 C 
ENDBRANCH  18  20
ENDBRANCH   1  18
TORSDOF 3
ENDMDL
MODEL 4
REMARK VINA RESULT:      -6.3     20.131     22.487
REMARK  Name = 
REMARK  3 active torsions:
REMARK  status: ('A' for Active; 'I' for Inactive)
REMARK    1  A    between atoms: C_2  and  O_3
REMARK    2  A    between atoms: O_3  and  C_4
REMARK    3  A    between atoms: C_16  and  O_17
REMARK                            x       y       z     vdW  Elec       q    Type
REMARK                         _______ _______ _______ _____ _____    ______ ____
ROOT
ATOM      1  C   UNL     1      18.437  -7.345  26.819  0.00  0.00    +0.000 A 
ATOM      2  C   UNL     1      18.625  -6.030  26.457  0.00  0.00    +0.000 A 
ATOM      3  C   UNL     1      19.783  -5.645  25.811  0.00  0.00    +0.000 A 
ATOM      4  C   UNL     1      20.786  -6.555  25.504  0.00  0.00    +0.000 A 
ATOM      5  N   UNL     1      21.899  -6.160  24.877  0.00  0.00    +0.000 NA
ATOM      6  C   UNL     1      22.862  -7.048  24.585  0.00  0.00    +0.000 A 
ATOM      7  C   UNL     1      24.030  -6.695  23.940  0.00  0.00    +0.000 A 
ATOM      8  C   UNL     1      25.007  -7.622  23.649  0.00  0.00    +0.000 A 
ATOM      9  N   UNL     1      26.216  -7.212  22.972  0.00  0.00    +0.000 NA
ATOM     10  C   UNL     1      24.831  -8.935  24.003  0.00  0.00    +0.000 A 
ATOM     11  C   UNL     1      23.689  -9.321  24.643  0.00  0.00    +0.000 A 
ATOM     12  C   UNL     1      22.725  -8.388  24.926  0.00  0.00    +0.000 A 
ATOM     13  C   UNL     1      21.584  -8.786  25.567  0.00  0.00    +0.000 A 
ATOM     14  C   UNL     1      20.615  -7.874  25.857  0.00  0.00    +0.000 A 
ATOM     15  C   UNL     1      19.431  -8.248  26.515  0.00  0.00    +0.000 A 
ENDROOT
BRANCH  13  16
ATOM     16  O   UNL     1      21.389 -10.131  25.937  0.00  0.00    +0.000 OA
ATOM     17  C   UNL     1      21.852 -10.606  27.205  0.00  0.00    +0.000 C 
ENDBRANCH  13  16
BRANCH   1  18
ATOM     18  O   UNL     1      17.293  -7.799  27.473  0.00  0.00    +0.000 OA
BRANCH  18  20
ATOM     19  C   UNL     1      15.649  -8.234  25.847  0.00  0.00    +0.000 C 
ATOM     20  C   UNL     1      16.534  -8.869  26.926  0.00  0.00    +0.000 C 
ENDBRANCH  18  20
ENDBRANCH   1  18
TORSDOF 3
ENDMDL
MODEL 5
REMARK VINA RESULT:      -6.2     17.722     19.241
REMARK  Name = 
REMARK  3 active torsions:
REMARK  status: ('A' for Active; 'I' for Inactive)
REMARK    1  A    between atoms: C_2  and  O_3
REMARK    2  A    between atoms: O_3  and  C_4
REMARK    3  A    between atoms: C_16  and  O_17
REMARK                            x       y       z     vdW  Elec       q    Type
REMARK                         _______ _______ _______ _____ _____    ______ ____
ROOT
ATOM      1  C   UNL     1      29.033  22.656  30.117  0.00  0.00    +0.000 A 
ATOM      2  C   UNL     1      27.663  22.782  30.179  0.00  0.00    +0.000 A 
ATOM      3  C   UNL     1      26.926  22.942  29.022  0.00  0.00    +0.000 A 
ATOM      4  C   UNL     1      27.528  22.982  27.771  0.00  0.00    +0.000 A 
ATOM      5  N   UNL     1      26.794  23.139  26.664  0.00  0.00    +0.000 NA
ATOM      6  C   UNL     1      27.386  23.176  25.461  0.00  0.00    +0.000 A 
ATOM      7  C   UNL     1      26.678  23.335  24.287  0.00  0.00    +0.000 A 
ATOM      8  C   UNL     1      27.305  23.371  23.060  0.00  0.00    +0.000 A 
ATOM      9  N   UNL     1      26.527  23.539  21.854  0.00  0.00    +0.000 NA
ATOM     10  C   UNL     1      28.668  23.246  22.985  0.00  0.00    +0.000 A 
ATOM     11  C   UNL     1      29.401  23.088  24.125  0.00  0.00    +0.000 A 
ATOM     12  C   UNL     1      28.765  23.054  25.338  0.00  0.00    +0.000 A 
ATOM     13  C   UNL     1      29.510  22.894  26.474  0.00  0.00    +0.000 A 
ATOM     14  C   UNL     1      28.896  22.858  27.690  0.00  0.00    +0.000 A 
ATOM     15  C   UNL     1      29.631  22.696  28.877  0.00  0.00    +0.000 A 
ENDROOT
BRANCH  13  16
ATOM     16  O   UNL     1      30.912  22.765  26.414  0.00  0.00    +0.000 OA
ATOM     17  C   UNL     1      31.749  23.917  26.546  0.00  0.00    +0.000 C 
ENDBRANCH  13  16
BRANCH   1  18
ATOM     18  O   UNL     1      29.835  22.492  31.245  0.00  0.00    +0.000 OA
BRANCH  18  20
ATOM     19  C   UNL     1      31.777  21.234  31.672  0.00  0.00    +0.000 C 
ATOM     20  C   UNL     1      31.250  22.569  31.133  0.00  0.00    +0.000 C 
ENDBRANCH  18  20
ENDBRANCH   1  18
TORSDOF 3
ENDMDL
MODEL 6
REMARK VINA RESULT:      -6.1      2.956      4.541
REMARK  Name = 
REMARK  3 active torsions:
REMARK  status: ('A' for Active; 'I' for Inactive)
REMARK    1  A    between atoms: C_2  and  O_3
REMARK    2  A    between atoms: O_3  and  C_4
REMARK    3  A    between atoms: C_16  and  O_17
REMARK                            x       y       z     vdW  Elec       q    Type
REMARK                         _______ _______ _______ _____ _____    ______ ____
ROOT
ATOM      1  C   UNL     1      17.985   8.226  41.236  0.00  0.00    +0.000 A 
ATOM      2  C   UNL     1      16.771   8.195  41.885  0.00  0.00    +0.000 A 
ATOM      3  C   UNL     1      15.684   8.869  41.364  0.00  0.00    +0.000 A 
ATOM      4  C   UNL     1      15.772   9.594  40.182  0.00  0.00    +0.000 A 
ATOM      5  N   UNL     1      14.707  10.239  39.696  0.00  0.00    +0.000 NA
ATOM      6  C   UNL     1      14.804  10.937  38.553  0.00  0.00    +0.000 A 
ATOM      7  C   UNL     1      13.737  11.621  38.006  0.00  0.00    +0.000 A 
ATOM      8  C   UNL     1      13.856  12.331  36.831  0.00  0.00    +0.000 A 
ATOM      9  N   UNL     1      12.715  13.034  36.291  0.00  0.00    +0.000 NA
ATOM     10  C   UNL     1      15.059  12.371  36.175  0.00  0.00    +0.000 A 
ATOM     11  C   UNL     1      16.136  11.706  36.686  0.00  0.00    +0.000 A 
ATOM     12  C   UNL     1      16.004  11.003  37.855  0.00  0.00    +0.000 A 
ATOM     13  C   UNL     1      17.089  10.341  38.359  0.00  0.00    +0.000 A 
ATOM     14  C   UNL     1      16.978   9.637  39.520  0.00  0.00    +0.000 A 
ATOM     15  C   UNL     1      18.073   8.945  40.064  0.00  0.00    +0.000 A 
ENDROOT
BRANCH  13  16
ATOM     16  O   UNL     1      18.332  10.372  37.696  0.00  0.00    +0.000 OA
ATOM     17  C   UNL     1      19.296  11.380  38.015  0.00  0.00    +0.000 C 
ENDBRANCH  13  16
BRANCH   1  18
ATOM     18  O   UNL     1      19.119   7.569  41.709  0.00  0.00    +0.000 OA
BRANCH  18  20
ATOM     19  C   UNL     1      18.998   5.470  40.652  0.00  0.00    +0.000 C 
ATOM     20  C   UNL     1      19.067   6.180  42.009  0.00  0.00    +0.000 C 
ENDBRANCH  18  20
ENDBRANCH   1  18
TORSDOF 3
ENDMDL
MODEL 7
REMARK VINA RESULT:      -6.0     19.017     21.556
REMARK  Name = 
REMARK  3 active torsions:
REMARK  status: ('A' for Active; 'I' for Inactive)
REMARK    1  A    between atoms: C_2  and  O_3
REMARK    2  A    between atoms: O_3  and  C_4
REMARK    3  A    between atoms: C_16  and  O_17
REMARK                            x       y       z     vdW  Elec       q    Type
REMARK                         _______ _______ _______ _____ _____    ______ ____
ROOT
ATOM      1  C   UNL     1      29.089  24.156  22.208  0.00  0.00    +0.000 A 
ATOM      2  C   UNL     1      27.745  23.863  22.263  0.00  0.00    +0.000 A 
ATOM      3  C   UNL     1      27.162  23.487  23.457  0.00  0.00    +0.000 A 
ATOM      4  C   UNL     1      27.898  23.390  24.631  0.00  0.00    +0.000 A 
ATOM      5  N   UNL     1      27.313  23.023  25.776  0.00  0.00    +0.000 NA
ATOM      6  C   UNL     1      28.034  22.933  26.904  0.00  0.00    +0.000 A 
ATOM      7  C   UNL     1      27.482  22.560  28.113  0.00  0.00    +0.000 A 
ATOM      8  C   UNL     1      28.239  22.474  29.261  0.00  0.00    +0.000 A 
ATOM      9  N   UNL     1      27.622  22.079  30.507  0.00  0.00    +0.000 NA
ATOM     10  C   UNL     1      29.578  22.763  29.221  0.00  0.00    +0.000 A 
ATOM     11  C   UNL     1      30.159  23.135  28.043  0.00  0.00    +0.000 A 
ATOM     12  C   UNL     1      29.394  23.218  26.909  0.00  0.00    +0.000 A 
ATOM     13  C   UNL     1      29.986  23.592  25.734  0.00  0.00    +0.000 A 
ATOM     14  C   UNL     1      29.243  23.679  24.595  0.00  0.00    +0.000 A 
ATOM     15  C   UNL     1      29.820  24.061  23.372  0.00  0.00    +0.000 A 
ENDROOT
BRANCH  13  16
ATOM     16  O   UNL     1      31.362  23.893  25.676  0.00  0.00    +0.000 OA
ATOM     17  C   UNL     1      31.819  25.228  25.907  0.00  0.00    +0.000 C 
ENDBRANCH  13  16
BRANCH   1  18
ATOM     18  O   UNL     1      29.738  24.542  21.037  0.00  0.00    +0.000 OA
BRANCH  18  20
ATOM     19  C   UNL     1      29.456  26.855  21.358  0.00  0.00    +0.000 C 
ATOM     20  C   UNL     1      29.326  25.713  20.344  0.00  0.00    +0.000 C 
ENDBRANCH  18  20
ENDBRANCH   1  18
TORSDOF 3
ENDMDL
MODEL 8
REMARK VINA RESULT:      -5.8     20.155     22.376
REMARK  Name = 
REMARK  3 active torsions:
REMARK  status: ('A' for Active; 'I' for Inactive)
REMARK    1  A    between atoms: C_2  and  O_3
REMARK    2  A    between atoms: O_3  and  C_4
REMARK    3  A    between atoms: C_16  and  O_17
REMARK                            x       y       z     vdW  Elec       q    Type
REMARK                         _______ _______ _______ _____ _____    ______ ____
ROOT
ATOM      1  C   UNL     1      18.632  -9.488  28.332  0.00  0.00    +0.000 A 
ATOM      2  C   UNL     1      19.584 -10.455  28.559  0.00  0.00    +0.000 A 
ATOM      3  C   UNL     1      20.774 -10.440  27.858  0.00  0.00    +0.000 A 
ATOM      4  C   UNL     1      21.052  -9.462  26.911  0.00  0.00    +0.000 A 
ATOM      5  N   UNL     1      22.211  -9.466  26.244  0.00  0.00    +0.000 NA
ATOM      6  C   UNL     1      22.469  -8.517  25.332  0.00  0.00    +0.000 A 
ATOM      7  C   UNL     1      23.647  -8.473  24.615  0.00  0.00    +0.000 A 
ATOM      8  C   UNL     1      23.894  -7.489  23.682  0.00  0.00    +0.000 A 
ATOM      9  N   UNL     1      25.141  -7.479  22.953  0.00  0.00    +0.000 NA
ATOM     10  C   UNL     1      22.954  -6.519  23.447  0.00  0.00    +0.000 A 
ATOM     11  C   UNL     1      21.776  -6.530  24.137  0.00  0.00    +0.000 A 
ATOM     12  C   UNL     1      21.544  -7.515  25.062  0.00  0.00    +0.000 A 
ATOM     13  C   UNL     1      20.361  -7.516  25.748  0.00  0.00    +0.000 A 
ATOM     14  C   UNL     1      20.111  -8.486  26.671  0.00  0.00    +0.000 A 
ATOM     15  C   UNL     1      18.907  -8.518  27.393  0.00  0.00    +0.000 A 
ENDROOT
BRANCH  13  16
ATOM     16  O   UNL     1      19.385  -6.526  25.517  0.00  0.00    +0.000 OA
ATOM     17  C   UNL     1      19.432  -5.287  26.230  0.00  0.00    +0.000 C 
ENDBRANCH  13  16
BRANCH   1  18
ATOM     18  O   UNL     1      17.412  -9.447  29.004  0.00  0.00    +0.000 OA
BRANCH  18  20
ATOM     19  C   UNL     1      16.898 -10.232  31.161  0.00  0.00    +0.000 C 
ATOM     20  C   UNL     1      16.926 -10.602  29.674  0.00  0.00    +0.000 C 
ENDBRANCH  18  20
ENDBRANCH   1  18
TORSDOF 3
ENDMDL
MODEL 9
REMARK VINA RESULT:      -5.8     18.324     20.768
REMARK  Name = 
REMARK  3 active torsions:
REMARK  status: ('A' for Active; 'I' for Inactive)
REMARK    1  A    between atoms: C_2  and  O_3
REMARK    2  A    between atoms: O_3  and  C_4
REMARK    3  A    between atoms: C_16  and  O_17
REMARK                            x       y       z     vdW  Elec       q    Type
REMARK                         _______ _______ _______ _____ _____    ______ ____
ROOT
ATOM      1  C   UNL     1      29.168  23.452  23.593  0.00  0.00    +0.000 A 
ATOM      2  C   UNL     1      30.525  23.525  23.812  0.00  0.00    +0.000 A 
ATOM      3  C   UNL     1      31.034  23.391  25.089  0.00  0.00    +0.000 A 
ATOM      4  C   UNL     1      30.207  23.181  26.185  0.00  0.00    +0.000 A 
ATOM      5  N   UNL     1      30.721  23.054  27.414  0.00  0.00    +0.000 NA
ATOM      6  C   UNL     1      29.913  22.850  28.465  0.00  0.00    +0.000 A 
ATOM      7  C   UNL     1      30.389  22.712  29.754  0.00  0.00    +0.000 A 
ATOM      8  C   UNL     1      29.543  22.504  30.822  0.00  0.00    +0.000 A 
ATOM      9  N   UNL     1      30.082  22.364  32.155  0.00  0.00    +0.000 NA
ATOM     10  C   UNL     1      28.190  22.429  30.618  0.00  0.00    +0.000 A 
ATOM     11  C   UNL     1      27.683  22.561  29.357  0.00  0.00    +0.000 A 
ATOM     12  C   UNL     1      28.536  22.768  28.304  0.00  0.00    +0.000 A 
ATOM     13  C   UNL     1      28.016  22.898  27.045  0.00  0.00    +0.000 A 
ATOM     14  C   UNL     1      28.848  23.105  25.985  0.00  0.00    +0.000 A 
ATOM     15  C   UNL     1      28.348  23.243  24.680  0.00  0.00    +0.000 A 
ENDROOT
BRANCH  13  16
ATOM     16  O   UNL     1      26.628  22.823  26.819  0.00  0.00    +0.000 OA
ATOM     17  C   UNL     1      25.817  23.998  26.916  0.00  0.00    +0.000 C 
ENDBRANCH  13  16
BRANCH   1  18
ATOM     18  O   UNL     1      28.592  23.579  22.330  0.00  0.00    +0.000 OA
BRANCH  18  20
ATOM     19  C   UNL     1      28.089  25.821  21.820  0.00  0.00    +0.000 C 
ATOM     20  C   UNL     1      28.992  24.633  21.465  0.00  0.00    +0.000 C 
ENDBRANCH  18  20
ENDBRANCH   1  18
TORSDOF 3
ENDMDL
MODEL 10
REMARK VINA RESULT:      -5.8      6.298      8.398
REMARK  Name = 
REMARK  3 active torsions:
REMARK  status: ('A' for Active; 'I' for Inactive)
REMARK    1  A    between atoms: C_2  and  O_3
REMARK    2  A    between atoms: O_3  and  C_4
REMARK    3  A    between atoms: C_16  and  O_17
REMARK                            x       y       z     vdW  Elec       q    Type
REMARK                         _______ _______ _______ _____ _____    ______ ____
ROOT
ATOM      1  C   UNL     1      19.912  10.634  37.846  0.00  0.00    +0.000 A 
ATOM      2  C   UNL     1      19.243  11.776  38.223  0.00  0.00    +0.000 A 
ATOM      3  C   UNL     1      19.943  12.935  38.498  0.00  0.00    +0.000 A 
ATOM      4  C   UNL     1      21.328  12.991  38.405  0.00  0.00    +0.000 A 
ATOM      5  N   UNL     1      21.985  14.124  38.676  0.00  0.00    +0.000 NA
ATOM      6  C   UNL     1      23.322  14.168  38.583  0.00  0.00    +0.000 A 
ATOM      7  C   UNL     1      24.051  15.309  38.851  0.00  0.00    +0.000 A 
ATOM      8  C   UNL     1      25.425  15.333  38.750  0.00  0.00    +0.000 A 
ATOM      9  N   UNL     1      26.151  16.549  39.038  0.00  0.00    +0.000 NA
ATOM     10  C   UNL     1      26.103  14.203  38.374  0.00  0.00    +0.000 A 
ATOM     11  C   UNL     1      25.417  13.055  38.102  0.00  0.00    +0.000 A 
ATOM     12  C   UNL     1      24.050  13.045  38.206  0.00  0.00    +0.000 A 
ATOM     13  C   UNL     1      23.372  11.890  37.931  0.00  0.00    +0.000 A 
ATOM     14  C   UNL     1      22.013  11.859  38.029  0.00  0.00    +0.000 A 
ATOM     15  C   UNL     1      21.285  10.689  37.754  0.00  0.00    +0.000 A 
ENDROOT
BRANCH  13  16
ATOM     16  O   UNL     1      24.055  10.720  37.544  0.00  0.00    +0.000 OA
ATOM     17  C   UNL     1      24.332  10.469  36.163  0.00  0.00    +0.000 C 
ENDBRANCH  13  16
BRANCH   1  18
ATOM     18  O   UNL     1      19.267   9.433  37.555  0.00  0.00    +0.000 OA
BRANCH  18  20
ATOM     19  C   UNL     1      18.330   9.344  35.399  0.00  0.00    +0.000 C 
ATOM     20  C   UNL     1      18.008   9.441  36.895  0.00  0.00    +0.000 C 
ENDBRANCH  18  20
ENDBRANCH   1  18
TORSDOF 3
ENDMDL
