MODEL 1
REMARK VINA RESULT:      -5.9      0.000      0.000
REMARK  Name = 
REMARK  4 active torsions:
REMARK  status: ('A' for Active; 'I' for Inactive)
REMARK    1  A    between atoms: N_4  and  N_5
REMARK    2  A    between atoms: C_6  and  C_8
REMARK    3  A    between atoms: C_8  and  N_9
REMARK    4  A    between atoms: N_9  and  C_10
REMARK                            x       y       z     vdW  Elec       q    Type
REMARK                         _______ _______ _______ _____ _____    ______ ____
ROOT
ATOM      1  N   UNL     1      28.200  23.587  22.986  0.00  0.00    +0.000 NA
ENDROOT
BRANCH   1   2
ATOM      2  C   UNL     1      28.032  23.295  24.371  0.00  0.00    +0.000 A 
ATOM      3  C   UNL     1      26.806  23.446  24.979  0.00  0.00    +0.000 A 
ATOM      4  C   UNL     1      26.703  23.145  26.337  0.00  0.00    +0.000 A 
ATOM      5  C   UNL     1      27.812  22.703  27.057  0.00  0.00    +0.000 A 
ATOM      6  C   UNL     1      29.041  22.552  26.447  0.00  0.00    +0.000 A 
ATOM      7 CL   UNL     1      30.464  21.999  27.314  0.00  0.00    +0.000 Cl
ATOM      8  C   UNL     1      29.121  22.856  25.097  0.00  0.00    +0.000 A 
ATOM      9  C   UNL     1      30.413  22.708  24.412  0.00  0.00    +0.000 C 
ENDBRANCH   1   2
BRANCH   1  10
ATOM     10  C   UNL     1      28.129  24.926  22.499  0.00  0.00    +0.000 C 
BRANCH  10  12
ATOM     11  N   UNL     1      29.160  26.318  20.691  0.00  0.00    +0.000 NA
ATOM     12  C   UNL     1      29.029  25.068  21.335  0.00  0.00    +0.000 C 
ATOM     13  O   UNL     1      29.690  24.100  20.899  0.00  0.00    +0.000 OA
BRANCH  11  17
ATOM     14  C   UNL     1      31.196  27.885  18.050  0.00  0.00    +0.000 C 
ATOM     15  C   UNL     1      30.292  27.691  19.238  0.00  0.00    +0.000 C 
ATOM     16  C   UNL     1      29.811  28.918  19.912  0.00  0.00    +0.000 C 
ATOM     17  N   UNL     1      30.006  26.502  19.578  0.00  0.00    +0.000 NA
ENDBRANCH  11  17
ENDBRANCH  10  12
ENDBRANCH   1  10
TORSDOF 4
ENDMDL
MODEL 2
REMARK VINA RESULT:      -5.8      7.431     10.216
REMARK  Name = 
REMARK  4 active torsions:
REMARK  status: ('A' for Active; 'I' for Inactive)
REMARK    1  A    between atoms: N_4  and  N_5
REMARK    2  A    between atoms: C_6  and  C_8
REMARK    3  A    between atoms: C_8  and  N_9
REMARK    4  A    between atoms: N_9  and  C_10
REMARK                            x       y       z     vdW  Elec       q    Type
REMARK                         _______ _______ _______ _____ _____    ______ ____
ROOT
ATOM      1  N   UNL     1      29.014  24.613  14.312  0.00  0.00    +0.000 NA
ENDROOT
BRANCH   1   2
ATOM      2  C   UNL     1      28.302  23.870  13.327  0.00  0.00    +0.000 A 
ATOM      3  C   UNL     1      26.934  23.977  13.215  0.00  0.00    +0.000 A 
ATOM      4  C   UNL     1      26.292  23.226  12.232  0.00  0.00    +0.000 A 
ATOM      5  C   UNL     1      27.017  22.388  11.385  0.00  0.00    +0.000 A 
ATOM      6  C   UNL     1      28.388  22.281  11.498  0.00  0.00    +0.000 A 
ATOM      7 CL   UNL     1      29.342  21.240  10.453  0.00  0.00    +0.000 Cl
ATOM      8  C   UNL     1      29.006  23.037  12.481  0.00  0.00    +0.000 A 
ATOM      9  C   UNL     1      30.466  22.949  12.631  0.00  0.00    +0.000 C 
ENDBRANCH   1   2
BRANCH   1  10
ATOM     10  C   UNL     1      28.377  25.644  15.065  0.00  0.00    +0.000 C 
BRANCH  10  12
ATOM     11  N   UNL     1      30.199  26.582  16.504  0.00  0.00    +0.000 NA
ATOM     12  C   UNL     1      29.363  26.702  15.372  0.00  0.00    +0.000 C 
ATOM     13  O   UNL     1      29.482  27.715  14.647  0.00  0.00    +0.000 OA
BRANCH  11  17
ATOM     14  C   UNL     1      32.209  29.026  18.390  0.00  0.00    +0.000 C 
ATOM     15  C   UNL     1      31.190  27.978  18.036  0.00  0.00    +0.000 C 
ATOM     16  C   UNL     1      30.307  27.516  19.132  0.00  0.00    +0.000 C 
ATOM     17  N   UNL     1      31.154  27.564  16.837  0.00  0.00    +0.000 NA
ENDBRANCH  11  17
ENDBRANCH  10  12
ENDBRANCH   1  10
TORSDOF 4
ENDMDL
MODEL 3
REMARK VINA RESULT:      -5.8     21.148     23.023
REMARK  Name = 
REMARK  4 active torsions:
REMARK  status: ('A' for Active; 'I' for Inactive)
REMARK    1  A    between atoms: N_4  and  N_5
REMARK    2  A    between atoms: C_6  and  C_8
REMARK    3  A    between atoms: C_8  and  N_9
REMARK    4  A    between atoms: N_9  and  C_10
REMARK                            x       y       z     vdW  Elec       q    Type
REMARK                         _______ _______ _______ _____ _____    ______ ____
ROOT
ATOM      1  N   UNL     1      17.740  10.787  36.420  0.00  0.00    +0.000 NA
ENDROOT
BRANCH   1   2
ATOM      2  C   UNL     1      17.913  10.108  37.661  0.00  0.00    +0.000 A 
ATOM      3  C   UNL     1      19.077   9.428  37.937  0.00  0.00    +0.000 A 
ATOM      4  C   UNL     1      19.187   8.783  39.169  0.00  0.00    +0.000 A 
ATOM      5  C   UNL     1      18.145   8.827  40.094  0.00  0.00    +0.000 A 
ATOM      6  C   UNL     1      16.978   9.509  39.816  0.00  0.00    +0.000 A 
ATOM      7 CL   UNL     1      15.640   9.591  40.952  0.00  0.00    +0.000 Cl
ATOM      8  C   UNL     1      16.889  10.143  38.587  0.00  0.00    +0.000 A 
ATOM      9  C   UNL     1      15.661  10.880  38.255  0.00  0.00    +0.000 C 
ENDBRANCH   1   2
BRANCH   1  10
ATOM     10  C   UNL     1      17.248  10.106  35.267  0.00  0.00    +0.000 C 
BRANCH  10  12
ATOM     11  N   UNL     1      16.747  10.968  32.970  0.00  0.00    +0.000 NA
ATOM     12  C   UNL     1      16.593  11.081  34.369  0.00  0.00    +0.000 C 
ATOM     13  O   UNL     1      15.896  12.018  34.819  0.00  0.00    +0.000 OA
BRANCH  11  17
ATOM     14  C   UNL     1      14.417  12.487  30.554  0.00  0.00    +0.000 C 
ATOM     15  C   UNL     1      15.062  11.519  31.509  0.00  0.00    +0.000 C 
ATOM     16  C   UNL     1      14.372  10.224  31.705  0.00  0.00    +0.000 C 
ATOM     17  N   UNL     1      16.141  11.873  32.075  0.00  0.00    +0.000 NA
ENDBRANCH  11  17
ENDBRANCH  10  12
ENDBRANCH   1  10
TORSDOF 4
ENDMDL
MODEL 4
REMARK VINA RESULT:      -5.6     21.246     22.807
REMARK  Name = 
REMARK  4 active torsions:
REMARK  status: ('A' for Active; 'I' for Inactive)
REMARK    1  A    between atoms: N_4  and  N_5
REMARK    2  A    between atoms: C_6  and  C_8
REMARK    3  A    between atoms: C_8  and  N_9
REMARK    4  A    between atoms: N_9  and  C_10
REMARK                            x       y       z     vdW  Elec       q    Type
REMARK                         _______ _______ _______ _____ _____    ______ ____
ROOT
ATOM      1  N   UNL     1      17.546   9.806  37.273  0.00  0.00    +0.000 NA
ENDROOT
BRANCH   1   2
ATOM      2  C   UNL     1      16.601  10.659  36.634  0.00  0.00    +0.000 A 
ATOM      3  C   UNL     1      15.650  11.333  37.366  0.00  0.00    +0.000 A 
ATOM      4  C   UNL     1      14.752  12.153  36.684  0.00  0.00    +0.000 A 
ATOM      5  C   UNL     1      14.816  12.285  35.297  0.00  0.00    +0.000 A 
ATOM      6  C   UNL     1      15.769  11.608  34.564  0.00  0.00    +0.000 A 
ATOM      7 CL   UNL     1      15.887  11.745  32.816  0.00  0.00    +0.000 Cl
ATOM      8  C   UNL     1      16.652  10.800  35.261  0.00  0.00    +0.000 A 
ATOM      9  C   UNL     1      17.682  10.063  34.514  0.00  0.00    +0.000 C 
ENDBRANCH   1   2
BRANCH   1  10
ATOM     10  C   UNL     1      17.782   9.887  38.679  0.00  0.00    +0.000 C 
BRANCH  10  12
ATOM     11  N   UNL     1      19.908  10.896  37.824  0.00  0.00    +0.000 NA
ATOM     12  C   UNL     1      19.126  10.456  38.914  0.00  0.00    +0.000 C 
ATOM     13  O   UNL     1      19.597  10.562  40.069  0.00  0.00    +0.000 OA
BRANCH  11  17
ATOM     14  C   UNL     1      23.534  11.495  37.567  0.00  0.00    +0.000 C 
ATOM     15  C   UNL     1      22.162  10.908  37.379  0.00  0.00    +0.000 C 
ATOM     16  C   UNL     1      22.060   9.739  36.475  0.00  0.00    +0.000 C 
ATOM     17  N   UNL     1      21.195  11.446  38.000  0.00  0.00    +0.000 NA
ENDBRANCH  11  17
ENDBRANCH  10  12
ENDBRANCH   1  10
TORSDOF 4
ENDMDL
MODEL 5
REMARK VINA RESULT:      -5.6      5.571      8.219
REMARK  Name = 
REMARK  4 active torsions:
REMARK  status: ('A' for Active; 'I' for Inactive)
REMARK    1  A    between atoms: N_4  and  N_5
REMARK    2  A    between atoms: C_6  and  C_8
REMARK    3  A    between atoms: C_8  and  N_9
REMARK    4  A    between atoms: N_9  and  C_10
REMARK                            x       y       z     vdW  Elec       q    Type
REMARK                         _______ _______ _______ _____ _____    ______ ____
ROOT
ATOM      1  N   UNL     1      27.256  22.686  27.766  0.00  0.00    +0.000 NA
ENDROOT
BRANCH   1   2
ATOM      2  C   UNL     1      28.231  22.688  26.726  0.00  0.00    +0.000 A 
ATOM      3  C   UNL     1      29.557  22.440  27.002  0.00  0.00    +0.000 A 
ATOM      4  C   UNL     1      30.464  22.456  25.943  0.00  0.00    +0.000 A 
ATOM      5  C   UNL     1      30.039  22.716  24.641  0.00  0.00    +0.000 A 
ATOM      6  C   UNL     1      28.709  22.965  24.365  0.00  0.00    +0.000 A 
ATOM      7 CL   UNL     1      28.129  23.296  22.741  0.00  0.00    +0.000 Cl
ATOM      8  C   UNL     1      27.824  22.944  25.432  0.00  0.00    +0.000 A 
ATOM      9  C   UNL     1      26.400  23.204  25.178  0.00  0.00    +0.000 C 
ENDBRANCH   1   2
BRANCH   1  10
ATOM     10  C   UNL     1      27.583  22.250  29.085  0.00  0.00    +0.000 C 
BRANCH  10  12
ATOM     11  N   UNL     1      26.485  24.223  30.165  0.00  0.00    +0.000 NA
ATOM     12  C   UNL     1      26.612  22.822  30.041  0.00  0.00    +0.000 C 
ATOM     13  O   UNL     1      25.888  22.092  30.752  0.00  0.00    +0.000 OA
BRANCH  11  17
ATOM     14  C   UNL     1      23.940  26.454  31.622  0.00  0.00    +0.000 C 
ATOM     15  C   UNL     1      24.913  25.823  30.663  0.00  0.00    +0.000 C 
ATOM     16  C   UNL     1      25.017  26.442  29.322  0.00  0.00    +0.000 C 
ATOM     17  N   UNL     1      25.573  24.815  31.063  0.00  0.00    +0.000 NA
ENDBRANCH  11  17
ENDBRANCH  10  12
ENDBRANCH   1  10
TORSDOF 4
ENDMDL
MODEL 6
REMARK VINA RESULT:      -5.5     32.213     33.077
REMARK  Name = 
REMARK  4 active torsions:
REMARK  status: ('A' for Active; 'I' for Inactive)
REMARK    1  A    between atoms: N_4  and  N_5
REMARK    2  A    between atoms: C_6  and  C_8
REMARK    3  A    between atoms: C_8  and  N_9
REMARK    4  A    between atoms: N_9  and  C_10
REMARK                            x       y       z     vdW  Elec       q    Type
REMARK                         _______ _______ _______ _____ _____    ______ ____
ROOT
ATOM      1  N   UNL     1      21.696  -7.653  25.481  0.00  0.00    +0.000 NA
ENDROOT
BRANCH   1   2
ATOM      2  C   UNL     1      20.457  -7.188  26.010  0.00  0.00    +0.000 A 
ATOM      3  C   UNL     1      20.038  -5.895  25.793  0.00  0.00    +0.000 A 
ATOM      4  C   UNL     1      18.817  -5.498  26.336  0.00  0.00    +0.000 A 
ATOM      5  C   UNL     1      18.042  -6.388  27.079  0.00  0.00    +0.000 A 
ATOM      6  C   UNL     1      18.463  -7.685  27.296  0.00  0.00    +0.000 A 
ATOM      7 CL   UNL     1      17.519  -8.839  28.224  0.00  0.00    +0.000 Cl
ATOM      8  C   UNL     1      19.679  -8.059  26.747  0.00  0.00    +0.000 A 
ATOM      9  C   UNL     1      20.160  -9.431  26.957  0.00  0.00    +0.000 C 
ENDBRANCH   1   2
BRANCH   1  10
ATOM     10  C   UNL     1      22.084  -7.357  24.140  0.00  0.00    +0.000 C 
BRANCH  10  12
ATOM     11  N   UNL     1      24.383  -7.552  23.167  0.00  0.00    +0.000 NA
ATOM     12  C   UNL     1      23.513  -6.979  24.120  0.00  0.00    +0.000 C 
ATOM     13  O   UNL     1      23.981  -6.151  24.934  0.00  0.00    +0.000 OA
BRANCH  11  17
ATOM     14  C   UNL     1      27.986  -7.640  22.401  0.00  0.00    +0.000 C 
ATOM     15  C   UNL     1      26.525  -7.994  22.461  0.00  0.00    +0.000 C 
ATOM     16  C   UNL     1      26.111  -9.225  21.750  0.00  0.00    +0.000 C 
ATOM     17  N   UNL     1      25.753  -7.222  23.110  0.00  0.00    +0.000 NA
ENDBRANCH  11  17
ENDBRANCH  10  12
ENDBRANCH   1  10
TORSDOF 4
ENDMDL
MODEL 7
REMARK VINA RESULT:      -5.5     20.806     22.583
REMARK  Name = 
REMARK  4 active torsions:
REMARK  status: ('A' for Active; 'I' for Inactive)
REMARK    1  A    between atoms: N_4  and  N_5
REMARK    2  A    between atoms: C_6  and  C_8
REMARK    3  A    between atoms: C_8  and  N_9
REMARK    4  A    between atoms: N_9  and  C_10
REMARK                            x       y       z     vdW  Elec       q    Type
REMARK                         _______ _______ _______ _____ _____    ______ ____
ROOT
ATOM      1  N   UNL     1      20.891   9.976  37.706  0.00  0.00    +0.000 NA
ENDROOT
BRANCH   1   2
ATOM      2  C   UNL     1      22.210  10.215  37.223  0.00  0.00    +0.000 A 
ATOM      3  C   UNL     1      22.846   9.294  36.422  0.00  0.00    +0.000 A 
ATOM      4  C   UNL     1      24.136   9.584  35.980  0.00  0.00    +0.000 A 
ATOM      5  C   UNL     1      24.764  10.776  36.340  0.00  0.00    +0.000 A 
ATOM      6  C   UNL     1      24.126  11.699  37.143  0.00  0.00    +0.000 A 
ATOM      7 CL   UNL     1      24.878  13.213  37.622  0.00  0.00    +0.000 Cl
ATOM      8  C   UNL     1      22.844  11.391  37.571  0.00  0.00    +0.000 A 
ATOM      9  C   UNL     1      22.133  12.350  38.428  0.00  0.00    +0.000 C 
ENDBRANCH   1   2
BRANCH   1  10
ATOM     10  C   UNL     1      19.790   9.834  36.810  0.00  0.00    +0.000 C 
BRANCH  10  12
ATOM     11  N   UNL     1      17.488  10.664  37.341  0.00  0.00    +0.000 NA
ATOM     12  C   UNL     1      18.536   9.751  37.589  0.00  0.00    +0.000 C 
ATOM     13  O   UNL     1      18.374   8.881  38.474  0.00  0.00    +0.000 OA
BRANCH  11  17
ATOM     14  C   UNL     1      13.980  11.187  38.337  0.00  0.00    +0.000 C 
ATOM     15  C   UNL     1      15.274  11.232  37.570  0.00  0.00    +0.000 C 
ATOM     16  C   UNL     1      15.265  11.991  36.299  0.00  0.00    +0.000 C 
ATOM     17  N   UNL     1      16.275  10.623  38.058  0.00  0.00    +0.000 NA
ENDBRANCH  11  17
ENDBRANCH  10  12
ENDBRANCH   1  10
TORSDOF 4
ENDMDL
MODEL 8
REMARK VINA RESULT:      -5.4     11.151     14.471
REMARK  Name = 
REMARK  4 active torsions:
REMARK  status: ('A' for Active; 'I' for Inactive)
REMARK    1  A    between atoms: N_4  and  N_5
REMARK    2  A    between atoms: C_6  and  C_8
REMARK    3  A    between atoms: C_8  and  N_9
REMARK    4  A    between atoms: N_9  and  C_10
REMARK                            x       y       z     vdW  Elec       q    Type
REMARK                         _______ _______ _______ _____ _____    ______ ____
ROOT
ATOM      1  N   UNL     1      32.341  21.876  10.702  0.00  0.00    +0.000 NA
ENDROOT
BRANCH   1   2
ATOM      2  C   UNL     1      32.624  21.270   9.444  0.00  0.00    +0.000 A 
ATOM      3  C   UNL     1      33.907  21.246   8.944  0.00  0.00    +0.000 A 
ATOM      4  C   UNL     1      34.121  20.638   7.708  0.00  0.00    +0.000 A 
ATOM      5  C   UNL     1      33.064  20.071   6.998  0.00  0.00    +0.000 A 
ATOM      6  C   UNL     1      31.778  20.095   7.499  0.00  0.00    +0.000 A 
ATOM      7 CL   UNL     1      30.417  19.392   6.639  0.00  0.00    +0.000 Cl
ATOM      8  C   UNL     1      31.587  20.703   8.729  0.00  0.00    +0.000 A 
ATOM      9  C   UNL     1      30.232  20.749   9.296  0.00  0.00    +0.000 C 
ENDBRANCH   1   2
BRANCH   1  10
ATOM     10  C   UNL     1      32.479  21.147  11.921  0.00  0.00    +0.000 C 
BRANCH  10  12
ATOM     11  N   UNL     1      30.624  22.645  12.686  0.00  0.00    +0.000 NA
ATOM     12  C   UNL     1      31.305  21.412  12.780  0.00  0.00    +0.000 C 
ATOM     13  O   UNL     1      30.891  20.563  13.600  0.00  0.00    +0.000 OA
BRANCH  11  17
ATOM     14  C   UNL     1      27.172  23.345  13.766  0.00  0.00    +0.000 C 
ATOM     15  C   UNL     1      28.370  23.027  12.913  0.00  0.00    +0.000 C 
ATOM     16  C   UNL     1      28.121  22.840  11.465  0.00  0.00    +0.000 C 
ATOM     17  N   UNL     1      29.500  22.942  13.484  0.00  0.00    +0.000 NA
ENDBRANCH  11  17
ENDBRANCH  10  12
ENDBRANCH   1  10
TORSDOF 4
ENDMDL
MODEL 9
REMARK VINA RESULT:      -5.4     22.238     24.744
REMARK  Name = 
REMARK  4 active torsions:
REMARK  status: ('A' for Active; 'I' for Inactive)
REMARK    1  A    between atoms: N_4  and  N_5
REMARK    2  A    between atoms: C_6  and  C_8
REMARK    3  A    between atoms: C_8  and  N_9
REMARK    4  A    between atoms: N_9  and  C_10
REMARK                            x       y       z     vdW  Elec       q    Type
REMARK                         _______ _______ _______ _____ _____    ______ ____
ROOT
ATOM      1  N   UNL     1      18.018  10.770  36.749  0.00  0.00    +0.000 NA
ENDROOT
BRANCH   1   2
ATOM      2  C   UNL     1      17.192  10.988  35.608  0.00  0.00    +0.000 A 
ATOM      3  C   UNL     1      17.394  10.278  34.446  0.00  0.00    +0.000 A 
ATOM      4  C   UNL     1      16.553  10.535  33.363  0.00  0.00    +0.000 A 
ATOM      5  C   UNL     1      15.537  11.485  33.456  0.00  0.00    +0.000 A 
ATOM      6  C   UNL     1      15.336  12.196  34.622  0.00  0.00    +0.000 A 
ATOM      7 CL   UNL     1      14.068  13.401  34.785  0.00  0.00    +0.000 Cl
ATOM      8  C   UNL     1      16.181  11.925  35.686  0.00  0.00    +0.000 A 
ATOM      9  C   UNL     1      15.998  12.663  36.944  0.00  0.00    +0.000 C 
ENDBRANCH   1   2
BRANCH   1  10
ATOM     10  C   UNL     1      18.025   9.515  37.428  0.00  0.00    +0.000 C 
BRANCH  10  12
ATOM     11  N   UNL     1      16.771   9.582  39.594  0.00  0.00    +0.000 NA
ATOM     12  C   UNL     1      17.981   9.752  38.886  0.00  0.00    +0.000 C 
ATOM     13  O   UNL     1      19.000  10.102  39.522  0.00  0.00    +0.000 OA
BRANCH  11  17
ATOM     14  C   UNL     1      16.426   9.013  43.218  0.00  0.00    +0.000 C 
ATOM     15  C   UNL     1      16.521   8.784  41.734  0.00  0.00    +0.000 C 
ATOM     16  C   UNL     1      16.420   7.380  41.272  0.00  0.00    +0.000 C 
ATOM     17  N   UNL     1      16.681   9.796  40.985  0.00  0.00    +0.000 NA
ENDBRANCH  11  17
ENDBRANCH  10  12
ENDBRANCH   1  10
TORSDOF 4
ENDMDL
MODEL 10
REMARK VINA RESULT:      -5.4     23.041     24.757
REMARK  Name = 
REMARK  4 active torsions:
REMARK  status: ('A' for Active; 'I' for Inactive)
REMARK    1  A    between atoms: N_4  and  N_5
REMARK    2  A    between atoms: C_6  and  C_8
REMARK    3  A    between atoms: C_8  and  N_9
REMARK    4  A    between atoms: N_9  and  C_10
REMARK                            x       y       z     vdW  Elec       q    Type
REMARK                         _______ _______ _______ _____ _____    ______ ____
ROOT
ATOM      1  N   UNL     1      17.391  10.202  37.245  0.00  0.00    +0.000 NA
ENDROOT
BRANCH   1   2
ATOM      2  C   UNL     1      17.725   9.871  38.590  0.00  0.00    +0.000 A 
ATOM      3  C   UNL     1      16.757   9.829  39.568  0.00  0.00    +0.000 A 
ATOM      4  C   UNL     1      17.146   9.499  40.866  0.00  0.00    +0.000 A 
ATOM      5  C   UNL     1      18.479   9.217  41.163  0.00  0.00    +0.000 A 
ATOM      6  C   UNL     1      19.449   9.259  40.182  0.00  0.00    +0.000 A 
ATOM      7 CL   UNL     1      21.139   8.911  40.510  0.00  0.00    +0.000 Cl
ATOM      8  C   UNL     1      19.041   9.589  38.899  0.00  0.00    +0.000 A 
ATOM      9  C   UNL     1      20.046   9.643  37.827  0.00  0.00    +0.000 C 
ENDBRANCH   1   2
BRANCH   1  10
ATOM     10  C   UNL     1      17.054  11.538  36.875  0.00  0.00    +0.000 C 
BRANCH  10  12
ATOM     11  N   UNL     1      14.619  11.796  37.396  0.00  0.00    +0.000 NA
ATOM     12  C   UNL     1      15.641  11.582  36.445  0.00  0.00    +0.000 C 
ATOM     13  O   UNL     1      15.318  11.435  35.245  0.00  0.00    +0.000 OA
BRANCH  11  17
ATOM     14  C   UNL     1      10.975  11.250  37.352  0.00  0.00    +0.000 C 
ATOM     15  C   UNL     1      12.428  11.196  37.741  0.00  0.00    +0.000 C 
ATOM     16  C   UNL     1      12.766  10.379  38.928  0.00  0.00    +0.000 C 
ATOM     17  N   UNL     1      13.257  11.846  37.033  0.00  0.00    +0.000 NA
ENDBRANCH  11  17
ENDBRANCH  10  12
ENDBRANCH   1  10
TORSDOF 4
ENDMDL
