MODEL 1
REMARK VINA RESULT:      -8.2      0.000      0.000
REMARK  Name = 
REMARK  8 active torsions:
REMARK  status: ('A' for Active; 'I' for Inactive)
REMARK    1  A    between atoms: C_2  and  C_4
REMARK    2  A    between atoms: C_8  and  C_9
REMARK    3  A    between atoms: C_12  and  N_13
REMARK    4  A    between atoms: C_14  and  C_16
REMARK    5  A    between atoms: C_16  and  O_17
REMARK    6  A    between atoms: O_17  and  C_18
REMARK    7  A    between atoms: C_18  and  C_20
REMARK    8  A    between atoms: C_23  and  C_24
REMARK                            x       y       z     vdW  Elec       q    Type
REMARK                         _______ _______ _______ _____ _____    ______ ____
ROOT
ATOM      1  C   UNL     1      37.319   1.964  13.528  0.00  0.00    +0.000 C 
ENDROOT
BRANCH   1   3
ATOM      2  N   UNL     1      37.968   0.339  15.376  0.00  0.00    +0.000 NA
ATOM      3  C   UNL     1      37.252   0.652  14.196  0.00  0.00    +0.000 C 
ATOM      4  O   UNL     1      36.519  -0.239  13.696  0.00  0.00    +0.000 OA
BRANCH   2  10
ATOM      5  C   UNL     1      38.733  -1.966  15.741  0.00  0.00    +0.000 A 
ATOM      6  C   UNL     1      38.662  -3.166  16.458  0.00  0.00    +0.000 A 
ATOM      7  C   UNL     1      37.798  -3.321  17.511  0.00  0.00    +0.000 A 
ATOM      8  C   UNL     1      36.998  -2.266  17.848  0.00  0.00    +0.000 A 
ATOM      9  C   UNL     1      37.071  -1.092  17.142  0.00  0.00    +0.000 A 
ATOM     10  C   UNL     1      37.939  -0.896  16.063  0.00  0.00    +0.000 A 
BRANCH   5  12
ATOM     11  C   UNL     1      39.122  -2.588  13.386  0.00  0.00    +0.000 C 
ATOM     12  C   UNL     1      39.685  -1.862  14.612  0.00  0.00    +0.000 C 
ATOM     13  C   UNL     1      40.960  -2.599  15.029  0.00  0.00    +0.000 C 
ENDBRANCH   5  12
BRANCH   9  14
ATOM     14  C   UNL     1      36.204   0.061  17.500  0.00  0.00    +0.000 C 
ATOM     15  C   UNL     1      36.253   0.381  18.961  0.00  0.00    +0.000 C 
ATOM     16  C   UNL     1      34.808  -0.099  16.965  0.00  0.00    +0.000 C 
ENDBRANCH   9  14
ENDBRANCH   2  10
ENDBRANCH   1   3
BRANCH   1  17
ATOM     17  O   UNL     1      36.233   2.796  13.737  0.00  0.00    +0.000 OA
BRANCH  17  18
ATOM     18  C   UNL     1      35.946   3.317  14.981  0.00  0.00    +0.000 C 
ATOM     19  O   UNL     1      34.780   3.158  15.420  0.00  0.00    +0.000 OA
BRANCH  18  20
ATOM     20  C   UNL     1      36.967   4.039  15.774  0.00  0.00    +0.000 A 
ATOM     21  C   UNL     1      37.338   3.538  17.001  0.00  0.00    +0.000 A 
ATOM     22  C   UNL     1      38.285   4.149  17.817  0.00  0.00    +0.000 A 
ATOM     23  C   UNL     1      38.882   5.320  17.363  0.00  0.00    +0.000 A 
ATOM     24  C   UNL     1      38.504   5.810  16.135  0.00  0.00    +0.000 A 
ATOM     25  C   UNL     1      37.551   5.186  15.329  0.00  0.00    +0.000 A 
BRANCH  23  26
ATOM     26  C   UNL     1      39.874   5.941  18.231  0.00  0.00    +0.000 A 
ATOM     27  C   UNL     1      41.143   6.144  17.730  0.00  0.00    +0.000 A 
ATOM     28  C   UNL     1      42.175   6.719  18.446  0.00  0.00    +0.000 A 
ATOM     29  C   UNL     1      41.914   7.115  19.747  0.00  0.00    +0.000 A 
ATOM     30  C   UNL     1      40.639   6.916  20.262  0.00  0.00    +0.000 A 
ATOM     31  C   UNL     1      39.639   6.338  19.511  0.00  0.00    +0.000 A 
ENDBRANCH  23  26
ENDBRANCH  18  20
ENDBRANCH  17  18
ENDBRANCH   1  17
TORSDOF 8
ENDMDL
MODEL 2
REMARK VINA RESULT:      -8.0      0.695      3.196
REMARK  Name = 
REMARK  8 active torsions:
REMARK  status: ('A' for Active; 'I' for Inactive)
REMARK    1  A    between atoms: C_2  and  C_4
REMARK    2  A    between atoms: C_8  and  C_9
REMARK    3  A    between atoms: C_12  and  N_13
REMARK    4  A    between atoms: C_14  and  C_16
REMARK    5  A    between atoms: C_16  and  O_17
REMARK    6  A    between atoms: O_17  and  C_18
REMARK    7  A    between atoms: C_18  and  C_20
REMARK    8  A    between atoms: C_23  and  C_24
REMARK                            x       y       z     vdW  Elec       q    Type
REMARK                         _______ _______ _______ _____ _____    ______ ____
ROOT
ATOM      1  C   UNL     1      37.773   1.692  13.038  0.00  0.00    +0.000 C 
ENDROOT
BRANCH   1   3
ATOM      2  N   UNL     1      38.506   0.179  14.948  0.00  0.00    +0.000 NA
ATOM      3  C   UNL     1      37.737   0.423  13.785  0.00  0.00    +0.000 C 
ATOM      4  O   UNL     1      36.983  -0.496  13.372  0.00  0.00    +0.000 OA
BRANCH   2  10
ATOM      5  C   UNL     1      37.635  -1.265  16.734  0.00  0.00    +0.000 A 
ATOM      6  C   UNL     1      37.684  -2.465  17.452  0.00  0.00    +0.000 A 
ATOM      7  C   UNL     1      38.607  -3.437  17.161  0.00  0.00    +0.000 A 
ATOM      8  C   UNL     1      39.487  -3.205  16.143  0.00  0.00    +0.000 A 
ATOM      9  C   UNL     1      39.436  -2.027  15.441  0.00  0.00    +0.000 A 
ATOM     10  C   UNL     1      38.509  -1.013  15.708  0.00  0.00    +0.000 A 
BRANCH   5  12
ATOM     11  C   UNL     1      36.451  -0.206  18.620  0.00  0.00    +0.000 C 
ATOM     12  C   UNL     1      36.617  -0.254  17.098  0.00  0.00    +0.000 C 
ATOM     13  C   UNL     1      35.285  -0.724  16.510  0.00  0.00    +0.000 C 
ENDBRANCH   5  12
BRANCH   9  14
ATOM     14  C   UNL     1      40.390  -1.764  14.333  0.00  0.00    +0.000 C 
ATOM     15  C   UNL     1      40.018  -2.486  13.075  0.00  0.00    +0.000 C 
ATOM     16  C   UNL     1      41.816  -1.986  14.755  0.00  0.00    +0.000 C 
ENDBRANCH   9  14
ENDBRANCH   2  10
ENDBRANCH   1   3
BRANCH   1  17
ATOM     17  O   UNL     1      36.716   2.554  13.276  0.00  0.00    +0.000 OA
BRANCH  17  18
ATOM     18  C   UNL     1      36.311   2.871  14.555  0.00  0.00    +0.000 C 
ATOM     19  O   UNL     1      35.152   2.528  14.896  0.00  0.00    +0.000 OA
BRANCH  18  20
ATOM     20  C   UNL     1      37.201   3.589  15.495  0.00  0.00    +0.000 A 
ATOM     21  C   UNL     1      38.165   4.434  14.991  0.00  0.00    +0.000 A 
ATOM     22  C   UNL     1      39.046   5.147  15.797  0.00  0.00    +0.000 A 
ATOM     23  C   UNL     1      38.944   4.994  17.175  0.00  0.00    +0.000 A 
ATOM     24  C   UNL     1      37.976   4.148  17.667  0.00  0.00    +0.000 A 
ATOM     25  C   UNL     1      37.100   3.440  16.845  0.00  0.00    +0.000 A 
BRANCH  23  26
ATOM     26  C   UNL     1      39.874   5.753  18.000  0.00  0.00    +0.000 A 
ATOM     27  C   UNL     1      39.490   6.082  19.284  0.00  0.00    +0.000 A 
ATOM     28  C   UNL     1      40.274   6.798  20.167  0.00  0.00    +0.000 A 
ATOM     29  C   UNL     1      41.523   7.209  19.733  0.00  0.00    +0.000 A 
ATOM     30  C   UNL     1      41.921   6.884  18.442  0.00  0.00    +0.000 A 
ATOM     31  C   UNL     1      41.106   6.166  17.594  0.00  0.00    +0.000 A 
ENDBRANCH  23  26
ENDBRANCH  18  20
ENDBRANCH  17  18
ENDBRANCH   1  17
TORSDOF 8
ENDMDL
MODEL 3
REMARK VINA RESULT:      -7.8      1.492      2.405
REMARK  Name = 
REMARK  8 active torsions:
REMARK  status: ('A' for Active; 'I' for Inactive)
REMARK    1  A    between atoms: C_2  and  C_4
REMARK    2  A    between atoms: C_8  and  C_9
REMARK    3  A    between atoms: C_12  and  N_13
REMARK    4  A    between atoms: C_14  and  C_16
REMARK    5  A    between atoms: C_16  and  O_17
REMARK    6  A    between atoms: O_17  and  C_18
REMARK    7  A    between atoms: C_18  and  C_20
REMARK    8  A    between atoms: C_23  and  C_24
REMARK                            x       y       z     vdW  Elec       q    Type
REMARK                         _______ _______ _______ _____ _____    ______ ____
ROOT
ATOM      1  C   UNL     1      36.950   2.684  15.382  0.00  0.00    +0.000 C 
ENDROOT
BRANCH   1   3
ATOM      2  N   UNL     1      37.485   0.366  16.286  0.00  0.00    +0.000 NA
ATOM      3  C   UNL     1      36.871   1.214  15.333  0.00  0.00    +0.000 C 
ATOM      4  O   UNL     1      36.222   0.678  14.398  0.00  0.00    +0.000 OA
BRANCH   2  10
ATOM      5  C   UNL     1      38.358  -1.843  15.659  0.00  0.00    +0.000 A 
ATOM      6  C   UNL     1      38.263  -3.238  15.702  0.00  0.00    +0.000 A 
ATOM      7  C   UNL     1      37.249  -3.867  16.379  0.00  0.00    +0.000 A 
ATOM      8  C   UNL     1      36.324  -3.091  17.018  0.00  0.00    +0.000 A 
ATOM      9  C   UNL     1      36.421  -1.724  16.973  0.00  0.00    +0.000 A 
ATOM     10  C   UNL     1      37.440  -1.047  16.294  0.00  0.00    +0.000 A 
BRANCH   5  12
ATOM     11  C   UNL     1      39.119  -1.140  13.421  0.00  0.00    +0.000 C 
ATOM     12  C   UNL     1      39.474  -1.224  14.909  0.00  0.00    +0.000 C 
ATOM     13  C   UNL     1      40.677  -2.161  15.037  0.00  0.00    +0.000 C 
ENDBRANCH   5  12
BRANCH   9  14
ATOM     14  C   UNL     1      35.418  -0.871  17.663  0.00  0.00    +0.000 C 
ATOM     15  C   UNL     1      35.766  -0.628  19.099  0.00  0.00    +0.000 C 
ATOM     16  C   UNL     1      34.017  -1.377  17.461  0.00  0.00    +0.000 C 
ENDBRANCH   9  14
ENDBRANCH   2  10
ENDBRANCH   1   3
BRANCH   1  17
ATOM     17  O   UNL     1      37.973   3.201  16.157  0.00  0.00    +0.000 OA
BRANCH  17  18
ATOM     18  C   UNL     1      38.385   4.511  16.037  0.00  0.00    +0.000 C 
ATOM     19  O   UNL     1      38.014   5.143  15.018  0.00  0.00    +0.000 OA
BRANCH  18  20
ATOM     20  C   UNL     1      39.234   5.155  17.066  0.00  0.00    +0.000 A 
ATOM     21  C   UNL     1      40.399   5.777  16.679  0.00  0.00    +0.000 A 
ATOM     22  C   UNL     1      41.260   6.404  17.574  0.00  0.00    +0.000 A 
ATOM     23  C   UNL     1      40.920   6.399  18.922  0.00  0.00    +0.000 A 
ATOM     24  C   UNL     1      39.752   5.775  19.297  0.00  0.00    +0.000 A 
ATOM     25  C   UNL     1      38.900   5.149  18.387  0.00  0.00    +0.000 A 
BRANCH  23  26
ATOM     26  C   UNL     1      41.832   7.066  19.841  0.00  0.00    +0.000 A 
ATOM     27  C   UNL     1      42.577   6.286  20.701  0.00  0.00    +0.000 A 
ATOM     28  C   UNL     1      43.475   6.789  21.622  0.00  0.00    +0.000 A 
ATOM     29  C   UNL     1      43.635   8.163  21.681  0.00  0.00    +0.000 A 
ATOM     30  C   UNL     1      42.890   8.960  20.820  0.00  0.00    +0.000 A 
ATOM     31  C   UNL     1      42.005   8.414  19.916  0.00  0.00    +0.000 A 
ENDBRANCH  23  26
ENDBRANCH  18  20
ENDBRANCH  17  18
ENDBRANCH   1  17
TORSDOF 8
ENDMDL
MODEL 4
REMARK VINA RESULT:      -7.8      1.920      4.092
REMARK  Name = 
REMARK  8 active torsions:
REMARK  status: ('A' for Active; 'I' for Inactive)
REMARK    1  A    between atoms: C_2  and  C_4
REMARK    2  A    between atoms: C_8  and  C_9
REMARK    3  A    between atoms: C_12  and  N_13
REMARK    4  A    between atoms: C_14  and  C_16
REMARK    5  A    between atoms: C_16  and  O_17
REMARK    6  A    between atoms: O_17  and  C_18
REMARK    7  A    between atoms: C_18  and  C_20
REMARK    8  A    between atoms: C_23  and  C_24
REMARK                            x       y       z     vdW  Elec       q    Type
REMARK                         _______ _______ _______ _____ _____    ______ ____
ROOT
ATOM      1  C   UNL     1      37.012   3.419  16.374  0.00  0.00    +0.000 C 
ENDROOT
BRANCH   1   3
ATOM      2  N   UNL     1      37.145   0.880  16.261  0.00  0.00    +0.000 NA
ATOM      3  C   UNL     1      36.611   2.114  15.819  0.00  0.00    +0.000 C 
ATOM      4  O   UNL     1      35.748   2.090  14.905  0.00  0.00    +0.000 OA
BRANCH   2  10
ATOM      5  C   UNL     1      35.765  -1.152  16.272  0.00  0.00    +0.000 A 
ATOM      6  C   UNL     1      35.464  -2.414  15.747  0.00  0.00    +0.000 A 
ATOM      7  C   UNL     1      36.187  -2.950  14.712  0.00  0.00    +0.000 A 
ATOM      8  C   UNL     1      37.218  -2.216  14.200  0.00  0.00    +0.000 A 
ATOM      9  C   UNL     1      37.510  -0.980  14.717  0.00  0.00    +0.000 A 
ATOM     10  C   UNL     1      36.796  -0.400  15.772  0.00  0.00    +0.000 A 
BRANCH   5  12
ATOM     11  C   UNL     1      35.692  -0.832  18.716  0.00  0.00    +0.000 C 
ATOM     12  C   UNL     1      34.949  -0.629  17.392  0.00  0.00    +0.000 C 
ATOM     13  C   UNL     1      33.675  -1.474  17.452  0.00  0.00    +0.000 C 
ENDBRANCH   5  12
BRANCH   9  14
ATOM     14  C   UNL     1      38.631  -0.174  14.167  0.00  0.00    +0.000 C 
ATOM     15  C   UNL     1      38.548  -0.019  12.681  0.00  0.00    +0.000 C 
ATOM     16  C   UNL     1      39.967  -0.671  14.647  0.00  0.00    +0.000 C 
ENDBRANCH   9  14
ENDBRANCH   2  10
ENDBRANCH   1   3
BRANCH   1  17
ATOM     17  O   UNL     1      38.335   3.770  16.176  0.00  0.00    +0.000 OA
BRANCH  17  18
ATOM     18  C   UNL     1      38.754   5.083  16.225  0.00  0.00    +0.000 C 
ATOM     19  O   UNL     1      38.377   5.846  15.302  0.00  0.00    +0.000 OA
BRANCH  18  20
ATOM     20  C   UNL     1      39.616   5.582  17.322  0.00  0.00    +0.000 A 
ATOM     21  C   UNL     1      40.893   6.003  17.029  0.00  0.00    +0.000 A 
ATOM     22  C   UNL     1      41.774   6.484  17.993  0.00  0.00    +0.000 A 
ATOM     23  C   UNL     1      41.336   6.539  19.311  0.00  0.00    +0.000 A 
ATOM     24  C   UNL     1      40.057   6.115  19.591  0.00  0.00    +0.000 A 
ATOM     25  C   UNL     1      39.186   5.635  18.613  0.00  0.00    +0.000 A 
BRANCH  23  26
ATOM     26  C   UNL     1      42.273   7.049  20.304  0.00  0.00    +0.000 A 
ATOM     27  C   UNL     1      42.878   6.147  21.154  0.00  0.00    +0.000 A 
ATOM     28  C   UNL     1      43.781   6.497  22.138  0.00  0.00    +0.000 A 
ATOM     29  C   UNL     1      44.097   7.839  22.276  0.00  0.00    +0.000 A 
ATOM     30  C   UNL     1      43.494   8.757  21.424  0.00  0.00    +0.000 A 
ATOM     31  C   UNL     1      42.597   8.362  20.455  0.00  0.00    +0.000 A 
ENDBRANCH  23  26
ENDBRANCH  18  20
ENDBRANCH  17  18
ENDBRANCH   1  17
TORSDOF 8
ENDMDL
MODEL 5
REMARK VINA RESULT:      -7.5      1.496      2.210
REMARK  Name = 
REMARK  8 active torsions:
REMARK  status: ('A' for Active; 'I' for Inactive)
REMARK    1  A    between atoms: C_2  and  C_4
REMARK    2  A    between atoms: C_8  and  C_9
REMARK    3  A    between atoms: C_12  and  N_13
REMARK    4  A    between atoms: C_14  and  C_16
REMARK    5  A    between atoms: C_16  and  O_17
REMARK    6  A    between atoms: O_17  and  C_18
REMARK    7  A    between atoms: C_18  and  C_20
REMARK    8  A    between atoms: C_23  and  C_24
REMARK                            x       y       z     vdW  Elec       q    Type
REMARK                         _______ _______ _______ _____ _____    ______ ____
ROOT
ATOM      1  C   UNL     1      35.929   1.809  14.935  0.00  0.00    +0.000 C 
ENDROOT
BRANCH   1   3
ATOM      2  N   UNL     1      37.829   0.320  15.738  0.00  0.00    +0.000 NA
ATOM      3  C   UNL     1      36.708   0.559  14.907  0.00  0.00    +0.000 C 
ATOM      4  O   UNL     1      36.363  -0.347  14.107  0.00  0.00    +0.000 OA
BRANCH   2  10
ATOM      5  C   UNL     1      39.714  -1.056  14.971  0.00  0.00    +0.000 A 
ATOM      6  C   UNL     1      40.451  -2.244  15.037  0.00  0.00    +0.000 A 
ATOM      7  C   UNL     1      40.102  -3.258  15.892  0.00  0.00    +0.000 A 
ATOM      8  C   UNL     1      39.005  -3.080  16.687  0.00  0.00    +0.000 A 
ATOM      9  C   UNL     1      38.286  -1.914  16.619  0.00  0.00    +0.000 A 
ATOM     10  C   UNL     1      38.611  -0.858  15.761  0.00  0.00    +0.000 A 
BRANCH   5  12
ATOM     11  C   UNL     1      39.628  -0.323  12.618  0.00  0.00    +0.000 C 
ATOM     12  C   UNL     1      40.141  -0.000  14.025  0.00  0.00    +0.000 C 
ATOM     13  C   UNL     1      41.669  -0.036  13.971  0.00  0.00    +0.000 C 
ENDBRANCH   5  12
BRANCH   9  14
ATOM     14  C   UNL     1      37.091  -1.711  17.479  0.00  0.00    +0.000 C 
ATOM     15  C   UNL     1      37.423  -1.746  18.937  0.00  0.00    +0.000 C 
ATOM     16  C   UNL     1      35.962  -2.629  17.097  0.00  0.00    +0.000 C 
ENDBRANCH   9  14
ENDBRANCH   2  10
ENDBRANCH   1   3
BRANCH   1  17
ATOM     17  O   UNL     1      36.303   2.766  14.008  0.00  0.00    +0.000 OA
BRANCH  17  18
ATOM     18  C   UNL     1      37.489   3.460  14.118  0.00  0.00    +0.000 C 
ATOM     19  O   UNL     1      38.359   3.262  13.235  0.00  0.00    +0.000 OA
BRANCH  18  20
ATOM     20  C   UNL     1      37.735   4.404  15.232  0.00  0.00    +0.000 A 
ATOM     21  C   UNL     1      38.140   3.909  16.451  0.00  0.00    +0.000 A 
ATOM     22  C   UNL     1      38.392   4.719  17.554  0.00  0.00    +0.000 A 
ATOM     23  C   UNL     1      38.225   6.091  17.411  0.00  0.00    +0.000 A 
ATOM     24  C   UNL     1      37.820   6.574  16.188  0.00  0.00    +0.000 A 
ATOM     25  C   UNL     1      37.571   5.749  15.091  0.00  0.00    +0.000 A 
BRANCH  23  26
ATOM     26  C   UNL     1      38.497   6.921  18.577  0.00  0.00    +0.000 A 
ATOM     27  C   UNL     1      37.673   7.999  18.818  0.00  0.00    +0.000 A 
ATOM     28  C   UNL     1      37.821   8.865  19.884  0.00  0.00    +0.000 A 
ATOM     29  C   UNL     1      38.865   8.630  20.764  0.00  0.00    +0.000 A 
ATOM     30  C   UNL     1      39.702   7.546  20.532  0.00  0.00    +0.000 A 
ATOM     31  C   UNL     1      39.516   6.708  19.454  0.00  0.00    +0.000 A 
ENDBRANCH  23  26
ENDBRANCH  18  20
ENDBRANCH  17  18
ENDBRANCH   1  17
TORSDOF 8
ENDMDL
MODEL 6
REMARK VINA RESULT:      -7.4      1.519      3.260
REMARK  Name = 
REMARK  8 active torsions:
REMARK  status: ('A' for Active; 'I' for Inactive)
REMARK    1  A    between atoms: C_2  and  C_4
REMARK    2  A    between atoms: C_8  and  C_9
REMARK    3  A    between atoms: C_12  and  N_13
REMARK    4  A    between atoms: C_14  and  C_16
REMARK    5  A    between atoms: C_16  and  O_17
REMARK    6  A    between atoms: O_17  and  C_18
REMARK    7  A    between atoms: C_18  and  C_20
REMARK    8  A    between atoms: C_23  and  C_24
REMARK                            x       y       z     vdW  Elec       q    Type
REMARK                         _______ _______ _______ _____ _____    ______ ____
ROOT
ATOM      1  C   UNL     1      35.259   0.532  16.200  0.00  0.00    +0.000 C 
ENDROOT
BRANCH   1   3
ATOM      2  N   UNL     1      37.672  -0.278  16.183  0.00  0.00    +0.000 NA
ATOM      3  C   UNL     1      36.342  -0.335  15.702  0.00  0.00    +0.000 C 
ATOM      4  O   UNL     1      36.075  -1.173  14.804  0.00  0.00    +0.000 OA
BRANCH   2  10
ATOM      5  C   UNL     1      38.998  -2.345  16.232  0.00  0.00    +0.000 A 
ATOM      6  C   UNL     1      40.079  -3.100  15.765  0.00  0.00    +0.000 A 
ATOM      7  C   UNL     1      40.933  -2.613  14.809  0.00  0.00    +0.000 A 
ATOM      8  C   UNL     1      40.702  -1.361  14.317  0.00  0.00    +0.000 A 
ATOM      9  C   UNL     1      39.641  -0.623  14.777  0.00  0.00    +0.000 A 
ATOM     10  C   UNL     1      38.748  -1.085  15.751  0.00  0.00    +0.000 A 
BRANCH   5  12
ATOM     11  C   UNL     1      38.611  -2.527  18.661  0.00  0.00    +0.000 C 
ATOM     12  C   UNL     1      38.113  -2.925  17.268  0.00  0.00    +0.000 C 
ATOM     13  C   UNL     1      38.232  -4.446  17.160  0.00  0.00    +0.000 C 
ENDBRANCH   5  12
BRANCH   9  14
ATOM     14  C   UNL     1      39.381   0.741  14.249  0.00  0.00    +0.000 C 
ATOM     15  C   UNL     1      38.518   0.726  13.027  0.00  0.00    +0.000 C 
ATOM     16  C   UNL     1      40.651   1.528  14.079  0.00  0.00    +0.000 C 
ENDBRANCH   9  14
ENDBRANCH   2  10
ENDBRANCH   1   3
BRANCH   1  17
ATOM     17  O   UNL     1      34.801   1.485  15.307  0.00  0.00    +0.000 OA
BRANCH  17  18
ATOM     18  C   UNL     1      34.899   2.835  15.571  0.00  0.00    +0.000 C 
ATOM     19  O   UNL     1      33.831   3.466  15.765  0.00  0.00    +0.000 OA
BRANCH  18  20
ATOM     20  C   UNL     1      36.210   3.522  15.625  0.00  0.00    +0.000 A 
ATOM     21  C   UNL     1      36.906   3.543  16.812  0.00  0.00    +0.000 A 
ATOM     22  C   UNL     1      38.141   4.166  16.958  0.00  0.00    +0.000 A 
ATOM     23  C   UNL     1      38.694   4.793  15.847  0.00  0.00    +0.000 A 
ATOM     24  C   UNL     1      37.989   4.764  14.665  0.00  0.00    +0.000 A 
ATOM     25  C   UNL     1      36.750   4.136  14.536  0.00  0.00    +0.000 A 
BRANCH  23  26
ATOM     26  C   UNL     1      39.990   5.435  16.020  0.00  0.00    +0.000 A 
ATOM     27  C   UNL     1      40.352   5.843  17.287  0.00  0.00    +0.000 A 
ATOM     28  C   UNL     1      41.548   6.465  17.588  0.00  0.00    +0.000 A 
ATOM     29  C   UNL     1      42.436   6.690  16.550  0.00  0.00    +0.000 A 
ATOM     30  C   UNL     1      42.083   6.283  15.269  0.00  0.00    +0.000 A 
ATOM     31  C   UNL     1      40.878   5.665  15.015  0.00  0.00    +0.000 A 
ENDBRANCH  23  26
ENDBRANCH  18  20
ENDBRANCH  17  18
ENDBRANCH   1  17
TORSDOF 8
ENDMDL
MODEL 7
REMARK VINA RESULT:      -7.3      2.054      7.368
REMARK  Name = 
REMARK  8 active torsions:
REMARK  status: ('A' for Active; 'I' for Inactive)
REMARK    1  A    between atoms: C_2  and  C_4
REMARK    2  A    between atoms: C_8  and  C_9
REMARK    3  A    between atoms: C_12  and  N_13
REMARK    4  A    between atoms: C_14  and  C_16
REMARK    5  A    between atoms: C_16  and  O_17
REMARK    6  A    between atoms: O_17  and  C_18
REMARK    7  A    between atoms: C_18  and  C_20
REMARK    8  A    between atoms: C_23  and  C_24
REMARK                            x       y       z     vdW  Elec       q    Type
REMARK                         _______ _______ _______ _____ _____    ______ ____
ROOT
ATOM      1  C   UNL     1      35.311   2.351  16.450  0.00  0.00    +0.000 C 
ENDROOT
BRANCH   1   3
ATOM      2  N   UNL     1      37.733   3.062  16.130  0.00  0.00    +0.000 NA
ATOM      3  C   UNL     1      36.361   3.146  15.791  0.00  0.00    +0.000 C 
ATOM      4  O   UNL     1      36.027   3.942  14.876  0.00  0.00    +0.000 OA
BRANCH   2  10
ATOM      5  C   UNL     1      39.489   3.357  14.438  0.00  0.00    +0.000 A 
ATOM      6  C   UNL     1      40.521   4.124  13.885  0.00  0.00    +0.000 A 
ATOM      7  C   UNL     1      40.869   5.342  14.412  0.00  0.00    +0.000 A 
ATOM      8  C   UNL     1      40.179   5.793  15.501  0.00  0.00    +0.000 A 
ATOM      9  C   UNL     1      39.169   5.038  16.040  0.00  0.00    +0.000 A 
ATOM     10  C   UNL     1      38.784   3.793  15.530  0.00  0.00    +0.000 A 
BRANCH   5  12
ATOM     11  C   UNL     1      40.441   1.379  13.313  0.00  0.00    +0.000 C 
ATOM     12  C   UNL     1      39.162   2.050  13.825  0.00  0.00    +0.000 C 
ATOM     13  C   UNL     1      38.279   2.332  12.608  0.00  0.00    +0.000 C 
ENDBRANCH   5  12
BRANCH   9  14
ATOM     14  C   UNL     1      38.413   5.520  17.225  0.00  0.00    +0.000 C 
ATOM     15  C   UNL     1      38.061   6.971  17.127  0.00  0.00    +0.000 C 
ATOM     16  C   UNL     1      39.095   5.152  18.513  0.00  0.00    +0.000 C 
ENDBRANCH   9  14
ENDBRANCH   2  10
ENDBRANCH   1   3
BRANCH   1  17
ATOM     17  O   UNL     1      35.759   1.290  17.218  0.00  0.00    +0.000 OA
BRANCH  17  18
ATOM     18  C   UNL     1      35.694  -0.011  16.768  0.00  0.00    +0.000 C 
ATOM     19  O   UNL     1      34.689  -0.688  17.097  0.00  0.00    +0.000 OA
BRANCH  18  20
ATOM     20  C   UNL     1      36.765  -0.596  15.928  0.00  0.00    +0.000 A 
ATOM     21  C   UNL     1      36.601  -0.629  14.562  0.00  0.00    +0.000 A 
ATOM     22  C   UNL     1      37.550  -1.160  13.695  0.00  0.00    +0.000 A 
ATOM     23  C   UNL     1      38.717  -1.681  14.242  0.00  0.00    +0.000 A 
ATOM     24  C   UNL     1      38.870  -1.642  15.609  0.00  0.00    +0.000 A 
ATOM     25  C   UNL     1      37.908  -1.106  16.465  0.00  0.00    +0.000 A 
BRANCH  23  26
ATOM     26  C   UNL     1      39.700  -2.229  13.317  0.00  0.00    +0.000 A 
ATOM     27  C   UNL     1      39.436  -2.154  11.965  0.00  0.00    +0.000 A 
ATOM     28  C   UNL     1      40.279  -2.636  10.983  0.00  0.00    +0.000 A 
ATOM     29  C   UNL     1      41.464  -3.230  11.386  0.00  0.00    +0.000 A 
ATOM     30  C   UNL     1      41.741  -3.310  12.745  0.00  0.00    +0.000 A 
ATOM     31  C   UNL     1      40.869  -2.816  13.691  0.00  0.00    +0.000 A 
ENDBRANCH  23  26
ENDBRANCH  18  20
ENDBRANCH  17  18
ENDBRANCH   1  17
TORSDOF 8
ENDMDL
MODEL 8
REMARK VINA RESULT:      -7.2      2.927      8.132
REMARK  Name = 
REMARK  8 active torsions:
REMARK  status: ('A' for Active; 'I' for Inactive)
REMARK    1  A    between atoms: C_2  and  C_4
REMARK    2  A    between atoms: C_8  and  C_9
REMARK    3  A    between atoms: C_12  and  N_13
REMARK    4  A    between atoms: C_14  and  C_16
REMARK    5  A    between atoms: C_16  and  O_17
REMARK    6  A    between atoms: O_17  and  C_18
REMARK    7  A    between atoms: C_18  and  C_20
REMARK    8  A    between atoms: C_23  and  C_24
REMARK                            x       y       z     vdW  Elec       q    Type
REMARK                         _______ _______ _______ _____ _____    ______ ____
ROOT
ATOM      1  C   UNL     1      36.579   8.332  14.394  0.00  0.00    +0.000 C 
ENDROOT
BRANCH   1   3
ATOM      2  N   UNL     1      37.270   7.541  16.712  0.00  0.00    +0.000 NA
ATOM      3  C   UNL     1      37.591   8.013  15.417  0.00  0.00    +0.000 C 
ATOM      4  O   UNL     1      38.805   8.165  15.128  0.00  0.00    +0.000 OA
BRANCH   2  10
ATOM      5  C   UNL     1      38.656   8.111  18.658  0.00  0.00    +0.000 A 
ATOM      6  C   UNL     1      39.571   7.730  19.645  0.00  0.00    +0.000 A 
ATOM      7  C   UNL     1      40.044   6.445  19.726  0.00  0.00    +0.000 A 
ATOM      8  C   UNL     1      39.597   5.536  18.811  0.00  0.00    +0.000 A 
ATOM      9  C   UNL     1      38.700   5.913  17.845  0.00  0.00    +0.000 A 
ATOM     10  C   UNL     1      38.194   7.213  17.730  0.00  0.00    +0.000 A 
BRANCH   5  12
ATOM     11  C   UNL     1      39.179  10.377  17.838  0.00  0.00    +0.000 C 
ATOM     12  C   UNL     1      38.185   9.514  18.621  0.00  0.00    +0.000 C 
ATOM     13  C   UNL     1      38.178  10.024  20.064  0.00  0.00    +0.000 C 
ENDBRANCH   5  12
BRANCH   9  14
ATOM     14  C   UNL     1      38.207   4.932  16.844  0.00  0.00    +0.000 C 
ATOM     15  C   UNL     1      37.587   3.728  17.480  0.00  0.00    +0.000 C 
ATOM     16  C   UNL     1      39.259   4.598  15.821  0.00  0.00    +0.000 C 
ENDBRANCH   9  14
ENDBRANCH   2  10
ENDBRANCH   1   3
BRANCH   1  17
ATOM     17  O   UNL     1      35.486   7.484  14.351  0.00  0.00    +0.000 OA
BRANCH  17  18
ATOM     18  C   UNL     1      35.403   6.450  13.443  0.00  0.00    +0.000 C 
ATOM     19  O   UNL     1      35.217   6.750  12.239  0.00  0.00    +0.000 OA
BRANCH  18  20
ATOM     20  C   UNL     1      35.528   5.035  13.865  0.00  0.00    +0.000 A 
ATOM     21  C   UNL     1      34.636   4.530  14.783  0.00  0.00    +0.000 A 
ATOM     22  C   UNL     1      34.678   3.216  15.239  0.00  0.00    +0.000 A 
ATOM     23  C   UNL     1      35.670   2.380  14.740  0.00  0.00    +0.000 A 
ATOM     24  C   UNL     1      36.556   2.897  13.822  0.00  0.00    +0.000 A 
ATOM     25  C   UNL     1      36.501   4.217  13.375  0.00  0.00    +0.000 A 
BRANCH  23  26
ATOM     26  C   UNL     1      35.693   1.008  15.228  0.00  0.00    +0.000 A 
ATOM     27  C   UNL     1      36.393   0.068  14.501  0.00  0.00    +0.000 A 
ATOM     28  C   UNL     1      36.493  -1.264  14.850  0.00  0.00    +0.000 A 
ATOM     29  C   UNL     1      35.849  -1.678  16.004  0.00  0.00    +0.000 A 
ATOM     30  C   UNL     1      35.141  -0.740  16.746  0.00  0.00    +0.000 A 
ATOM     31  C   UNL     1      35.068   0.581  16.359  0.00  0.00    +0.000 A 
ENDBRANCH  23  26
ENDBRANCH  18  20
ENDBRANCH  17  18
ENDBRANCH   1  17
TORSDOF 8
ENDMDL
MODEL 9
REMARK VINA RESULT:      -7.2      2.016      7.736
REMARK  Name = 
REMARK  8 active torsions:
REMARK  status: ('A' for Active; 'I' for Inactive)
REMARK    1  A    between atoms: C_2  and  C_4
REMARK    2  A    between atoms: C_8  and  C_9
REMARK    3  A    between atoms: C_12  and  N_13
REMARK    4  A    between atoms: C_14  and  C_16
REMARK    5  A    between atoms: C_16  and  O_17
REMARK    6  A    between atoms: O_17  and  C_18
REMARK    7  A    between atoms: C_18  and  C_20
REMARK    8  A    between atoms: C_23  and  C_24
REMARK                            x       y       z     vdW  Elec       q    Type
REMARK                         _______ _______ _______ _____ _____    ______ ____
ROOT
ATOM      1  C   UNL     1      35.344   2.456  16.315  0.00  0.00    +0.000 C 
ENDROOT
BRANCH   1   3
ATOM      2  N   UNL     1      37.761   3.239  16.177  0.00  0.00    +0.000 NA
ATOM      3  C   UNL     1      36.398   3.356  15.815  0.00  0.00    +0.000 C 
ATOM      4  O   UNL     1      36.075   4.277  15.022  0.00  0.00    +0.000 OA
BRANCH   2  10
ATOM      5  C   UNL     1      39.184   5.234  16.342  0.00  0.00    +0.000 A 
ATOM      6  C   UNL     1      40.238   6.012  15.851  0.00  0.00    +0.000 A 
ATOM      7  C   UNL     1      40.945   5.641  14.736  0.00  0.00    +0.000 A 
ATOM      8  C   UNL     1      40.592   4.480  14.108  0.00  0.00    +0.000 A 
ATOM      9  C   UNL     1      39.559   3.720  14.592  0.00  0.00    +0.000 A 
ATOM     10  C   UNL     1      38.815   4.066  15.726  0.00  0.00    +0.000 A 
BRANCH   5  12
ATOM     11  C   UNL     1      38.189   7.195  17.457  0.00  0.00    +0.000 C 
ATOM     12  C   UNL     1      38.458   5.690  17.549  0.00  0.00    +0.000 C 
ATOM     13  C   UNL     1      39.388   5.467  18.744  0.00  0.00    +0.000 C 
ENDBRANCH   5  12
BRANCH   9  14
ATOM     14  C   UNL     1      39.166   2.457  13.916  0.00  0.00    +0.000 C 
ATOM     15  C   UNL     1      40.337   1.560  13.656  0.00  0.00    +0.000 C 
ATOM     16  C   UNL     1      38.321   2.711  12.698  0.00  0.00    +0.000 C 
ENDBRANCH   9  14
ENDBRANCH   2  10
ENDBRANCH   1   3
BRANCH   1  17
ATOM     17  O   UNL     1      35.776   1.425  17.131  0.00  0.00    +0.000 OA
BRANCH  17  18
ATOM     18  C   UNL     1      35.727   0.108  16.727  0.00  0.00    +0.000 C 
ATOM     19  O   UNL     1      34.814  -0.609  17.203  0.00  0.00    +0.000 OA
BRANCH  18  20
ATOM     20  C   UNL     1      36.710  -0.446  15.768  0.00  0.00    +0.000 A 
ATOM     21  C   UNL     1      37.841  -1.064  16.251  0.00  0.00    +0.000 A 
ATOM     22  C   UNL     1      38.820  -1.610  15.427  0.00  0.00    +0.000 A 
ATOM     23  C   UNL     1      38.639  -1.526  14.051  0.00  0.00    +0.000 A 
ATOM     24  C   UNL     1      37.505  -0.907  13.580  0.00  0.00    +0.000 A 
ATOM     25  C   UNL     1      36.533  -0.363  14.420  0.00  0.00    +0.000 A 
BRANCH  23  26
ATOM     26  C   UNL     1      39.674  -2.108  13.207  0.00  0.00    +0.000 A 
ATOM     27  C   UNL     1      40.855  -2.503  13.800  0.00  0.00    +0.000 A 
ATOM     28  C   UNL     1      41.915  -3.066  13.117  0.00  0.00    +0.000 A 
ATOM     29  C   UNL     1      41.778  -3.244  11.750  0.00  0.00    +0.000 A 
ATOM     30  C   UNL     1      40.593  -2.850  11.141  0.00  0.00    +0.000 A 
ATOM     31  C   UNL     1      39.561  -2.292  11.863  0.00  0.00    +0.000 A 
ENDBRANCH  23  26
ENDBRANCH  18  20
ENDBRANCH  17  18
ENDBRANCH   1  17
TORSDOF 8
ENDMDL
MODEL 10
REMARK VINA RESULT:      -7.2     25.584     28.189
REMARK  Name = 
REMARK  8 active torsions:
REMARK  status: ('A' for Active; 'I' for Inactive)
REMARK    1  A    between atoms: C_2  and  C_4
REMARK    2  A    between atoms: C_8  and  C_9
REMARK    3  A    between atoms: C_12  and  N_13
REMARK    4  A    between atoms: C_14  and  C_16
REMARK    5  A    between atoms: C_16  and  O_17
REMARK    6  A    between atoms: O_17  and  C_18
REMARK    7  A    between atoms: C_18  and  C_20
REMARK    8  A    between atoms: C_23  and  C_24
REMARK                            x       y       z     vdW  Elec       q    Type
REMARK                         _______ _______ _______ _____ _____    ______ ____
ROOT
ATOM      1  C   UNL     1      25.641  13.429  41.850  0.00  0.00    +0.000 C 
ENDROOT
BRANCH   1   3
ATOM      2  N   UNL     1      27.138  11.547  41.020  0.00  0.00    +0.000 NA
ATOM      3  C   UNL     1      26.752  12.476  42.016  0.00  0.00    +0.000 C 
ATOM      4  O   UNL     1      27.395  12.485  43.096  0.00  0.00    +0.000 OA
BRANCH   2  10
ATOM      5  C   UNL     1      29.488  10.886  40.749  0.00  0.00    +0.000 A 
ATOM      6  C   UNL     1      30.496   9.923  40.870  0.00  0.00    +0.000 A 
ATOM      7  C   UNL     1      30.235   8.670  41.362  0.00  0.00    +0.000 A 
ATOM      8  C   UNL     1      28.954   8.380  41.735  0.00  0.00    +0.000 A 
ATOM      9  C   UNL     1      27.969   9.326  41.616  0.00  0.00    +0.000 A 
ATOM     10  C   UNL     1      28.196  10.614  41.119  0.00  0.00    +0.000 A 
BRANCH   5  12
ATOM     11  C   UNL     1      30.926  12.084  39.143  0.00  0.00    +0.000 C 
ATOM     12  C   UNL     1      29.833  12.220  40.208  0.00  0.00    +0.000 C 
ATOM     13  C   UNL     1      30.423  13.035  41.361  0.00  0.00    +0.000 C 
ENDBRANCH   5  12
BRANCH   9  14
ATOM     14  C   UNL     1      26.571   9.020  42.018  0.00  0.00    +0.000 C 
ATOM     15  C   UNL     1      26.383   9.055  43.502  0.00  0.00    +0.000 C 
ATOM     16  C   UNL     1      26.067   7.756  41.377  0.00  0.00    +0.000 C 
ENDBRANCH   9  14
ENDBRANCH   2  10
ENDBRANCH   1   3
BRANCH   1  17
ATOM     17  O   UNL     1      26.004  14.764  41.787  0.00  0.00    +0.000 OA
BRANCH  17  18
ATOM     18  C   UNL     1      26.882  15.233  40.833  0.00  0.00    +0.000 C 
ATOM     19  O   UNL     1      28.024  15.583  41.221  0.00  0.00    +0.000 OA
BRANCH  18  20
ATOM     20  C   UNL     1      26.501  15.324  39.405  0.00  0.00    +0.000 A 
ATOM     21  C   UNL     1      27.485  15.251  38.445  0.00  0.00    +0.000 A 
ATOM     22  C   UNL     1      27.222  15.330  37.081  0.00  0.00    +0.000 A 
ATOM     23  C   UNL     1      25.901  15.489  36.676  0.00  0.00    +0.000 A 
ATOM     24  C   UNL     1      24.927  15.559  37.645  0.00  0.00    +0.000 A 
ATOM     25  C   UNL     1      25.207  15.480  39.010  0.00  0.00    +0.000 A 
BRANCH  23  26
ATOM     26  C   UNL     1      25.648  15.565  35.244  0.00  0.00    +0.000 A 
ATOM     27  C   UNL     1      25.148  16.743  34.731  0.00  0.00    +0.000 A 
ATOM     28  C   UNL     1      24.862  16.948  33.395  0.00  0.00    +0.000 A 
ATOM     29  C   UNL     1      25.095  15.900  32.519  0.00  0.00    +0.000 A 
ATOM     30  C   UNL     1      25.599  14.708  33.024  0.00  0.00    +0.000 A 
ATOM     31  C   UNL     1      25.870  14.549  34.366  0.00  0.00    +0.000 A 
ENDBRANCH  23  26
ENDBRANCH  18  20
ENDBRANCH  17  18
ENDBRANCH   1  17
TORSDOF 8
ENDMDL
