MODEL 1
REMARK VINA RESULT:      -8.6      0.000      0.000
REMARK  Name = 
REMARK  7 active torsions:
REMARK  status: ('A' for Active; 'I' for Inactive)
REMARK    1  A    between atoms: C_2  and  C_26
REMARK    2  A    between atoms: N_3  and  N_4
REMARK    3  A    between atoms: C_5  and  C_7
REMARK    4  A    between atoms: C_7  and  S_8
REMARK    5  A    between atoms: S_8  and  C_9
REMARK    6  A    between atoms: N_17  and  C_18
REMARK    7  A    between atoms: C_18  and  C_19
REMARK                            x       y       z     vdW  Elec       q    Type
REMARK                         _______ _______ _______ _____ _____    ______ ____
ROOT
ATOM      1  C   UNL     1      36.779  -0.175  15.933  0.00  0.00    +0.000 A 
ATOM      2  N   UNL     1      36.506   0.010  17.240  0.00  0.00    +0.000 NA
ATOM      3  C   UNL     1      37.130  -0.966  17.897  0.00  0.00    +0.000 A 
ATOM      4  C   UNL     1      37.212  -1.284  19.222  0.00  0.00    +0.000 A 
ATOM      5  C   UNL     1      37.953  -2.385  19.645  0.00  0.00    +0.000 A 
ATOM      6  C   UNL     1      38.602  -3.149  18.690  0.00  0.00    +0.000 A 
ATOM      7  C   UNL     1      38.527  -2.838  17.348  0.00  0.00    +0.000 A 
ATOM      8  C   UNL     1      37.785  -1.742  16.974  0.00  0.00    +0.000 A 
ATOM      9  N   UNL     1      37.567  -1.248  15.750  0.00  0.00    +0.000 N 
ENDROOT
BRANCH   1  10
ATOM     10  S   UNL     1      36.205   0.839  14.565  0.00  0.00    +0.000 S 
BRANCH  10  11
ATOM     11  C   UNL     1      37.371   2.193  14.367  0.00  0.00    +0.000 C 
BRANCH  11  13
ATOM     12  N   UNL     1      38.439   3.403  16.351  0.00  0.00    +0.000 NA
ATOM     13  C   UNL     1      37.348   3.136  15.504  0.00  0.00    +0.000 C 
ATOM     14  O   UNL     1      36.269   3.744  15.725  0.00  0.00    +0.000 OA
BRANCH  12  17
ATOM     15  C   UNL     1      39.948   5.663  16.325  0.00  0.00    +0.000 C 
ATOM     16  C   UNL     1      39.023   5.404  17.453  0.00  0.00    +0.000 C 
ATOM     17  N   UNL     1      38.333   4.329  17.425  0.00  0.00    +0.000 NA
BRANCH  16  18
ATOM     18  C   UNL     1      38.947   6.386  18.535  0.00  0.00    +0.000 A 
ATOM     19  C   UNL     1      37.982   7.370  18.518  0.00  0.00    +0.000 A 
ATOM     20  C   UNL     1      37.886   8.308  19.522  0.00  0.00    +0.000 A 
ATOM     21  C   UNL     1      38.784   8.254  20.565  0.00  0.00    +0.000 A 
ATOM     22  N   UNL     1      39.721   7.293  20.576  0.00  0.00    +0.000 NA
ATOM     23  C   UNL     1      39.819   6.377  19.600  0.00  0.00    +0.000 A 
ENDBRANCH  16  18
ENDBRANCH  12  17
ENDBRANCH  11  13
ENDBRANCH  10  11
ENDBRANCH   1  10
BRANCH   9  24
ATOM     24  C   UNL     1      38.074  -1.768  14.498  0.00  0.00    +0.000 C 
BRANCH  24  25
ATOM     25  C   UNL     1      39.524  -1.450  14.445  0.00  0.00    +0.000 A 
ATOM     26  C   UNL     1      39.890  -0.128  14.294  0.00  0.00    +0.000 A 
ATOM     27  C   UNL     1      41.235   0.231  14.238  0.00  0.00    +0.000 A 
ATOM     28  C   UNL     1      42.237  -0.715  14.330  0.00  0.00    +0.000 A 
ATOM     29  C   UNL     1      43.678  -0.304  14.267  0.00  0.00    +0.000 C 
ATOM     30  C   UNL     1      41.867  -2.037  14.480  0.00  0.00    +0.000 A 
ATOM     31  C   UNL     1      40.515  -2.386  14.535  0.00  0.00    +0.000 A 
ENDBRANCH  24  25
ENDBRANCH   9  24
TORSDOF 7
ENDMDL
MODEL 2
REMARK VINA RESULT:      -8.4      1.306      2.024
REMARK  Name = 
REMARK  7 active torsions:
REMARK  status: ('A' for Active; 'I' for Inactive)
REMARK    1  A    between atoms: C_2  and  C_26
REMARK    2  A    between atoms: N_3  and  N_4
REMARK    3  A    between atoms: C_5  and  C_7
REMARK    4  A    between atoms: C_7  and  S_8
REMARK    5  A    between atoms: S_8  and  C_9
REMARK    6  A    between atoms: N_17  and  C_18
REMARK    7  A    between atoms: C_18  and  C_19
REMARK                            x       y       z     vdW  Elec       q    Type
REMARK                         _______ _______ _______ _____ _____    ______ ____
ROOT
ATOM      1  C   UNL     1      36.764   0.182  16.206  0.00  0.00    +0.000 A 
ATOM      2  N   UNL     1      36.540   0.259  17.533  0.00  0.00    +0.000 NA
ATOM      3  C   UNL     1      37.095  -0.823  18.073  0.00  0.00    +0.000 A 
ATOM      4  C   UNL     1      37.183  -1.275  19.358  0.00  0.00    +0.000 A 
ATOM      5  C   UNL     1      37.838  -2.470  19.650  0.00  0.00    +0.000 A 
ATOM      6  C   UNL     1      38.396  -3.187  18.606  0.00  0.00    +0.000 A 
ATOM      7  C   UNL     1      38.314  -2.742  17.303  0.00  0.00    +0.000 A 
ATOM      8  C   UNL     1      37.659  -1.557  17.059  0.00  0.00    +0.000 A 
ATOM      9  N   UNL     1      37.453  -0.930  15.896  0.00  0.00    +0.000 N 
ENDROOT
BRANCH   1  10
ATOM     10  S   UNL     1      36.245   1.368  14.961  0.00  0.00    +0.000 S 
BRANCH  10  11
ATOM     11  C   UNL     1      36.224   2.991  15.734  0.00  0.00    +0.000 C 
BRANCH  11  13
ATOM     12  N   UNL     1      37.777   4.269  17.314  0.00  0.00    +0.000 NA
ATOM     13  C   UNL     1      37.554   3.405  16.226  0.00  0.00    +0.000 C 
ATOM     14  O   UNL     1      38.559   2.947  15.624  0.00  0.00    +0.000 OA
BRANCH  12  17
ATOM     15  C   UNL     1      38.250   6.741  18.338  0.00  0.00    +0.000 C 
ATOM     16  C   UNL     1      39.361   5.769  18.212  0.00  0.00    +0.000 C 
ATOM     17  N   UNL     1      39.093   4.617  17.725  0.00  0.00    +0.000 NA
BRANCH  16  18
ATOM     18  C   UNL     1      40.698   6.171  18.648  0.00  0.00    +0.000 A 
ATOM     19  C   UNL     1      41.695   6.398  17.723  0.00  0.00    +0.000 A 
ATOM     20  C   UNL     1      42.963   6.778  18.104  0.00  0.00    +0.000 A 
ATOM     21  C   UNL     1      43.232   6.930  19.447  0.00  0.00    +0.000 A 
ATOM     22  N   UNL     1      42.256   6.707  20.341  0.00  0.00    +0.000 NA
ATOM     23  C   UNL     1      41.020   6.338  19.975  0.00  0.00    +0.000 A 
ENDBRANCH  16  18
ENDBRANCH  12  17
ENDBRANCH  11  13
ENDBRANCH  10  11
ENDBRANCH   1  10
BRANCH   9  24
ATOM     24  C   UNL     1      37.883  -1.365  14.584  0.00  0.00    +0.000 C 
BRANCH  24  25
ATOM     25  C   UNL     1      39.309  -0.977  14.438  0.00  0.00    +0.000 A 
ATOM     26  C   UNL     1      40.267  -1.955  14.616  0.00  0.00    +0.000 A 
ATOM     27  C   UNL     1      41.621  -1.651  14.491  0.00  0.00    +0.000 A 
ATOM     28  C   UNL     1      42.045  -0.372  14.188  0.00  0.00    +0.000 A 
ATOM     29  C   UNL     1      43.509  -0.069  14.059  0.00  0.00    +0.000 C 
ATOM     30  C   UNL     1      41.085   0.605  14.011  0.00  0.00    +0.000 A 
ATOM     31  C   UNL     1      39.730   0.288  14.139  0.00  0.00    +0.000 A 
ENDBRANCH  24  25
ENDBRANCH   9  24
TORSDOF 7
ENDMDL
MODEL 3
REMARK VINA RESULT:      -8.3      2.307      4.443
REMARK  Name = 
REMARK  7 active torsions:
REMARK  status: ('A' for Active; 'I' for Inactive)
REMARK    1  A    between atoms: C_2  and  C_26
REMARK    2  A    between atoms: N_3  and  N_4
REMARK    3  A    between atoms: C_5  and  C_7
REMARK    4  A    between atoms: C_7  and  S_8
REMARK    5  A    between atoms: S_8  and  C_9
REMARK    6  A    between atoms: N_17  and  C_18
REMARK    7  A    between atoms: C_18  and  C_19
REMARK                            x       y       z     vdW  Elec       q    Type
REMARK                         _______ _______ _______ _____ _____    ______ ____
ROOT
ATOM      1  C   UNL     1      37.252  -0.164  15.393  0.00  0.00    +0.000 A 
ATOM      2  N   UNL     1      38.217   0.191  14.522  0.00  0.00    +0.000 NA
ATOM      3  C   UNL     1      39.177  -0.726  14.629  0.00  0.00    +0.000 A 
ATOM      4  C   UNL     1      40.380  -0.884  14.005  0.00  0.00    +0.000 A 
ATOM      5  C   UNL     1      41.208  -1.960  14.315  0.00  0.00    +0.000 A 
ATOM      6  C   UNL     1      40.782  -2.865  15.273  0.00  0.00    +0.000 A 
ATOM      7  C   UNL     1      39.568  -2.717  15.911  0.00  0.00    +0.000 A 
ATOM      8  C   UNL     1      38.781  -1.640  15.574  0.00  0.00    +0.000 A 
ATOM      9  N   UNL     1      37.581  -1.289  16.049  0.00  0.00    +0.000 N 
ENDROOT
BRANCH   1  10
ATOM     10  S   UNL     1      35.705   0.702  15.688  0.00  0.00    +0.000 S 
BRANCH  10  11
ATOM     11  C   UNL     1      35.994   2.448  15.375  0.00  0.00    +0.000 C 
BRANCH  11  13
ATOM     12  N   UNL     1      37.550   4.281  16.249  0.00  0.00    +0.000 NA
ATOM     13  C   UNL     1      36.830   3.084  16.415  0.00  0.00    +0.000 C 
ATOM     14  O   UNL     1      36.899   2.506  17.530  0.00  0.00    +0.000 OA
BRANCH  12  17
ATOM     15  C   UNL     1      39.912   5.495  15.676  0.00  0.00    +0.000 C 
ATOM     16  C   UNL     1      39.449   5.405  17.080  0.00  0.00    +0.000 C 
ATOM     17  N   UNL     1      38.332   4.826  17.305  0.00  0.00    +0.000 NA
BRANCH  16  18
ATOM     18  C   UNL     1      40.287   5.981  18.132  0.00  0.00    +0.000 A 
ATOM     19  C   UNL     1      41.592   6.338  17.868  0.00  0.00    +0.000 A 
ATOM     20  C   UNL     1      42.405   6.882  18.838  0.00  0.00    +0.000 A 
ATOM     21  C   UNL     1      41.891   7.068  20.102  0.00  0.00    +0.000 A 
ATOM     22  N   UNL     1      40.619   6.719  20.352  0.00  0.00    +0.000 NA
ATOM     23  C   UNL     1      39.824   6.189  19.411  0.00  0.00    +0.000 A 
ENDBRANCH  16  18
ENDBRANCH  12  17
ENDBRANCH  11  13
ENDBRANCH  10  11
ENDBRANCH   1  10
BRANCH   9  24
ATOM     24  C   UNL     1      36.808  -1.982  17.058  0.00  0.00    +0.000 C 
BRANCH  24  25
ATOM     25  C   UNL     1      36.095  -3.094  16.380  0.00  0.00    +0.000 A 
ATOM     26  C   UNL     1      36.532  -4.382  16.615  0.00  0.00    +0.000 A 
ATOM     27  C   UNL     1      35.903  -5.465  16.007  0.00  0.00    +0.000 A 
ATOM     28  C   UNL     1      34.829  -5.288  15.156  0.00  0.00    +0.000 A 
ATOM     29  C   UNL     1      34.167  -6.471  14.513  0.00  0.00    +0.000 C 
ATOM     30  C   UNL     1      34.394  -3.999  14.922  0.00  0.00    +0.000 A 
ATOM     31  C   UNL     1      35.033  -2.919  15.537  0.00  0.00    +0.000 A 
ENDBRANCH  24  25
ENDBRANCH   9  24
TORSDOF 7
ENDMDL
MODEL 4
REMARK VINA RESULT:      -8.1      1.244      1.781
REMARK  Name = 
REMARK  7 active torsions:
REMARK  status: ('A' for Active; 'I' for Inactive)
REMARK    1  A    between atoms: C_2  and  C_26
REMARK    2  A    between atoms: N_3  and  N_4
REMARK    3  A    between atoms: C_5  and  C_7
REMARK    4  A    between atoms: C_7  and  S_8
REMARK    5  A    between atoms: S_8  and  C_9
REMARK    6  A    between atoms: N_17  and  C_18
REMARK    7  A    between atoms: C_18  and  C_19
REMARK                            x       y       z     vdW  Elec       q    Type
REMARK                         _______ _______ _______ _____ _____    ______ ____
ROOT
ATOM      1  C   UNL     1      36.490   0.551  15.155  0.00  0.00    +0.000 A 
ATOM      2  N   UNL     1      36.119   1.080  16.338  0.00  0.00    +0.000 NA
ATOM      3  C   UNL     1      36.352   0.146  17.258  0.00  0.00    +0.000 A 
ATOM      4  C   UNL     1      36.174   0.115  18.611  0.00  0.00    +0.000 A 
ATOM      5  C   UNL     1      36.511  -1.018  19.348  0.00  0.00    +0.000 A 
ATOM      6  C   UNL     1      37.030  -2.111  18.675  0.00  0.00    +0.000 A 
ATOM      7  C   UNL     1      37.216  -2.093  17.308  0.00  0.00    +0.000 A 
ATOM      8  C   UNL     1      36.870  -0.953  16.619  0.00  0.00    +0.000 A 
ATOM      9  N   UNL     1      36.956  -0.700  15.309  0.00  0.00    +0.000 N 
ENDROOT
BRANCH   1  10
ATOM     10  S   UNL     1      36.405   1.353  13.549  0.00  0.00    +0.000 S 
BRANCH  10  11
ATOM     11  C   UNL     1      37.838   2.427  13.403  0.00  0.00    +0.000 C 
BRANCH  11  13
ATOM     12  N   UNL     1      37.587   4.105  15.318  0.00  0.00    +0.000 NA
ATOM     13  C   UNL     1      38.238   3.025  14.694  0.00  0.00    +0.000 C 
ATOM     14  O   UNL     1      39.235   2.524  15.275  0.00  0.00    +0.000 OA
BRANCH  12  17
ATOM     15  C   UNL     1      37.811   6.792  15.654  0.00  0.00    +0.000 C 
ATOM     16  C   UNL     1      38.158   5.877  16.766  0.00  0.00    +0.000 C 
ATOM     17  N   UNL     1      38.037   4.620  16.565  0.00  0.00    +0.000 NA
BRANCH  16  18
ATOM     18  C   UNL     1      38.615   6.452  18.031  0.00  0.00    +0.000 A 
ATOM     19  C   UNL     1      39.705   5.919  18.686  0.00  0.00    +0.000 A 
ATOM     20  C   UNL     1      40.158   6.439  19.878  0.00  0.00    +0.000 A 
ATOM     21  C   UNL     1      39.498   7.520  20.422  0.00  0.00    +0.000 A 
ATOM     22  N   UNL     1      38.439   8.034  19.778  0.00  0.00    +0.000 NA
ATOM     23  C   UNL     1      37.993   7.530  18.617  0.00  0.00    +0.000 A 
ENDBRANCH  16  18
ENDBRANCH  12  17
ENDBRANCH  11  13
ENDBRANCH  10  11
ENDBRANCH   1  10
BRANCH   9  24
ATOM     24  C   UNL     1      37.447  -1.592  14.280  0.00  0.00    +0.000 C 
BRANCH  24  25
ATOM     25  C   UNL     1      38.931  -1.552  14.334  0.00  0.00    +0.000 A 
ATOM     26  C   UNL     1      39.593  -2.687  14.755  0.00  0.00    +0.000 A 
ATOM     27  C   UNL     1      40.985  -2.708  14.826  0.00  0.00    +0.000 A 
ATOM     28  C   UNL     1      41.739  -1.605  14.481  0.00  0.00    +0.000 A 
ATOM     29  C   UNL     1      43.236  -1.652  14.566  0.00  0.00    +0.000 C 
ATOM     30  C   UNL     1      41.074  -0.470  14.061  0.00  0.00    +0.000 A 
ATOM     31  C   UNL     1      39.678  -0.460  13.993  0.00  0.00    +0.000 A 
ENDBRANCH  24  25
ENDBRANCH   9  24
TORSDOF 7
ENDMDL
MODEL 5
REMARK VINA RESULT:      -8.0      2.656      9.064
REMARK  Name = 
REMARK  7 active torsions:
REMARK  status: ('A' for Active; 'I' for Inactive)
REMARK    1  A    between atoms: C_2  and  C_26
REMARK    2  A    between atoms: N_3  and  N_4
REMARK    3  A    between atoms: C_5  and  C_7
REMARK    4  A    between atoms: C_7  and  S_8
REMARK    5  A    between atoms: S_8  and  C_9
REMARK    6  A    between atoms: N_17  and  C_18
REMARK    7  A    between atoms: C_18  and  C_19
REMARK                            x       y       z     vdW  Elec       q    Type
REMARK                         _______ _______ _______ _____ _____    ______ ____
ROOT
ATOM      1  C   UNL     1      38.302   6.941  16.747  0.00  0.00    +0.000 A 
ATOM      2  N   UNL     1      37.713   8.122  16.473  0.00  0.00    +0.000 NA
ATOM      3  C   UNL     1      37.659   8.792  17.623  0.00  0.00    +0.000 A 
ATOM      4  C   UNL     1      37.176  10.025  17.954  0.00  0.00    +0.000 A 
ATOM      5  C   UNL     1      37.249  10.490  19.265  0.00  0.00    +0.000 A 
ATOM      6  C   UNL     1      37.823   9.672  20.223  0.00  0.00    +0.000 A 
ATOM      7  C   UNL     1      38.315   8.424  19.902  0.00  0.00    +0.000 A 
ATOM      8  C   UNL     1      38.223   8.004  18.595  0.00  0.00    +0.000 A 
ATOM      9  N   UNL     1      38.624   6.851  18.048  0.00  0.00    +0.000 N 
ENDROOT
BRANCH   1  10
ATOM     10  S   UNL     1      38.646   5.620  15.579  0.00  0.00    +0.000 S 
BRANCH  10  11
ATOM     11  C   UNL     1      37.275   4.459  15.657  0.00  0.00    +0.000 C 
BRANCH  11  13
ATOM     12  N   UNL     1      36.907   1.974  16.140  0.00  0.00    +0.000 NA
ATOM     13  C   UNL     1      37.722   3.054  15.754  0.00  0.00    +0.000 C 
ATOM     14  O   UNL     1      38.923   2.811  15.468  0.00  0.00    +0.000 OA
BRANCH  12  17
ATOM     15  C   UNL     1      35.267  -0.056  16.900  0.00  0.00    +0.000 C 
ATOM     16  C   UNL     1      36.682  -0.336  16.560  0.00  0.00    +0.000 C 
ATOM     17  N   UNL     1      37.417   0.648  16.207  0.00  0.00    +0.000 NA
BRANCH  16  18
ATOM     18  C   UNL     1      37.162  -1.715  16.643  0.00  0.00    +0.000 A 
ATOM     19  C   UNL     1      38.514  -1.984  16.654  0.00  0.00    +0.000 A 
ATOM     20  C   UNL     1      38.996  -3.272  16.731  0.00  0.00    +0.000 A 
ATOM     21  C   UNL     1      38.094  -4.312  16.796  0.00  0.00    +0.000 A 
ATOM     22  N   UNL     1      36.780  -4.043  16.784  0.00  0.00    +0.000 NA
ATOM     23  C   UNL     1      36.306  -2.790  16.709  0.00  0.00    +0.000 A 
ENDBRANCH  16  18
ENDBRANCH  12  17
ENDBRANCH  11  13
ENDBRANCH  10  11
ENDBRANCH   1  10
BRANCH   9  24
ATOM     24  C   UNL     1      39.267   5.744  18.724  0.00  0.00    +0.000 C 
BRANCH  24  25
ATOM     25  C   UNL     1      40.684   6.127  18.946  0.00  0.00    +0.000 A 
ATOM     26  C   UNL     1      41.128   6.240  20.248  0.00  0.00    +0.000 A 
ATOM     27  C   UNL     1      42.447   6.597  20.517  0.00  0.00    +0.000 A 
ATOM     28  C   UNL     1      43.347   6.846  19.500  0.00  0.00    +0.000 A 
ATOM     29  C   UNL     1      44.763   7.228  19.815  0.00  0.00    +0.000 C 
ATOM     30  C   UNL     1      42.901   6.732  18.198  0.00  0.00    +0.000 A 
ATOM     31  C   UNL     1      41.575   6.374  17.939  0.00  0.00    +0.000 A 
ENDBRANCH  24  25
ENDBRANCH   9  24
TORSDOF 7
ENDMDL
MODEL 6
REMARK VINA RESULT:      -7.7      3.164      9.047
REMARK  Name = 
REMARK  7 active torsions:
REMARK  status: ('A' for Active; 'I' for Inactive)
REMARK    1  A    between atoms: C_2  and  C_26
REMARK    2  A    between atoms: N_3  and  N_4
REMARK    3  A    between atoms: C_5  and  C_7
REMARK    4  A    between atoms: C_7  and  S_8
REMARK    5  A    between atoms: S_8  and  C_9
REMARK    6  A    between atoms: N_17  and  C_18
REMARK    7  A    between atoms: C_18  and  C_19
REMARK                            x       y       z     vdW  Elec       q    Type
REMARK                         _______ _______ _______ _____ _____    ______ ____
ROOT
ATOM      1  C   UNL     1      38.326   6.889  16.803  0.00  0.00    +0.000 A 
ATOM      2  N   UNL     1      37.740   8.066  16.507  0.00  0.00    +0.000 NA
ATOM      3  C   UNL     1      37.676   8.753  17.646  0.00  0.00    +0.000 A 
ATOM      4  C   UNL     1      37.191   9.991  17.954  0.00  0.00    +0.000 A 
ATOM      5  C   UNL     1      37.254  10.476  19.259  0.00  0.00    +0.000 A 
ATOM      6  C   UNL     1      37.819   9.671  20.234  0.00  0.00    +0.000 A 
ATOM      7  C   UNL     1      38.313   8.418  19.936  0.00  0.00    +0.000 A 
ATOM      8  C   UNL     1      38.231   7.979  18.634  0.00  0.00    +0.000 A 
ATOM      9  N   UNL     1      38.636   6.818  18.108  0.00  0.00    +0.000 N 
ENDROOT
BRANCH   1  10
ATOM     10  S   UNL     1      38.678   5.550  15.658  0.00  0.00    +0.000 S 
BRANCH  10  11
ATOM     11  C   UNL     1      37.153   4.629  15.415  0.00  0.00    +0.000 C 
BRANCH  11  13
ATOM     12  N   UNL     1      36.339   2.206  15.309  0.00  0.00    +0.000 NA
ATOM     13  C   UNL     1      37.351   3.167  15.493  0.00  0.00    +0.000 C 
ATOM     14  O   UNL     1      38.514   2.756  15.742  0.00  0.00    +0.000 OA
BRANCH  12  17
ATOM     15  C   UNL     1      34.855   0.653  16.973  0.00  0.00    +0.000 C 
ATOM     16  C   UNL     1      35.943   0.047  16.170  0.00  0.00    +0.000 C 
ATOM     17  N   UNL     1      36.616   0.814  15.400  0.00  0.00    +0.000 NA
BRANCH  16  18
ATOM     18  C   UNL     1      36.190  -1.390  16.296  0.00  0.00    +0.000 A 
ATOM     19  C   UNL     1      35.632  -2.275  15.399  0.00  0.00    +0.000 A 
ATOM     20  C   UNL     1      35.846  -3.632  15.493  0.00  0.00    +0.000 A 
ATOM     21  C   UNL     1      36.639  -4.107  16.515  0.00  0.00    +0.000 A 
ATOM     22  N   UNL     1      37.178  -3.239  17.385  0.00  0.00    +0.000 NA
ATOM     23  C   UNL     1      36.972  -1.917  17.298  0.00  0.00    +0.000 A 
ENDBRANCH  16  18
ENDBRANCH  12  17
ENDBRANCH  11  13
ENDBRANCH  10  11
ENDBRANCH   1  10
BRANCH   9  24
ATOM     24  C   UNL     1      39.273   5.721  18.806  0.00  0.00    +0.000 C 
BRANCH  24  25
ATOM     25  C   UNL     1      40.693   6.098  19.018  0.00  0.00    +0.000 A 
ATOM     26  C   UNL     1      41.158   6.165  20.315  0.00  0.00    +0.000 A 
ATOM     27  C   UNL     1      42.482   6.514  20.575  0.00  0.00    +0.000 A 
ATOM     28  C   UNL     1      43.364   6.802  19.552  0.00  0.00    +0.000 A 
ATOM     29  C   UNL     1      44.784   7.175  19.858  0.00  0.00    +0.000 C 
ATOM     30  C   UNL     1      42.896   6.735  18.255  0.00  0.00    +0.000 A 
ATOM     31  C   UNL     1      41.566   6.384  18.006  0.00  0.00    +0.000 A 
ENDBRANCH  24  25
ENDBRANCH   9  24
TORSDOF 7
ENDMDL
MODEL 7
REMARK VINA RESULT:      -7.7      3.565      4.646
REMARK  Name = 
REMARK  7 active torsions:
REMARK  status: ('A' for Active; 'I' for Inactive)
REMARK    1  A    between atoms: C_2  and  C_26
REMARK    2  A    between atoms: N_3  and  N_4
REMARK    3  A    between atoms: C_5  and  C_7
REMARK    4  A    between atoms: C_7  and  S_8
REMARK    5  A    between atoms: S_8  and  C_9
REMARK    6  A    between atoms: N_17  and  C_18
REMARK    7  A    between atoms: C_18  and  C_19
REMARK                            x       y       z     vdW  Elec       q    Type
REMARK                         _______ _______ _______ _____ _____    ______ ____
ROOT
ATOM      1  C   UNL     1      36.750  -0.637  16.813  0.00  0.00    +0.000 A 
ATOM      2  N   UNL     1      36.627  -0.597  18.154  0.00  0.00    +0.000 NA
ATOM      3  C   UNL     1      37.316  -1.634  18.627  0.00  0.00    +0.000 A 
ATOM      4  C   UNL     1      37.545  -2.093  19.892  0.00  0.00    +0.000 A 
ATOM      5  C   UNL     1      38.323  -3.229  20.107  0.00  0.00    +0.000 A 
ATOM      6  C   UNL     1      38.856  -3.880  19.007  0.00  0.00    +0.000 A 
ATOM      7  C   UNL     1      38.631  -3.427  17.724  0.00  0.00    +0.000 A 
ATOM      8  C   UNL     1      37.858  -2.301  17.557  0.00  0.00    +0.000 A 
ATOM      9  N   UNL     1      37.505  -1.679  16.427  0.00  0.00    +0.000 N 
ENDROOT
BRANCH   1  10
ATOM     10  S   UNL     1      36.030   0.515  15.637  0.00  0.00    +0.000 S 
BRANCH  10  11
ATOM     11  C   UNL     1      35.420   1.928  16.566  0.00  0.00    +0.000 C 
BRANCH  11  13
ATOM     12  N   UNL     1      35.871   3.873  14.967  0.00  0.00    +0.000 NA
ATOM     13  C   UNL     1      34.997   3.044  15.695  0.00  0.00    +0.000 C 
ATOM     14  O   UNL     1      33.762   3.265  15.601  0.00  0.00    +0.000 OA
BRANCH  12  17
ATOM     15  C   UNL     1      36.939   4.261  12.498  0.00  0.00    +0.000 C 
ATOM     16  C   UNL     1      35.854   5.146  12.982  0.00  0.00    +0.000 C 
ATOM     17  N   UNL     1      35.380   4.928  14.149  0.00  0.00    +0.000 NA
BRANCH  16  18
ATOM     18  C   UNL     1      35.381   6.218  12.105  0.00  0.00    +0.000 A 
ATOM     19  C   UNL     1      36.085   6.551  10.968  0.00  0.00    +0.000 A 
ATOM     20  C   UNL     1      35.665   7.555  10.124  0.00  0.00    +0.000 A 
ATOM     21  C   UNL     1      34.510   8.239  10.435  0.00  0.00    +0.000 A 
ATOM     22  N   UNL     1      33.830   7.910  11.544  0.00  0.00    +0.000 NA
ATOM     23  C   UNL     1      34.235   6.933  12.368  0.00  0.00    +0.000 A 
ENDBRANCH  16  18
ENDBRANCH  12  17
ENDBRANCH  11  13
ENDBRANCH  10  11
ENDBRANCH   1  10
BRANCH   9  24
ATOM     24  C   UNL     1      37.865  -2.057  15.076  0.00  0.00    +0.000 C 
BRANCH  24  25
ATOM     25  C   UNL     1      39.214  -1.497  14.808  0.00  0.00    +0.000 A 
ATOM     26  C   UNL     1      40.284  -2.368  14.790  0.00  0.00    +0.000 A 
ATOM     27  C   UNL     1      41.573  -1.900  14.543  0.00  0.00    +0.000 A 
ATOM     28  C   UNL     1      41.820  -0.561  14.310  0.00  0.00    +0.000 A 
ATOM     29  C   UNL     1      43.217  -0.082  14.046  0.00  0.00    +0.000 C 
ATOM     30  C   UNL     1      40.748   0.308  14.329  0.00  0.00    +0.000 A 
ATOM     31  C   UNL     1      39.459  -0.172  14.578  0.00  0.00    +0.000 A 
ENDBRANCH  24  25
ENDBRANCH   9  24
TORSDOF 7
ENDMDL
MODEL 8
REMARK VINA RESULT:      -7.6      3.271      9.706
REMARK  Name = 
REMARK  7 active torsions:
REMARK  status: ('A' for Active; 'I' for Inactive)
REMARK    1  A    between atoms: C_2  and  C_26
REMARK    2  A    between atoms: N_3  and  N_4
REMARK    3  A    between atoms: C_5  and  C_7
REMARK    4  A    between atoms: C_7  and  S_8
REMARK    5  A    between atoms: S_8  and  C_9
REMARK    6  A    between atoms: N_17  and  C_18
REMARK    7  A    between atoms: C_18  and  C_19
REMARK                            x       y       z     vdW  Elec       q    Type
REMARK                         _______ _______ _______ _____ _____    ______ ____
ROOT
ATOM      1  C   UNL     1      40.358   6.042  17.510  0.00  0.00    +0.000 A 
ATOM      2  N   UNL     1      41.010   6.131  16.334  0.00  0.00    +0.000 NA
ATOM      3  C   UNL     1      42.266   6.464  16.624  0.00  0.00    +0.000 A 
ATOM      4  C   UNL     1      43.366   6.690  15.848  0.00  0.00    +0.000 A 
ATOM      5  C   UNL     1      44.587   7.031  16.425  0.00  0.00    +0.000 A 
ATOM      6  C   UNL     1      44.658   7.135  17.804  0.00  0.00    +0.000 A 
ATOM      7  C   UNL     1      43.554   6.908  18.600  0.00  0.00    +0.000 A 
ATOM      8  C   UNL     1      42.368   6.574  17.988  0.00  0.00    +0.000 A 
ATOM      9  N   UNL     1      41.178   6.311  18.540  0.00  0.00    +0.000 N 
ENDROOT
BRANCH   1  10
ATOM     10  S   UNL     1      38.626   5.624  17.746  0.00  0.00    +0.000 S 
BRANCH  10  11
ATOM     11  C   UNL     1      37.948   5.197  16.137  0.00  0.00    +0.000 C 
BRANCH  11  13
ATOM     12  N   UNL     1      36.817   2.903  16.066  0.00  0.00    +0.000 NA
ATOM     13  C   UNL     1      37.935   3.739  15.892  0.00  0.00    +0.000 C 
ATOM     14  O   UNL     1      39.008   3.213  15.498  0.00  0.00    +0.000 OA
BRANCH  12  17
ATOM     15  C   UNL     1      34.751   1.296  16.796  0.00  0.00    +0.000 C 
ATOM     16  C   UNL     1      35.941   0.715  16.133  0.00  0.00    +0.000 C 
ATOM     17  N   UNL     1      36.890   1.507  15.806  0.00  0.00    +0.000 NA
BRANCH  16  18
ATOM     18  C   UNL     1      35.971  -0.727  15.885  0.00  0.00    +0.000 A 
ATOM     19  C   UNL     1      35.354  -1.598  16.759  0.00  0.00    +0.000 A 
ATOM     20  C   UNL     1      35.366  -2.959  16.552  0.00  0.00    +0.000 A 
ATOM     21  C   UNL     1      36.015  -3.454  15.442  0.00  0.00    +0.000 A 
ATOM     22  N   UNL     1      36.613  -2.600  14.596  0.00  0.00    +0.000 NA
ATOM     23  C   UNL     1      36.604  -1.274  14.793  0.00  0.00    +0.000 A 
ENDBRANCH  16  18
ENDBRANCH  12  17
ENDBRANCH  11  13
ENDBRANCH  10  11
ENDBRANCH   1  10
BRANCH   9  24
ATOM     24  C   UNL     1      40.852   6.317  19.951  0.00  0.00    +0.000 C 
BRANCH  24  25
ATOM     25  C   UNL     1      40.258   7.642  20.259  0.00  0.00    +0.000 A 
ATOM     26  C   UNL     1      41.094   8.740  20.266  0.00  0.00    +0.000 A 
ATOM     27  C   UNL     1      40.593  10.009  20.549  0.00  0.00    +0.000 A 
ATOM     28  C   UNL     1      39.255  10.208  20.829  0.00  0.00    +0.000 A 
ATOM     29  C   UNL     1      38.739  11.584  21.130  0.00  0.00    +0.000 C 
ATOM     30  C   UNL     1      38.421   9.108  20.822  0.00  0.00    +0.000 A 
ATOM     31  C   UNL     1      38.935   7.839  20.537  0.00  0.00    +0.000 A 
ENDBRANCH  24  25
ENDBRANCH   9  24
TORSDOF 7
ENDMDL
MODEL 9
REMARK VINA RESULT:      -7.5      2.548      3.422
REMARK  Name = 
REMARK  7 active torsions:
REMARK  status: ('A' for Active; 'I' for Inactive)
REMARK    1  A    between atoms: C_2  and  C_26
REMARK    2  A    between atoms: N_3  and  N_4
REMARK    3  A    between atoms: C_5  and  C_7
REMARK    4  A    between atoms: C_7  and  S_8
REMARK    5  A    between atoms: S_8  and  C_9
REMARK    6  A    between atoms: N_17  and  C_18
REMARK    7  A    between atoms: C_18  and  C_19
REMARK                            x       y       z     vdW  Elec       q    Type
REMARK                         _______ _______ _______ _____ _____    ______ ____
ROOT
ATOM      1  C   UNL     1      37.224   2.058  15.759  0.00  0.00    +0.000 A 
ATOM      2  N   UNL     1      36.599   1.968  16.949  0.00  0.00    +0.000 NA
ATOM      3  C   UNL     1      36.034   0.762  16.987  0.00  0.00    +0.000 A 
ATOM      4  C   UNL     1      35.281   0.122  17.929  0.00  0.00    +0.000 A 
ATOM      5  C   UNL     1      34.807  -1.168  17.705  0.00  0.00    +0.000 A 
ATOM      6  C   UNL     1      35.117  -1.785  16.505  0.00  0.00    +0.000 A 
ATOM      7  C   UNL     1      35.877  -1.150  15.545  0.00  0.00    +0.000 A 
ATOM      8  C   UNL     1      36.325   0.125  15.807  0.00  0.00    +0.000 A 
ATOM      9  N   UNL     1      37.067   0.932  15.042  0.00  0.00    +0.000 N 
ENDROOT
BRANCH   1  10
ATOM     10  S   UNL     1      38.162   3.463  15.146  0.00  0.00    +0.000 S 
BRANCH  10  11
ATOM     11  C   UNL     1      37.777   4.871  16.195  0.00  0.00    +0.000 C 
BRANCH  11  13
ATOM     12  N   UNL     1      39.815   5.964  17.288  0.00  0.00    +0.000 NA
ATOM     13  C   UNL     1      38.749   5.046  17.294  0.00  0.00    +0.000 C 
ATOM     14  O   UNL     1      38.606   4.317  18.310  0.00  0.00    +0.000 OA
BRANCH  12  17
ATOM     15  C   UNL     1      42.377   6.767  16.866  0.00  0.00    +0.000 C 
ATOM     16  C   UNL     1      41.920   6.443  18.238  0.00  0.00    +0.000 C 
ATOM     17  N   UNL     1      40.707   6.070  18.391  0.00  0.00    +0.000 NA
BRANCH  16  18
ATOM     18  C   UNL     1      42.873   6.567  19.341  0.00  0.00    +0.000 A 
ATOM     19  C   UNL     1      42.468   6.347  20.640  0.00  0.00    +0.000 A 
ATOM     20  C   UNL     1      43.343   6.457  21.699  0.00  0.00    +0.000 A 
ATOM     21  C   UNL     1      44.653   6.798  21.442  0.00  0.00    +0.000 A 
ATOM     22  N   UNL     1      45.039   7.010  20.174  0.00  0.00    +0.000 NA
ATOM     23  C   UNL     1      44.192   6.904  19.140  0.00  0.00    +0.000 A 
ENDBRANCH  16  18
ENDBRANCH  12  17
ENDBRANCH  11  13
ENDBRANCH  10  11
ENDBRANCH   1  10
BRANCH   9  24
ATOM     24  C   UNL     1      37.587   0.646  13.722  0.00  0.00    +0.000 C 
BRANCH  24  25
ATOM     25  C   UNL     1      38.944   0.069  13.898  0.00  0.00    +0.000 A 
ATOM     26  C   UNL     1      39.054  -1.302  14.002  0.00  0.00    +0.000 A 
ATOM     27  C   UNL     1      40.302  -1.901  14.169  0.00  0.00    +0.000 A 
ATOM     28  C   UNL     1      41.457  -1.148  14.235  0.00  0.00    +0.000 A 
ATOM     29  C   UNL     1      42.789  -1.815  14.414  0.00  0.00    +0.000 C 
ATOM     30  C   UNL     1      41.344   0.224  14.131  0.00  0.00    +0.000 A 
ATOM     31  C   UNL     1      40.087   0.814  13.964  0.00  0.00    +0.000 A 
ENDBRANCH  24  25
ENDBRANCH   9  24
TORSDOF 7
ENDMDL
MODEL 10
REMARK VINA RESULT:      -7.5      3.984      5.561
REMARK  Name = 
REMARK  7 active torsions:
REMARK  status: ('A' for Active; 'I' for Inactive)
REMARK    1  A    between atoms: C_2  and  C_26
REMARK    2  A    between atoms: N_3  and  N_4
REMARK    3  A    between atoms: C_5  and  C_7
REMARK    4  A    between atoms: C_7  and  S_8
REMARK    5  A    between atoms: S_8  and  C_9
REMARK    6  A    between atoms: N_17  and  C_18
REMARK    7  A    between atoms: C_18  and  C_19
REMARK                            x       y       z     vdW  Elec       q    Type
REMARK                         _______ _______ _______ _____ _____    ______ ____
ROOT
ATOM      1  C   UNL     1      35.930  -2.222  17.375  0.00  0.00    +0.000 A 
ATOM      2  N   UNL     1      34.613  -2.263  17.091  0.00  0.00    +0.000 NA
ATOM      3  C   UNL     1      34.445  -3.259  16.224  0.00  0.00    +0.000 A 
ATOM      4  C   UNL     1      33.343  -3.761  15.594  0.00  0.00    +0.000 A 
ATOM      5  C   UNL     1      33.454  -4.836  14.714  0.00  0.00    +0.000 A 
ATOM      6  C   UNL     1      34.707  -5.381  14.495  0.00  0.00    +0.000 A 
ATOM      7  C   UNL     1      35.828  -4.884  15.126  0.00  0.00    +0.000 A 
ATOM      8  C   UNL     1      35.674  -3.821  15.987  0.00  0.00    +0.000 A 
ATOM      9  N   UNL     1      36.599  -3.175  16.704  0.00  0.00    +0.000 N 
ENDROOT
BRANCH   1  10
ATOM     10  S   UNL     1      36.751  -1.077  18.490  0.00  0.00    +0.000 S 
BRANCH  10  11
ATOM     11  C   UNL     1      35.866   0.485  18.411  0.00  0.00    +0.000 C 
BRANCH  11  13
ATOM     12  N   UNL     1      37.232   1.066  16.327  0.00  0.00    +0.000 NA
ATOM     13  C   UNL     1      36.092   1.205  17.140  0.00  0.00    +0.000 C 
ATOM     14  O   UNL     1      35.194   2.001  16.763  0.00  0.00    +0.000 OA
BRANCH  12  17
ATOM     15  C   UNL     1      36.479  -0.077  13.979  0.00  0.00    +0.000 C 
ATOM     16  C   UNL     1      37.029   1.299  13.989  0.00  0.00    +0.000 C 
ATOM     17  N   UNL     1      37.370   1.797  15.116  0.00  0.00    +0.000 NA
BRANCH  16  18
ATOM     18  C   UNL     1      37.152   2.013  12.718  0.00  0.00    +0.000 A 
ATOM     19  C   UNL     1      37.278   1.316  11.536  0.00  0.00    +0.000 A 
ATOM     20  C   UNL     1      37.396   1.960  10.324  0.00  0.00    +0.000 A 
ATOM     21  C   UNL     1      37.389   3.338  10.305  0.00  0.00    +0.000 A 
ATOM     22  N   UNL     1      37.267   4.010  11.461  0.00  0.00    +0.000 NA
ATOM     23  C   UNL     1      37.152   3.387  12.643  0.00  0.00    +0.000 A 
ENDBRANCH  16  18
ENDBRANCH  12  17
ENDBRANCH  11  13
ENDBRANCH  10  11
ENDBRANCH   1  10
BRANCH   9  24
ATOM     24  C   UNL     1      38.020  -3.451  16.744  0.00  0.00    +0.000 C 
BRANCH  24  25
ATOM     25  C   UNL     1      38.640  -2.734  15.600  0.00  0.00    +0.000 A 
ATOM     26  C   UNL     1      39.374  -1.597  15.871  0.00  0.00    +0.000 A 
ATOM     27  C   UNL     1      39.978  -0.883  14.838  0.00  0.00    +0.000 A 
ATOM     28  C   UNL     1      39.863  -1.286  13.522  0.00  0.00    +0.000 A 
ATOM     29  C   UNL     1      40.524  -0.500  12.428  0.00  0.00    +0.000 C 
ATOM     30  C   UNL     1      39.128  -2.423  13.254  0.00  0.00    +0.000 A 
ATOM     31  C   UNL     1      38.526  -3.132  14.298  0.00  0.00    +0.000 A 
ENDBRANCH  24  25
ENDBRANCH   9  24
TORSDOF 7
ENDMDL
