MODEL 1
REMARK VINA RESULT:      -7.0      0.000      0.000
REMARK  Name = 
REMARK  3 active torsions:
REMARK  status: ('A' for Active; 'I' for Inactive)
REMARK    1  A    between atoms: C_2  and  C_11
REMARK    2  A    between atoms: N_3  and  C_4
REMARK    3  A    between atoms: C_14  and  N_15
REMARK                            x       y       z     vdW  Elec       q    Type
REMARK                         _______ _______ _______ _____ _____    ______ ____
ROOT
ATOM      1  O   UNL     1      17.564  11.069  34.498  0.00  0.00    +0.000 OA
ATOM      2  C   UNL     1      16.538  11.257  35.165  0.00  0.00    +0.000 C 
ATOM      3  N   UNL     1      15.423  11.841  34.540  0.00  0.00    +0.000 NA
ENDROOT
BRANCH   3   4
ATOM      4  C   UNL     1      15.216  12.269  33.235  0.00  0.00    +0.000 C 
ATOM      5  C   UNL     1      14.873  11.040  32.384  0.00  0.00    +0.000 C 
ATOM      6  C   UNL     1      15.685  11.096  31.092  0.00  0.00    +0.000 C 
ATOM      7  C   UNL     1      15.731  12.618  30.763  0.00  0.00    +0.000 C 
ATOM      8  C   UNL     1      14.310  13.043  30.560  0.00  0.00    +0.000 C 
ATOM      9  C   UNL     1      13.584  13.516  31.752  0.00  0.00    +0.000 C 
ATOM     10  C   UNL     1      14.328  13.406  33.023  0.00  0.00    +0.000 C 
ENDBRANCH   3   4
BRANCH   2  11
ATOM     11  C   UNL     1      16.413  10.899  36.600  0.00  0.00    +0.000 A 
ATOM     12  C   UNL     1      17.477  10.260  37.204  0.00  0.00    +0.000 A 
ATOM     13  C   UNL     1      17.417   9.869  38.519  0.00  0.00    +0.000 A 
ATOM     14  C   UNL     1      16.288  10.094  39.304  0.00  0.00    +0.000 A 
ATOM     15  C   UNL     1      15.231  10.732  38.694  0.00  0.00    +0.000 A 
ATOM     16  C   UNL     1      15.289  11.134  37.346  0.00  0.00    +0.000 A 
BRANCH  14  17
ATOM     17  N   UNL     1      16.284   9.675  40.675  0.00  0.00    +0.000 N 
ATOM     18  O   UNL     1      15.230   9.233  41.168  0.00  0.00    +0.000 OA
ATOM     19  O   UNL     1      17.384   9.743  41.473  0.00  0.00    +0.000 OA
ENDBRANCH  14  17
ENDBRANCH   2  11
TORSDOF 3
ENDMDL
MODEL 2
REMARK VINA RESULT:      -6.8      1.834      2.325
REMARK  Name = 
REMARK  3 active torsions:
REMARK  status: ('A' for Active; 'I' for Inactive)
REMARK    1  A    between atoms: C_2  and  C_11
REMARK    2  A    between atoms: N_3  and  C_4
REMARK    3  A    between atoms: C_14  and  N_15
REMARK                            x       y       z     vdW  Elec       q    Type
REMARK                         _______ _______ _______ _____ _____    ______ ____
ROOT
ATOM      1  O   UNL     1      14.397  11.789  35.533  0.00  0.00    +0.000 OA
ATOM      2  C   UNL     1      15.518  11.404  35.180  0.00  0.00    +0.000 C 
ATOM      3  N   UNL     1      15.937  11.659  33.863  0.00  0.00    +0.000 NA
ENDROOT
BRANCH   3   4
ATOM      4  C   UNL     1      15.313  12.310  32.806  0.00  0.00    +0.000 C 
ATOM      5  C   UNL     1      14.524  11.266  32.008  0.00  0.00    +0.000 C 
ATOM      6  C   UNL     1      14.794  11.479  30.520  0.00  0.00    +0.000 C 
ATOM      7  C   UNL     1      14.907  13.027  30.395  0.00  0.00    +0.000 C 
ATOM      8  C   UNL     1      13.579  13.577  30.816  0.00  0.00    +0.000 C 
ATOM      9  C   UNL     1      13.418  13.895  32.246  0.00  0.00    +0.000 C 
ATOM     10  C   UNL     1      14.563  13.525  33.103  0.00  0.00    +0.000 C 
ENDBRANCH   3   4
BRANCH   2  11
ATOM     11  C   UNL     1      16.459  10.682  36.074  0.00  0.00    +0.000 A 
ATOM     12  C   UNL     1      16.336  10.874  37.435  0.00  0.00    +0.000 A 
ATOM     13  C   UNL     1      17.194  10.265  38.317  0.00  0.00    +0.000 A 
ATOM     14  C   UNL     1      18.223   9.430  37.888  0.00  0.00    +0.000 A 
ATOM     15  C   UNL     1      18.339   9.244  36.529  0.00  0.00    +0.000 A 
ATOM     16  C   UNL     1      17.462   9.867  35.620  0.00  0.00    +0.000 A 
BRANCH  14  17
ATOM     17  N   UNL     1      19.083   8.812  38.854  0.00  0.00    +0.000 N 
ATOM     18  O   UNL     1      20.196   9.319  39.085  0.00  0.00    +0.000 OA
ATOM     19  O   UNL     1      18.741   7.682  39.533  0.00  0.00    +0.000 OA
ENDBRANCH  14  17
ENDBRANCH   2  11
TORSDOF 3
ENDMDL
MODEL 3
REMARK VINA RESULT:      -6.4      2.755      7.599
REMARK  Name = 
REMARK  3 active torsions:
REMARK  status: ('A' for Active; 'I' for Inactive)
REMARK    1  A    between atoms: C_2  and  C_11
REMARK    2  A    between atoms: N_3  and  C_4
REMARK    3  A    between atoms: C_14  and  N_15
REMARK                            x       y       z     vdW  Elec       q    Type
REMARK                         _______ _______ _______ _____ _____    ______ ____
ROOT
ATOM      1  O   UNL     1      15.543  11.470  37.522  0.00  0.00    +0.000 OA
ATOM      2  C   UNL     1      16.302  11.470  36.546  0.00  0.00    +0.000 C 
ATOM      3  N   UNL     1      17.669  11.215  36.752  0.00  0.00    +0.000 NA
ENDROOT
BRANCH   3   4
ATOM      4  C   UNL     1      18.391  10.930  37.904  0.00  0.00    +0.000 C 
ATOM      5  C   UNL     1      18.877   9.479  37.810  0.00  0.00    +0.000 C 
ATOM      6  C   UNL     1      18.611   8.785  39.144  0.00  0.00    +0.000 C 
ATOM      7  C   UNL     1      18.867   9.909  40.190  0.00  0.00    +0.000 C 
ATOM      8  C   UNL     1      20.302  10.306  40.033  0.00  0.00    +0.000 C 
ATOM      9  C   UNL     1      20.587  11.391  39.078  0.00  0.00    +0.000 C 
ATOM     10  C   UNL     1      19.420  11.878  38.315  0.00  0.00    +0.000 C 
ENDBRANCH   3   4
BRANCH   2  11
ATOM     11  C   UNL     1      15.853  11.727  35.154  0.00  0.00    +0.000 A 
ATOM     12  C   UNL     1      16.551  11.126  34.126  0.00  0.00    +0.000 A 
ATOM     13  C   UNL     1      16.213  11.347  32.814  0.00  0.00    +0.000 A 
ATOM     14  C   UNL     1      15.157  12.181  32.456  0.00  0.00    +0.000 A 
ATOM     15  C   UNL     1      14.466  12.777  33.487  0.00  0.00    +0.000 A 
ATOM     16  C   UNL     1      14.810  12.554  34.834  0.00  0.00    +0.000 A 
BRANCH  14  17
ATOM     17  N   UNL     1      14.840  12.367  31.070  0.00  0.00    +0.000 N 
ATOM     18  O   UNL     1      14.498  11.381  30.391  0.00  0.00    +0.000 OA
ATOM     19  O   UNL     1      14.903  13.578  30.452  0.00  0.00    +0.000 OA
ENDBRANCH  14  17
ENDBRANCH   2  11
TORSDOF 3
ENDMDL
MODEL 4
REMARK VINA RESULT:      -6.1      1.232      1.906
REMARK  Name = 
REMARK  3 active torsions:
REMARK  status: ('A' for Active; 'I' for Inactive)
REMARK    1  A    between atoms: C_2  and  C_11
REMARK    2  A    between atoms: N_3  and  C_4
REMARK    3  A    between atoms: C_14  and  N_15
REMARK                            x       y       z     vdW  Elec       q    Type
REMARK                         _______ _______ _______ _____ _____    ______ ____
ROOT
ATOM      1  O   UNL     1      17.433   9.956  33.215  0.00  0.00    +0.000 OA
ATOM      2  C   UNL     1      16.893  10.649  34.086  0.00  0.00    +0.000 C 
ATOM      3  N   UNL     1      16.066  11.714  33.687  0.00  0.00    +0.000 NA
ENDROOT
BRANCH   3   4
ATOM      4  C   UNL     1      15.694  12.171  32.429  0.00  0.00    +0.000 C 
ATOM      5  C   UNL     1      14.687  13.311  32.620  0.00  0.00    +0.000 C 
ATOM      6  C   UNL     1      13.518  13.098  31.662  0.00  0.00    +0.000 C 
ATOM      7  C   UNL     1      14.198  12.503  30.394  0.00  0.00    +0.000 C 
ATOM      8  C   UNL     1      15.151  13.548  29.903  0.00  0.00    +0.000 C 
ATOM      9  C   UNL     1      16.525  13.492  30.433  0.00  0.00    +0.000 C 
ATOM     10  C   UNL     1      16.754  12.467  31.471  0.00  0.00    +0.000 C 
ENDBRANCH   3   4
BRANCH   2  11
ATOM     11  C   UNL     1      17.067  10.423  35.543  0.00  0.00    +0.000 A 
ATOM     12  C   UNL     1      18.107   9.613  35.953  0.00  0.00    +0.000 A 
ATOM     13  C   UNL     1      18.306   9.333  37.283  0.00  0.00    +0.000 A 
ATOM     14  C   UNL     1      17.475   9.845  38.276  0.00  0.00    +0.000 A 
ATOM     15  C   UNL     1      16.440  10.651  37.859  0.00  0.00    +0.000 A 
ATOM     16  C   UNL     1      16.232  10.941  36.497  0.00  0.00    +0.000 A 
BRANCH  14  17
ATOM     17  N   UNL     1      17.736   9.528  39.650  0.00  0.00    +0.000 N 
ATOM     18  O   UNL     1      16.885   9.823  40.510  0.00  0.00    +0.000 OA
ATOM     19  O   UNL     1      18.881   8.921  40.065  0.00  0.00    +0.000 OA
ENDBRANCH  14  17
ENDBRANCH   2  11
TORSDOF 3
ENDMDL
MODEL 5
REMARK VINA RESULT:      -6.1      2.966      8.197
REMARK  Name = 
REMARK  3 active torsions:
REMARK  status: ('A' for Active; 'I' for Inactive)
REMARK    1  A    between atoms: C_2  and  C_11
REMARK    2  A    between atoms: N_3  and  C_4
REMARK    3  A    between atoms: C_14  and  N_15
REMARK                            x       y       z     vdW  Elec       q    Type
REMARK                         _______ _______ _______ _____ _____    ______ ____
ROOT
ATOM      1  O   UNL     1      19.512   9.535  38.159  0.00  0.00    +0.000 OA
ATOM      2  C   UNL     1      18.303   9.627  37.910  0.00  0.00    +0.000 C 
ATOM      3  N   UNL     1      17.379   9.299  38.917  0.00  0.00    +0.000 NA
ENDROOT
BRANCH   3   4
ATOM      4  C   UNL     1      17.554   8.876  40.228  0.00  0.00    +0.000 C 
ATOM      5  C   UNL     1      16.264   9.178  40.998  0.00  0.00    +0.000 C 
ATOM      6  C   UNL     1      16.630   9.822  42.334  0.00  0.00    +0.000 C 
ATOM      7  C   UNL     1      17.942   9.090  42.737  0.00  0.00    +0.000 C 
ATOM      8  C   UNL     1      17.584   7.644  42.884  0.00  0.00    +0.000 C 
ATOM      9  C   UNL     1      17.711   6.805  41.679  0.00  0.00    +0.000 C 
ATOM     10  C   UNL     1      18.077   7.531  40.446  0.00  0.00    +0.000 C 
ENDBRANCH   3   4
BRANCH   2  11
ATOM     11  C   UNL     1      17.765  10.068  36.599  0.00  0.00    +0.000 A 
ATOM     12  C   UNL     1      16.747  11.000  36.596  0.00  0.00    +0.000 A 
ATOM     13  C   UNL     1      16.178  11.426  35.421  0.00  0.00    +0.000 A 
ATOM     14  C   UNL     1      16.595  10.943  34.183  0.00  0.00    +0.000 A 
ATOM     15  C   UNL     1      17.610  10.014  34.194  0.00  0.00    +0.000 A 
ATOM     16  C   UNL     1      18.195   9.573  35.396  0.00  0.00    +0.000 A 
BRANCH  14  17
ATOM     17  N   UNL     1      15.973  11.432  32.987  0.00  0.00    +0.000 N 
ATOM     18  O   UNL     1      16.382  11.025  31.884  0.00  0.00    +0.000 OA
ATOM     19  O   UNL     1      14.952  12.332  32.998  0.00  0.00    +0.000 OA
ENDBRANCH  14  17
ENDBRANCH   2  11
TORSDOF 3
ENDMDL
MODEL 6
REMARK VINA RESULT:      -6.1     21.614     23.593
REMARK  Name = 
REMARK  3 active torsions:
REMARK  status: ('A' for Active; 'I' for Inactive)
REMARK    1  A    between atoms: C_2  and  C_11
REMARK    2  A    between atoms: N_3  and  C_4
REMARK    3  A    between atoms: C_14  and  N_15
REMARK                            x       y       z     vdW  Elec       q    Type
REMARK                         _______ _______ _______ _____ _____    ______ ____
ROOT
ATOM      1  O   UNL     1      21.073  -8.922  23.701  0.00  0.00    +0.000 OA
ATOM      2  C   UNL     1      21.818  -8.030  24.126  0.00  0.00    +0.000 C 
ATOM      3  N   UNL     1      21.297  -7.087  25.029  0.00  0.00    +0.000 NA
ENDROOT
BRANCH   3   4
ATOM      4  C   UNL     1      20.034  -6.948  25.591  0.00  0.00    +0.000 C 
ATOM      5  C   UNL     1      19.907  -7.972  26.724  0.00  0.00    +0.000 C 
ATOM      6  C   UNL     1      18.555  -8.671  26.605  0.00  0.00    +0.000 C 
ATOM      7  C   UNL     1      17.610  -7.539  26.105  0.00  0.00    +0.000 C 
ATOM      8  C   UNL     1      17.614  -6.491  27.174  0.00  0.00    +0.000 C 
ATOM      9  C   UNL     1      18.631  -5.432  27.058  0.00  0.00    +0.000 C 
ATOM     10  C   UNL     1      19.592  -5.605  25.949  0.00  0.00    +0.000 C 
ENDBRANCH   3   4
BRANCH   2  11
ATOM     11  C   UNL     1      23.244  -7.893  23.736  0.00  0.00    +0.000 A 
ATOM     12  C   UNL     1      23.834  -8.942  23.059  0.00  0.00    +0.000 A 
ATOM     13  C   UNL     1      25.158  -8.898  22.698  0.00  0.00    +0.000 A 
ATOM     14  C   UNL     1      25.967  -7.803  22.994  0.00  0.00    +0.000 A 
ATOM     15  C   UNL     1      25.371  -6.762  23.670  0.00  0.00    +0.000 A 
ATOM     16  C   UNL     1      24.014  -6.803  24.043  0.00  0.00    +0.000 A 
BRANCH  14  17
ATOM     17  N   UNL     1      27.340  -7.806  22.584  0.00  0.00    +0.000 N 
ATOM     18  O   UNL     1      28.043  -8.804  22.832  0.00  0.00    +0.000 OA
ATOM     19  O   UNL     1      27.921  -6.760  21.936  0.00  0.00    +0.000 OA
ENDBRANCH  14  17
ENDBRANCH   2  11
TORSDOF 3
ENDMDL
MODEL 7
REMARK VINA RESULT:      -6.1      4.601      7.430
REMARK  Name = 
REMARK  3 active torsions:
REMARK  status: ('A' for Active; 'I' for Inactive)
REMARK    1  A    between atoms: C_2  and  C_11
REMARK    2  A    between atoms: N_3  and  C_4
REMARK    3  A    between atoms: C_14  and  N_15
REMARK                            x       y       z     vdW  Elec       q    Type
REMARK                         _______ _______ _______ _____ _____    ______ ____
ROOT
ATOM      1  O   UNL     1      19.973   9.615  38.834  0.00  0.00    +0.000 OA
ATOM      2  C   UNL     1      19.811  10.532  38.020  0.00  0.00    +0.000 C 
ATOM      3  N   UNL     1      20.941  11.088  37.394  0.00  0.00    +0.000 NA
ENDROOT
BRANCH   3   4
ATOM      4  C   UNL     1      22.293  10.790  37.500  0.00  0.00    +0.000 C 
ATOM      5  C   UNL     1      22.751  10.194  36.164  0.00  0.00    +0.000 C 
ATOM      6  C   UNL     1      23.597   8.954  36.444  0.00  0.00    +0.000 C 
ATOM      7  C   UNL     1      24.370   9.333  37.741  0.00  0.00    +0.000 C 
ATOM      8  C   UNL     1      25.207  10.525  37.394  0.00  0.00    +0.000 C 
ATOM      9  C   UNL     1      24.593  11.848  37.600  0.00  0.00    +0.000 C 
ATOM     10  C   UNL     1      23.179  11.823  38.026  0.00  0.00    +0.000 C 
ENDBRANCH   3   4
BRANCH   2  11
ATOM     11  C   UNL     1      18.482  11.087  37.659  0.00  0.00    +0.000 A 
ATOM     12  C   UNL     1      17.417  10.214  37.570  0.00  0.00    +0.000 A 
ATOM     13  C   UNL     1      16.168  10.653  37.208  0.00  0.00    +0.000 A 
ATOM     14  C   UNL     1      15.914  11.990  36.913  0.00  0.00    +0.000 A 
ATOM     15  C   UNL     1      16.981  12.855  37.003  0.00  0.00    +0.000 A 
ATOM     16  C   UNL     1      18.264  12.409  37.374  0.00  0.00    +0.000 A 
BRANCH  14  17
ATOM     17  N   UNL     1      14.587  12.395  36.550  0.00  0.00    +0.000 N 
ATOM     18  O   UNL     1      13.647  12.154  37.331  0.00  0.00    +0.000 OA
ATOM     19  O   UNL     1      14.300  13.031  35.381  0.00  0.00    +0.000 OA
ENDBRANCH  14  17
ENDBRANCH   2  11
TORSDOF 3
ENDMDL
MODEL 8
REMARK VINA RESULT:      -6.0      3.878      7.757
REMARK  Name = 
REMARK  3 active torsions:
REMARK  status: ('A' for Active; 'I' for Inactive)
REMARK    1  A    between atoms: C_2  and  C_11
REMARK    2  A    between atoms: N_3  and  C_4
REMARK    3  A    between atoms: C_14  and  N_15
REMARK                            x       y       z     vdW  Elec       q    Type
REMARK                         _______ _______ _______ _____ _____    ______ ____
ROOT
ATOM      1  O   UNL     1      18.436   9.250  37.984  0.00  0.00    +0.000 OA
ATOM      2  C   UNL     1      18.706   9.893  36.962  0.00  0.00    +0.000 C 
ATOM      3  N   UNL     1      20.033  10.307  36.756  0.00  0.00    +0.000 NA
ENDROOT
BRANCH   3   4
ATOM      4  C   UNL     1      21.186  10.118  37.507  0.00  0.00    +0.000 C 
ATOM      5  C   UNL     1      22.388  10.218  36.561  0.00  0.00    +0.000 C 
ATOM      6  C   UNL     1      23.344   9.065  36.858  0.00  0.00    +0.000 C 
ATOM      7  C   UNL     1      23.238   8.901  38.403  0.00  0.00    +0.000 C 
ATOM      8  C   UNL     1      23.708  10.194  38.993  0.00  0.00    +0.000 C 
ATOM      9  C   UNL     1      22.683  11.228  39.223  0.00  0.00    +0.000 C 
ATOM     10  C   UNL     1      21.330  10.888  38.738  0.00  0.00    +0.000 C 
ENDBRANCH   3   4
BRANCH   2  11
ATOM     11  C   UNL     1      17.703  10.259  35.931  0.00  0.00    +0.000 A 
ATOM     12  C   UNL     1      17.955   9.893  34.624  0.00  0.00    +0.000 A 
ATOM     13  C   UNL     1      17.088  10.229  33.613  0.00  0.00    +0.000 A 
ATOM     14  C   UNL     1      15.920  10.949  33.853  0.00  0.00    +0.000 A 
ATOM     15  C   UNL     1      15.676  11.310  35.159  0.00  0.00    +0.000 A 
ATOM     16  C   UNL     1      16.563  10.969  36.198  0.00  0.00    +0.000 A 
BRANCH  14  17
ATOM     17  N   UNL     1      15.045  11.263  32.762  0.00  0.00    +0.000 N 
ATOM     18  O   UNL     1      14.806  12.457  32.503  0.00  0.00    +0.000 OA
ATOM     19  O   UNL     1      14.452  10.310  31.992  0.00  0.00    +0.000 OA
ENDBRANCH  14  17
ENDBRANCH   2  11
TORSDOF 3
ENDMDL
MODEL 9
REMARK VINA RESULT:      -6.0     21.856     23.629
REMARK  Name = 
REMARK  3 active torsions:
REMARK  status: ('A' for Active; 'I' for Inactive)
REMARK    1  A    between atoms: C_2  and  C_11
REMARK    2  A    between atoms: N_3  and  C_4
REMARK    3  A    between atoms: C_14  and  N_15
REMARK                            x       y       z     vdW  Elec       q    Type
REMARK                         _______ _______ _______ _____ _____    ______ ____
ROOT
ATOM      1  O   UNL     1      22.516 -10.052  24.237  0.00  0.00    +0.000 OA
ATOM      2  C   UNL     1      22.485  -8.821  24.363  0.00  0.00    +0.000 C 
ATOM      3  N   UNL     1      23.597  -8.070  23.945  0.00  0.00    +0.000 NA
ENDROOT
BRANCH   3   4
ATOM      4  C   UNL     1      24.803  -8.450  23.369  0.00  0.00    +0.000 C 
ATOM      5  C   UNL     1      24.519  -8.893  21.929  0.00  0.00    +0.000 C 
ATOM      6  C   UNL     1      25.259 -10.201  21.663  0.00  0.00    +0.000 C 
ATOM      7  C   UNL     1      26.583 -10.033  22.465  0.00  0.00    +0.000 C 
ATOM      8  C   UNL     1      27.284  -8.853  21.869  0.00  0.00    +0.000 C 
ATOM      9  C   UNL     1      26.983  -7.537  22.458  0.00  0.00    +0.000 C 
ATOM     10  C   UNL     1      25.937  -7.542  23.500  0.00  0.00    +0.000 C 
ENDBRANCH   3   4
BRANCH   2  11
ATOM     11  C   UNL     1      21.331  -8.082  24.934  0.00  0.00    +0.000 A 
ATOM     12  C   UNL     1      21.435  -6.710  25.053  0.00  0.00    +0.000 A 
ATOM     13  C   UNL     1      20.421  -5.967  25.605  0.00  0.00    +0.000 A 
ATOM     14  C   UNL     1      19.246  -6.553  26.069  0.00  0.00    +0.000 A 
ATOM     15  C   UNL     1      19.150  -7.921  25.947  0.00  0.00    +0.000 A 
ATOM     16  C   UNL     1      20.188  -8.687  25.383  0.00  0.00    +0.000 A 
BRANCH  14  17
ATOM     17  N   UNL     1      18.215  -5.727  26.626  0.00  0.00    +0.000 N 
ATOM     18  O   UNL     1      18.342  -4.490  26.580  0.00  0.00    +0.000 OA
ATOM     19  O   UNL     1      17.096  -6.235  27.213  0.00  0.00    +0.000 OA
ENDBRANCH  14  17
ENDBRANCH   2  11
TORSDOF 3
ENDMDL
MODEL 10
REMARK VINA RESULT:      -5.9     18.736     21.945
REMARK  Name = 
REMARK  3 active torsions:
REMARK  status: ('A' for Active; 'I' for Inactive)
REMARK    1  A    between atoms: C_2  and  C_11
REMARK    2  A    between atoms: N_3  and  C_4
REMARK    3  A    between atoms: C_14  and  N_15
REMARK                            x       y       z     vdW  Elec       q    Type
REMARK                         _______ _______ _______ _____ _____    ______ ____
ROOT
ATOM      1  O   UNL     1      26.310  22.575  25.139  0.00  0.00    +0.000 OA
ATOM      2  C   UNL     1      27.151  23.480  25.198  0.00  0.00    +0.000 C 
ATOM      3  N   UNL     1      27.558  23.944  26.462  0.00  0.00    +0.000 NA
ENDROOT
BRANCH   3   4
ATOM      4  C   UNL     1      27.193  23.560  27.746  0.00  0.00    +0.000 C 
ATOM      5  C   UNL     1      28.410  23.752  28.659  0.00  0.00    +0.000 C 
ATOM      6  C   UNL     1      28.567  22.510  29.533  0.00  0.00    +0.000 C 
ATOM      7  C   UNL     1      27.097  22.088  29.823  0.00  0.00    +0.000 C 
ATOM      8  C   UNL     1      26.474  23.229  30.565  0.00  0.00    +0.000 C 
ATOM      9  C   UNL     1      25.815  24.266  29.751  0.00  0.00    +0.000 C 
ATOM     10  C   UNL     1      25.950  24.096  28.290  0.00  0.00    +0.000 C 
ENDBRANCH   3   4
BRANCH   2  11
ATOM     11  C   UNL     1      27.765  24.113  24.004  0.00  0.00    +0.000 A 
ATOM     12  C   UNL     1      27.596  25.473  23.832  0.00  0.00    +0.000 A 
ATOM     13  C   UNL     1      28.106  26.118  22.733  0.00  0.00    +0.000 A 
ATOM     14  C   UNL     1      28.813  25.440  21.742  0.00  0.00    +0.000 A 
ATOM     15  C   UNL     1      28.976  24.084  21.921  0.00  0.00    +0.000 A 
ATOM     16  C   UNL     1      28.454  23.419  23.046  0.00  0.00    +0.000 A 
BRANCH  14  17
ATOM     17  N   UNL     1      29.333  26.165  20.621  0.00  0.00    +0.000 N 
ATOM     18  O   UNL     1      29.846  25.534  19.678  0.00  0.00    +0.000 OA
ATOM     19  O   UNL     1      29.299  27.524  20.538  0.00  0.00    +0.000 OA
ENDBRANCH  14  17
ENDBRANCH   2  11
TORSDOF 3
ENDMDL
