MODEL 1
REMARK VINA RESULT:      -7.1      0.000      0.000
REMARK  Name = 
REMARK  3 active torsions:
REMARK  status: ('A' for Active; 'I' for Inactive)
REMARK    1  A    between atoms: O_2  and  C_3
REMARK    2  A    between atoms: N_6  and  C_7
REMARK    3  A    between atoms: N_15  and  C_16
REMARK                            x       y       z     vdW  Elec       q    Type
REMARK                         _______ _______ _______ _____ _____    ______ ____
ROOT
ATOM      1  C   UNL     1      13.978  12.013  36.237  0.00  0.00    +0.000 A 
ATOM      2  N   UNL     1      14.845  11.724  37.216  0.00  0.00    +0.000 NA
ATOM      3  C   UNL     1      16.136  11.424  36.931  0.00  0.00    +0.000 A 
ATOM      4  N   UNL     1      17.045  11.120  37.979  0.00  0.00    +0.000 NA
ATOM      5  N   UNL     1      16.494  11.434  35.635  0.00  0.00    +0.000 NA
ATOM      6  C   UNL     1      15.664  11.717  34.616  0.00  0.00    +0.000 A 
ATOM      7  N   UNL     1      16.103  11.710  33.262  0.00  0.00    +0.000 NA
ATOM      8  N   UNL     1      14.387  12.008  34.959  0.00  0.00    +0.000 NA
ENDROOT
BRANCH   4   9
ATOM      9  C   UNL     1      18.391  10.811  37.645  0.00  0.00    +0.000 A 
ATOM     10  C   UNL     1      18.706   9.772  36.780  0.00  0.00    +0.000 A 
ATOM     11  C   UNL     1      20.002   9.475  36.459  0.00  0.00    +0.000 A 
ATOM     12  C   UNL     1      21.040  10.211  36.995  0.00  0.00    +0.000 A 
ATOM     13  C   UNL     1      20.760  11.263  37.867  0.00  0.00    +0.000 A 
ATOM     14  C   UNL     1      19.436  11.536  38.170  0.00  0.00    +0.000 A 
ENDBRANCH   4   9
BRANCH   7  15
ATOM     15  C   UNL     1      15.271  12.000  32.143  0.00  0.00    +0.000 C 
ATOM     16  C   UNL     1      14.515  10.795  31.631  0.00  0.00    +0.000 C 
ATOM     17  C   UNL     1      16.184  12.447  30.995  0.00  0.00    +0.000 C 
ATOM     18  C   UNL     1      14.362  13.142  32.467  0.00  0.00    +0.000 C 
ENDBRANCH   7  15
BRANCH   1  20
ATOM     19  C   UNL     1      11.846  11.402  37.283  0.00  0.00    +0.000 C 
ATOM     20  O   UNL     1      12.671  12.309  36.607  0.00  0.00    +0.000 OA
ENDBRANCH   1  20
TORSDOF 3
ENDMDL
MODEL 2
REMARK VINA RESULT:      -6.4     28.575     31.149
REMARK  Name = 
REMARK  3 active torsions:
REMARK  status: ('A' for Active; 'I' for Inactive)
REMARK    1  A    between atoms: O_2  and  C_3
REMARK    2  A    between atoms: N_6  and  C_7
REMARK    3  A    between atoms: N_15  and  C_16
REMARK                            x       y       z     vdW  Elec       q    Type
REMARK                         _______ _______ _______ _____ _____    ______ ____
ROOT
ATOM      1  C   UNL     1      33.206  20.313  10.903  0.00  0.00    +0.000 A 
ATOM      2  N   UNL     1      32.535  20.704  11.994  0.00  0.00    +0.000 NA
ATOM      3  C   UNL     1      31.374  21.394  11.882  0.00  0.00    +0.000 A 
ATOM      4  N   UNL     1      30.671  21.802  13.047  0.00  0.00    +0.000 NA
ATOM      5  N   UNL     1      30.938  21.660  10.638  0.00  0.00    +0.000 NA
ATOM      6  C   UNL     1      31.574  21.291   9.511  0.00  0.00    +0.000 A 
ATOM      7  N   UNL     1      31.062  21.605   8.220  0.00  0.00    +0.000 NA
ATOM      8  N   UNL     1      32.727  20.605   9.683  0.00  0.00    +0.000 NA
ENDROOT
BRANCH   4   9
ATOM      9  C   UNL     1      29.457  22.524  12.892  0.00  0.00    +0.000 A 
ATOM     10  C   UNL     1      29.108  23.554  13.755  0.00  0.00    +0.000 A 
ATOM     11  C   UNL     1      27.938  24.248  13.605  0.00  0.00    +0.000 A 
ATOM     12  C   UNL     1      27.068  23.936  12.581  0.00  0.00    +0.000 A 
ATOM     13  C   UNL     1      27.387  22.907  11.695  0.00  0.00    +0.000 A 
ATOM     14  C   UNL     1      28.579  22.224  11.876  0.00  0.00    +0.000 A 
ENDBRANCH   4   9
BRANCH   7  15
ATOM     15  C   UNL     1      31.690  21.241   6.995  0.00  0.00    +0.000 C 
ATOM     16  C   UNL     1      33.078  21.820   6.840  0.00  0.00    +0.000 C 
ATOM     17  C   UNL     1      30.853  21.835   5.856  0.00  0.00    +0.000 C 
ATOM     18  C   UNL     1      31.677  19.755   6.836  0.00  0.00    +0.000 C 
ENDBRANCH   7  15
BRANCH   1  20
ATOM     19  C   UNL     1      35.218  19.807  12.209  0.00  0.00    +0.000 C 
ATOM     20  O   UNL     1      34.389  19.610  11.098  0.00  0.00    +0.000 OA
ENDBRANCH   1  20
TORSDOF 3
ENDMDL
MODEL 3
REMARK VINA RESULT:      -6.1     21.088     22.447
REMARK  Name = 
REMARK  3 active torsions:
REMARK  status: ('A' for Active; 'I' for Inactive)
REMARK    1  A    between atoms: O_2  and  C_3
REMARK    2  A    between atoms: N_6  and  C_7
REMARK    3  A    between atoms: N_15  and  C_16
REMARK                            x       y       z     vdW  Elec       q    Type
REMARK                         _______ _______ _______ _____ _____    ______ ____
ROOT
ATOM      1  C   UNL     1      14.928 -10.731  26.939  0.00  0.00    +0.000 A 
ATOM      2  N   UNL     1      16.062 -10.272  27.485  0.00  0.00    +0.000 NA
ATOM      3  C   UNL     1      16.679  -9.175  26.981  0.00  0.00    +0.000 A 
ATOM      4  N   UNL     1      17.880  -8.699  27.570  0.00  0.00    +0.000 NA
ATOM      5  N   UNL     1      16.102  -8.582  25.921  0.00  0.00    +0.000 NA
ATOM      6  C   UNL     1      14.967  -9.002  25.336  0.00  0.00    +0.000 A 
ATOM      7  N   UNL     1      14.405  -8.331  24.213  0.00  0.00    +0.000 NA
ATOM      8  N   UNL     1      14.394 -10.101  25.881  0.00  0.00    +0.000 NA
ENDROOT
BRANCH   4   9
ATOM      9  C   UNL     1      18.501  -7.547  27.016  0.00  0.00    +0.000 A 
ATOM     10  C   UNL     1      18.026  -6.268  27.275  0.00  0.00    +0.000 A 
ATOM     11  C   UNL     1      18.624  -5.160  26.740  0.00  0.00    +0.000 A 
ATOM     12  C   UNL     1      19.727  -5.289  25.921  0.00  0.00    +0.000 A 
ATOM     13  C   UNL     1      20.232  -6.560  25.640  0.00  0.00    +0.000 A 
ATOM     14  C   UNL     1      19.601  -7.660  26.198  0.00  0.00    +0.000 A 
ENDBRANCH   4   9
BRANCH   7  15
ATOM     15  C   UNL     1      13.207  -8.729  23.553  0.00  0.00    +0.000 C 
ATOM     16  C   UNL     1      13.199 -10.189  23.159  0.00  0.00    +0.000 C 
ATOM     17  C   UNL     1      13.119  -7.936  22.244  0.00  0.00    +0.000 C 
ATOM     18  C   UNL     1      12.020  -8.361  24.384  0.00  0.00    +0.000 C 
ENDBRANCH   7  15
BRANCH   1  20
ATOM     19  C   UNL     1      14.011 -11.936  28.867  0.00  0.00    +0.000 C 
ATOM     20  O   UNL     1      14.354 -11.860  27.511  0.00  0.00    +0.000 OA
ENDBRANCH   1  20
TORSDOF 3
ENDMDL
MODEL 4
REMARK VINA RESULT:      -6.0     21.925     24.293
REMARK  Name = 
REMARK  3 active torsions:
REMARK  status: ('A' for Active; 'I' for Inactive)
REMARK    1  A    between atoms: O_2  and  C_3
REMARK    2  A    between atoms: N_6  and  C_7
REMARK    3  A    between atoms: N_15  and  C_16
REMARK                            x       y       z     vdW  Elec       q    Type
REMARK                         _______ _______ _______ _____ _____    ______ ____
ROOT
ATOM      1  C   UNL     1      29.919  26.807  19.674  0.00  0.00    +0.000 A 
ATOM      2  N   UNL     1      29.788  25.525  20.038  0.00  0.00    +0.000 NA
ATOM      3  C   UNL     1      29.232  25.197  21.229  0.00  0.00    +0.000 A 
ATOM      4  N   UNL     1      29.098  23.833  21.602  0.00  0.00    +0.000 NA
ATOM      5  N   UNL     1      28.824  26.210  22.013  0.00  0.00    +0.000 NA
ATOM      6  C   UNL     1      28.932  27.512  21.695  0.00  0.00    +0.000 A 
ATOM      7  N   UNL     1      28.481  28.541  22.570  0.00  0.00    +0.000 NA
ATOM      8  N   UNL     1      29.495  27.781  20.494  0.00  0.00    +0.000 NA
ENDROOT
BRANCH   4   9
ATOM      9  C   UNL     1      28.510  23.525  22.858  0.00  0.00    +0.000 A 
ATOM     10  C   UNL     1      27.139  23.610  23.061  0.00  0.00    +0.000 A 
ATOM     11  C   UNL     1      26.574  23.313  24.271  0.00  0.00    +0.000 A 
ATOM     12  C   UNL     1      27.363  22.918  25.332  0.00  0.00    +0.000 A 
ATOM     13  C   UNL     1      28.745  22.821  25.164  0.00  0.00    +0.000 A 
ATOM     14  C   UNL     1      29.284  23.129  23.925  0.00  0.00    +0.000 A 
ENDBRANCH   4   9
BRANCH   7  15
ATOM     15  C   UNL     1      28.570  29.934  22.287  0.00  0.00    +0.000 C 
ATOM     16  C   UNL     1      29.992  30.420  22.117  0.00  0.00    +0.000 C 
ATOM     17  C   UNL     1      28.008  30.685  23.501  0.00  0.00    +0.000 C 
ATOM     18  C   UNL     1      27.712  30.272  21.111  0.00  0.00    +0.000 C 
ENDBRANCH   7  15
BRANCH   1  20
ATOM     19  C   UNL     1      31.419  28.102  18.229  0.00  0.00    +0.000 C 
ATOM     20  O   UNL     1      30.500  27.065  18.438  0.00  0.00    +0.000 OA
ENDBRANCH   1  20
TORSDOF 3
ENDMDL
MODEL 5
REMARK VINA RESULT:      -5.8     20.864     22.600
REMARK  Name = 
REMARK  3 active torsions:
REMARK  status: ('A' for Active; 'I' for Inactive)
REMARK    1  A    between atoms: O_2  and  C_3
REMARK    2  A    between atoms: N_6  and  C_7
REMARK    3  A    between atoms: N_15  and  C_16
REMARK                            x       y       z     vdW  Elec       q    Type
REMARK                         _______ _______ _______ _____ _____    ______ ____
ROOT
ATOM      1  C   UNL     1      23.340   1.484  17.731  0.00  0.00    +0.000 A 
ATOM      2  N   UNL     1      23.382   2.811  17.906  0.00  0.00    +0.000 NA
ATOM      3  C   UNL     1      24.541   3.495  17.746  0.00  0.00    +0.000 A 
ATOM      4  N   UNL     1      24.572   4.902  17.934  0.00  0.00    +0.000 NA
ATOM      5  N   UNL     1      25.630   2.781  17.408  0.00  0.00    +0.000 NA
ATOM      6  C   UNL     1      25.642   1.450  17.220  0.00  0.00    +0.000 A 
ATOM      7  N   UNL     1      26.829   0.750  16.863  0.00  0.00    +0.000 NA
ATOM      8  N   UNL     1      24.457   0.819  17.393  0.00  0.00    +0.000 NA
ENDROOT
BRANCH   4   9
ATOM      9  C   UNL     1      25.804   5.587  17.759  0.00  0.00    +0.000 A 
ATOM     10  C   UNL     1      26.807   5.538  18.717  0.00  0.00    +0.000 A 
ATOM     11  C   UNL     1      27.993   6.198  18.547  0.00  0.00    +0.000 A 
ATOM     12  C   UNL     1      28.223   6.937  17.404  0.00  0.00    +0.000 A 
ATOM     13  C   UNL     1      27.237   7.008  16.419  0.00  0.00    +0.000 A 
ATOM     14  C   UNL     1      26.048   6.327  16.624  0.00  0.00    +0.000 A 
ENDBRANCH   4   9
BRANCH   7  15
ATOM     15  C   UNL     1      26.902  -0.657  16.652  0.00  0.00    +0.000 C 
ATOM     16  C   UNL     1      25.778  -1.192  15.793  0.00  0.00    +0.000 C 
ATOM     17  C   UNL     1      26.749  -1.335  18.020  0.00  0.00    +0.000 C 
ATOM     18  C   UNL     1      28.248  -1.024  16.115  0.00  0.00    +0.000 C 
ENDBRANCH   7  15
BRANCH   1  20
ATOM     19  C   UNL     1      20.896   1.434  17.540  0.00  0.00    +0.000 C 
ATOM     20  O   UNL     1      22.115   0.853  17.912  0.00  0.00    +0.000 OA
ENDBRANCH   1  20
TORSDOF 3
ENDMDL
MODEL 6
REMARK VINA RESULT:      -5.8     18.514     20.835
REMARK  Name = 
REMARK  3 active torsions:
REMARK  status: ('A' for Active; 'I' for Inactive)
REMARK    1  A    between atoms: O_2  and  C_3
REMARK    2  A    between atoms: N_6  and  C_7
REMARK    3  A    between atoms: N_15  and  C_16
REMARK                            x       y       z     vdW  Elec       q    Type
REMARK                         _______ _______ _______ _____ _____    ______ ____
ROOT
ATOM      1  C   UNL     1      30.712  22.291  27.430  0.00  0.00    +0.000 A 
ATOM      2  N   UNL     1      30.963  22.490  26.130  0.00  0.00    +0.000 NA
ATOM      3  C   UNL     1      30.080  23.159  25.349  0.00  0.00    +0.000 A 
ATOM      4  N   UNL     1      30.359  23.365  23.971  0.00  0.00    +0.000 NA
ATOM      5  N   UNL     1      28.957  23.606  25.939  0.00  0.00    +0.000 NA
ATOM      6  C   UNL     1      28.658  23.432  27.239  0.00  0.00    +0.000 A 
ATOM      7  N   UNL     1      27.450  23.929  27.806  0.00  0.00    +0.000 NA
ATOM      8  N   UNL     1      29.575  22.758  27.970  0.00  0.00    +0.000 NA
ENDROOT
BRANCH   4   9
ATOM      9  C   UNL     1      29.411  24.070  23.182  0.00  0.00    +0.000 A 
ATOM     10  C   UNL     1      28.313  23.433  22.620  0.00  0.00    +0.000 A 
ATOM     11  C   UNL     1      27.402  24.114  21.860  0.00  0.00    +0.000 A 
ATOM     12  C   UNL     1      27.555  25.466  21.631  0.00  0.00    +0.000 A 
ATOM     13  C   UNL     1      28.647  26.139  22.181  0.00  0.00    +0.000 A 
ATOM     14  C   UNL     1      29.551  25.419  22.945  0.00  0.00    +0.000 A 
ENDBRANCH   4   9
BRANCH   7  15
ATOM     15  C   UNL     1      27.080  23.775  29.173  0.00  0.00    +0.000 C 
ATOM     16  C   UNL     1      26.961  22.330  29.601  0.00  0.00    +0.000 C 
ATOM     17  C   UNL     1      25.682  24.383  29.341  0.00  0.00    +0.000 C 
ATOM     18  C   UNL     1      28.016  24.549  30.045  0.00  0.00    +0.000 C 
ENDBRANCH   7  15
BRANCH   1  20
ATOM     19  C   UNL     1      32.020  21.947  29.474  0.00  0.00    +0.000 C 
ATOM     20  O   UNL     1      31.664  21.596  28.166  0.00  0.00    +0.000 OA
ENDBRANCH   1  20
TORSDOF 3
ENDMDL
MODEL 7
REMARK VINA RESULT:      -5.6     17.380     19.492
REMARK  Name = 
REMARK  3 active torsions:
REMARK  status: ('A' for Active; 'I' for Inactive)
REMARK    1  A    between atoms: O_2  and  C_3
REMARK    2  A    between atoms: N_6  and  C_7
REMARK    3  A    between atoms: N_15  and  C_16
REMARK                            x       y       z     vdW  Elec       q    Type
REMARK                         _______ _______ _______ _____ _____    ______ ____
ROOT
ATOM      1  C   UNL     1      26.051  23.643  28.651  0.00  0.00    +0.000 A 
ATOM      2  N   UNL     1      26.962  23.071  27.853  0.00  0.00    +0.000 NA
ATOM      3  C   UNL     1      27.164  23.527  26.593  0.00  0.00    +0.000 A 
ATOM      4  N   UNL     1      28.133  22.911  25.758  0.00  0.00    +0.000 NA
ATOM      5  N   UNL     1      26.414  24.569  26.193  0.00  0.00    +0.000 NA
ATOM      6  C   UNL     1      25.487  25.179  26.953  0.00  0.00    +0.000 A 
ATOM      7  N   UNL     1      24.723  26.279  26.471  0.00  0.00    +0.000 NA
ATOM      8  N   UNL     1      25.328  24.682  28.201  0.00  0.00    +0.000 NA
ENDROOT
BRANCH   4   9
ATOM      9  C   UNL     1      28.319  23.415  24.443  0.00  0.00    +0.000 A 
ATOM     10  C   UNL     1      29.512  24.007  24.051  0.00  0.00    +0.000 A 
ATOM     11  C   UNL     1      29.688  24.493  22.784  0.00  0.00    +0.000 A 
ATOM     12  C   UNL     1      28.672  24.403  21.854  0.00  0.00    +0.000 A 
ATOM     13  C   UNL     1      27.460  23.813  22.213  0.00  0.00    +0.000 A 
ATOM     14  C   UNL     1      27.315  23.332  23.505  0.00  0.00    +0.000 A 
ENDBRANCH   4   9
BRANCH   7  15
ATOM     15  C   UNL     1      23.730  26.963  27.229  0.00  0.00    +0.000 C 
ATOM     16  C   UNL     1      22.448  26.175  27.384  0.00  0.00    +0.000 C 
ATOM     17  C   UNL     1      23.356  28.233  26.455  0.00  0.00    +0.000 C 
ATOM     18  C   UNL     1      24.295  27.388  28.546  0.00  0.00    +0.000 C 
ENDBRANCH   7  15
BRANCH   1  20
ATOM     19  C   UNL     1      26.446  21.890  30.318  0.00  0.00    +0.000 C 
ATOM     20  O   UNL     1      25.901  23.120  29.929  0.00  0.00    +0.000 OA
ENDBRANCH   1  20
TORSDOF 3
ENDMDL
MODEL 8
REMARK VINA RESULT:      -5.4     18.165     20.477
REMARK  Name = 
REMARK  3 active torsions:
REMARK  status: ('A' for Active; 'I' for Inactive)
REMARK    1  A    between atoms: O_2  and  C_3
REMARK    2  A    between atoms: N_6  and  C_7
REMARK    3  A    between atoms: N_15  and  C_16
REMARK                            x       y       z     vdW  Elec       q    Type
REMARK                         _______ _______ _______ _____ _____    ______ ____
ROOT
ATOM      1  C   UNL     1      27.236  23.046  28.362  0.00  0.00    +0.000 A 
ATOM      2  N   UNL     1      26.577  23.341  27.234  0.00  0.00    +0.000 NA
ATOM      3  C   UNL     1      27.249  23.703  26.114  0.00  0.00    +0.000 A 
ATOM      4  N   UNL     1      26.539  24.013  24.924  0.00  0.00    +0.000 NA
ATOM      5  N   UNL     1      28.591  23.748  26.195  0.00  0.00    +0.000 NA
ATOM      6  C   UNL     1      29.299  23.462  27.301  0.00  0.00    +0.000 A 
ATOM      7  N   UNL     1      30.721  23.529  27.323  0.00  0.00    +0.000 NA
ATOM      8  N   UNL     1      28.577  23.107  28.388  0.00  0.00    +0.000 NA
ENDROOT
BRANCH   4   9
ATOM      9  C   UNL     1      27.275  24.388  23.769  0.00  0.00    +0.000 A 
ATOM     10  C   UNL     1      27.911  23.445  22.972  0.00  0.00    +0.000 A 
ATOM     11  C   UNL     1      28.620  23.808  21.860  0.00  0.00    +0.000 A 
ATOM     12  C   UNL     1      28.721  25.137  21.500  0.00  0.00    +0.000 A 
ATOM     13  C   UNL     1      28.095  26.111  22.277  0.00  0.00    +0.000 A 
ATOM     14  C   UNL     1      27.385  25.708  23.397  0.00  0.00    +0.000 A 
ENDBRANCH   4   9
BRANCH   7  15
ATOM     15  C   UNL     1      31.524  23.238  28.464  0.00  0.00    +0.000 C 
ATOM     16  C   UNL     1      31.019  23.891  29.731  0.00  0.00    +0.000 C 
ATOM     17  C   UNL     1      32.916  23.827  28.208  0.00  0.00    +0.000 C 
ATOM     18  C   UNL     1      31.680  21.759  28.613  0.00  0.00    +0.000 C 
ENDBRANCH   7  15
BRANCH   1  20
ATOM     19  C   UNL     1      26.799  21.595  30.289  0.00  0.00    +0.000 C 
ATOM     20  O   UNL     1      26.478  22.684  29.470  0.00  0.00    +0.000 OA
ENDBRANCH   1  20
TORSDOF 3
ENDMDL
MODEL 9
REMARK VINA RESULT:      -5.3     17.880     20.230
REMARK  Name = 
REMARK  3 active torsions:
REMARK  status: ('A' for Active; 'I' for Inactive)
REMARK    1  A    between atoms: O_2  and  C_3
REMARK    2  A    between atoms: N_6  and  C_7
REMARK    3  A    between atoms: N_15  and  C_16
REMARK                            x       y       z     vdW  Elec       q    Type
REMARK                         _______ _______ _______ _____ _____    ______ ____
ROOT
ATOM      1  C   UNL     1      26.871  23.194  28.587  0.00  0.00    +0.000 A 
ATOM      2  N   UNL     1      26.085  23.508  27.549  0.00  0.00    +0.000 NA
ATOM      3  C   UNL     1      26.620  23.910  26.371  0.00  0.00    +0.000 A 
ATOM      4  N   UNL     1      25.775  24.239  25.279  0.00  0.00    +0.000 NA
ATOM      5  N   UNL     1      27.962  23.976  26.300  0.00  0.00    +0.000 NA
ATOM      6  C   UNL     1      28.795  23.673  27.311  0.00  0.00    +0.000 A 
ATOM      7  N   UNL     1      30.209  23.765  27.174  0.00  0.00    +0.000 NA
ATOM      8  N   UNL     1      28.206  23.277  28.463  0.00  0.00    +0.000 NA
ENDROOT
BRANCH   4   9
ATOM      9  C   UNL     1      26.370  24.658  24.059  0.00  0.00    +0.000 A 
ATOM     10  C   UNL     1      26.726  25.981  23.838  0.00  0.00    +0.000 A 
ATOM     11  C   UNL     1      27.298  26.383  22.662  0.00  0.00    +0.000 A 
ATOM     12  C   UNL     1      27.538  25.470  21.655  0.00  0.00    +0.000 A 
ATOM     13  C   UNL     1      27.194  24.131  21.842  0.00  0.00    +0.000 A 
ATOM     14  C   UNL     1      26.615  23.759  23.045  0.00  0.00    +0.000 A 
ENDBRANCH   4   9
BRANCH   7  15
ATOM     15  C   UNL     1      31.140  23.457  28.208  0.00  0.00    +0.000 C 
ATOM     16  C   UNL     1      32.515  24.038  27.965  0.00  0.00    +0.000 C 
ATOM     17  C   UNL     1      31.320  21.935  28.226  0.00  0.00    +0.000 C 
ATOM     18  C   UNL     1      30.581  23.861  29.534  0.00  0.00    +0.000 C 
ENDBRANCH   7  15
BRANCH   1  20
ATOM     19  C   UNL     1      26.627  21.640  30.467  0.00  0.00    +0.000 C 
ATOM     20  O   UNL     1      26.249  22.790  29.762  0.00  0.00    +0.000 OA
ENDBRANCH   1  20
TORSDOF 3
ENDMDL
MODEL 10
REMARK VINA RESULT:      -5.2     21.294     22.717
REMARK  Name = 
REMARK  3 active torsions:
REMARK  status: ('A' for Active; 'I' for Inactive)
REMARK    1  A    between atoms: O_2  and  C_3
REMARK    2  A    between atoms: N_6  and  C_7
REMARK    3  A    between atoms: N_15  and  C_16
REMARK                            x       y       z     vdW  Elec       q    Type
REMARK                         _______ _______ _______ _____ _____    ______ ____
ROOT
ATOM      1  C   UNL     1      13.828  -9.470  25.570  0.00  0.00    +0.000 A 
ATOM      2  N   UNL     1      14.720  -9.019  26.461  0.00  0.00    +0.000 NA
ATOM      3  C   UNL     1      15.891  -8.473  26.053  0.00  0.00    +0.000 A 
ATOM      4  N   UNL     1      16.828  -7.998  27.009  0.00  0.00    +0.000 NA
ATOM      5  N   UNL     1      16.106  -8.409  24.727  0.00  0.00    +0.000 NA
ATOM      6  C   UNL     1      15.245  -8.847  23.792  0.00  0.00    +0.000 A 
ATOM      7  N   UNL     1      15.532  -8.752  22.401  0.00  0.00    +0.000 NA
ATOM      8  N   UNL     1      14.093  -9.382  24.257  0.00  0.00    +0.000 NA
ENDROOT
BRANCH   4   9
ATOM      9  C   UNL     1      18.046  -7.431  26.546  0.00  0.00    +0.000 A 
ATOM     10  C   UNL     1      18.227  -6.057  26.467  0.00  0.00    +0.000 A 
ATOM     11  C   UNL     1      19.400  -5.513  26.020  0.00  0.00    +0.000 A 
ATOM     12  C   UNL     1      20.444  -6.328  25.633  0.00  0.00    +0.000 A 
ATOM     13  C   UNL     1      20.298  -7.714  25.700  0.00  0.00    +0.000 A 
ATOM     14  C   UNL     1      19.096  -8.231  26.157  0.00  0.00    +0.000 A 
ENDBRANCH   4   9
BRANCH   7  15
ATOM     15  C   UNL     1      14.660  -9.198  21.367  0.00  0.00    +0.000 C 
ATOM     16  C   UNL     1      14.363 -10.680  21.433  0.00  0.00    +0.000 C 
ATOM     17  C   UNL     1      15.377  -8.969  20.031  0.00  0.00    +0.000 C 
ATOM     18  C   UNL     1      13.414  -8.372  21.358  0.00  0.00    +0.000 C 
ENDBRANCH   7  15
BRANCH   1  20
ATOM     19  C   UNL     1      11.770  -9.309  26.893  0.00  0.00    +0.000 C 
ATOM     20  O   UNL     1      12.650 -10.017  26.065  0.00  0.00    +0.000 OA
ENDBRANCH   1  20
TORSDOF 3
ENDMDL
