MODEL 1
REMARK VINA RESULT:      -6.5      0.000      0.000
REMARK  Name = 
REMARK  4 active torsions:
REMARK  status: ('A' for Active; 'I' for Inactive)
REMARK    1  A    between atoms: C_2  and  C_3
REMARK    2  A    between atoms: C_3  and  C_4
REMARK    3  A    between atoms: C_3  and  C_15
REMARK    4  A    between atoms: C_15  and  C_18
REMARK                            x       y       z     vdW  Elec       q    Type
REMARK                         _______ _______ _______ _____ _____    ______ ____
ROOT
ATOM      1  C   UNL     1      17.936   9.663  36.768  0.00  0.00    +0.000 A 
ATOM      2  C   UNL     1      18.321   9.196  35.589  0.00  0.00    +0.000 A 
ATOM      3  C   UNL     1      17.758   9.636  34.423  0.00  0.00    +0.000 A 
ATOM      4  C   UNL     1      16.769  10.587  34.504  0.00  0.00    +0.000 A 
ATOM      5  C   UNL     1      16.164  11.067  33.339  0.00  0.00    +0.000 A 
ATOM      6  C   UNL     1      15.174  12.019  33.428  0.00  0.00    +0.000 A 
ATOM      7  O   UNL     1      14.555  12.513  32.278  0.00  0.00    +0.000 OA
ATOM      8  C   UNL     1      14.784  12.494  34.643  0.00  0.00    +0.000 A 
ATOM      9  C   UNL     1      15.359  12.042  35.812  0.00  0.00    +0.000 A 
ATOM     10  C   UNL     1      16.343  11.096  35.720  0.00  0.00    +0.000 A 
ATOM     11  C   UNL     1      16.952  10.612  36.880  0.00  0.00    +0.000 A 
ENDROOT
BRANCH   1  12
ATOM     12  C   UNL     1      18.572   9.166  38.139  0.00  0.00    +0.000 C 
BRANCH  12  13
ATOM     13  C   UNL     1      19.846  10.175  38.200  0.00  0.00    +0.000 C 
ATOM     14  C   UNL     1      20.788   9.908  37.131  0.00  0.00    +0.000 C 
ATOM     15  C   UNL     1      19.376  11.562  38.390  0.00  0.00    +0.000 C 
BRANCH  13  16
ATOM     16  C   UNL     1      20.469   9.761  39.488  0.00  0.00    +0.000 C 
ATOM     17  O   UNL     1      20.709   8.566  39.789  0.00  0.00    +0.000 OA
ATOM     18  O   UNL     1      20.830  10.703  40.452  0.00  0.00    +0.000 OA
ENDBRANCH  13  16
ENDBRANCH  12  13
BRANCH  12  20
ATOM     19  C   UNL     1      17.108   9.183  40.130  0.00  0.00    +0.000 C 
ATOM     20  C   UNL     1      17.584  10.132  39.070  0.00  0.00    +0.000 C 
ENDBRANCH  12  20
ENDBRANCH   1  12
TORSDOF 4
ENDMDL
MODEL 2
REMARK VINA RESULT:      -6.2      1.118      2.041
REMARK  Name = 
REMARK  4 active torsions:
REMARK  status: ('A' for Active; 'I' for Inactive)
REMARK    1  A    between atoms: C_2  and  C_3
REMARK    2  A    between atoms: C_3  and  C_4
REMARK    3  A    between atoms: C_3  and  C_15
REMARK    4  A    between atoms: C_15  and  C_18
REMARK                            x       y       z     vdW  Elec       q    Type
REMARK                         _______ _______ _______ _____ _____    ______ ____
ROOT
ATOM      1  C   UNL     1      17.679   9.960  37.499  0.00  0.00    +0.000 A 
ATOM      2  C   UNL     1      16.660  10.708  37.897  0.00  0.00    +0.000 A 
ATOM      3  C   UNL     1      15.841  11.341  37.003  0.00  0.00    +0.000 A 
ATOM      4  C   UNL     1      16.102  11.179  35.663  0.00  0.00    +0.000 A 
ATOM      5  C   UNL     1      15.293  11.807  34.712  0.00  0.00    +0.000 A 
ATOM      6  C   UNL     1      15.561  11.641  33.373  0.00  0.00    +0.000 A 
ATOM      7  O   UNL     1      14.766  12.258  32.405  0.00  0.00    +0.000 OA
ATOM      8  C   UNL     1      16.609  10.871  32.972  0.00  0.00    +0.000 A 
ATOM      9  C   UNL     1      17.429  10.238  33.883  0.00  0.00    +0.000 A 
ATOM     10  C   UNL     1      17.159  10.404  35.214  0.00  0.00    +0.000 A 
ATOM     11  C   UNL     1      17.965   9.781  36.170  0.00  0.00    +0.000 A 
ENDROOT
BRANCH   1  12
ATOM     12  C   UNL     1      18.649   9.217  38.518  0.00  0.00    +0.000 C 
BRANCH  12  13
ATOM     13  C   UNL     1      19.694  10.431  38.794  0.00  0.00    +0.000 C 
ATOM     14  C   UNL     1      19.386  11.593  37.983  0.00  0.00    +0.000 C 
ATOM     15  C   UNL     1      19.871  10.618  40.249  0.00  0.00    +0.000 C 
BRANCH  13  16
ATOM     16  C   UNL     1      20.961   9.830  38.290  0.00  0.00    +0.000 C 
ATOM     17  O   UNL     1      21.758   9.186  39.014  0.00  0.00    +0.000 OA
ATOM     18  O   UNL     1      21.336   9.954  36.952  0.00  0.00    +0.000 OA
ENDBRANCH  13  16
ENDBRANCH  12  13
BRANCH  12  20
ATOM     19  C   UNL     1      17.432   8.191  40.409  0.00  0.00    +0.000 C 
ATOM     20  C   UNL     1      17.691   9.555  39.839  0.00  0.00    +0.000 C 
ENDBRANCH  12  20
ENDBRANCH   1  12
TORSDOF 4
ENDMDL
MODEL 3
REMARK VINA RESULT:      -6.2     18.741     19.892
REMARK  Name = 
REMARK  4 active torsions:
REMARK  status: ('A' for Active; 'I' for Inactive)
REMARK    1  A    between atoms: C_2  and  C_3
REMARK    2  A    between atoms: C_3  and  C_4
REMARK    3  A    between atoms: C_3  and  C_15
REMARK    4  A    between atoms: C_15  and  C_18
REMARK                            x       y       z     vdW  Elec       q    Type
REMARK                         _______ _______ _______ _____ _____    ______ ____
ROOT
ATOM      1  C   UNL     1      26.479  23.795  26.282  0.00  0.00    +0.000 A 
ATOM      2  C   UNL     1      25.887  23.058  25.353  0.00  0.00    +0.000 A 
ATOM      3  C   UNL     1      26.367  22.993  24.074  0.00  0.00    +0.000 A 
ATOM      4  C   UNL     1      27.493  23.721  23.771  0.00  0.00    +0.000 A 
ATOM      5  C   UNL     1      28.020  23.687  22.477  0.00  0.00    +0.000 A 
ATOM      6  C   UNL     1      29.147  24.418  22.181  0.00  0.00    +0.000 A 
ATOM      7  O   UNL     1      29.691  24.400  20.895  0.00  0.00    +0.000 OA
ATOM      8  C   UNL     1      29.749  25.173  23.140  0.00  0.00    +0.000 A 
ATOM      9  C   UNL     1      29.255  25.231  24.427  0.00  0.00    +0.000 A 
ATOM     10  C   UNL     1      28.134  24.502  24.719  0.00  0.00    +0.000 A 
ATOM     11  C   UNL     1      27.602  24.532  26.009  0.00  0.00    +0.000 A 
ENDROOT
BRANCH   1  12
ATOM     12  C   UNL     1      25.939  23.890  27.776  0.00  0.00    +0.000 C 
BRANCH  12  13
ATOM     13  C   UNL     1      27.246  23.308  28.548  0.00  0.00    +0.000 C 
ATOM     14  C   UNL     1      27.884  22.249  27.791  0.00  0.00    +0.000 C 
ATOM     15  C   UNL     1      28.082  24.427  29.029  0.00  0.00    +0.000 C 
BRANCH  13  16
ATOM     16  C   UNL     1      26.613  22.706  29.755  0.00  0.00    +0.000 C 
ATOM     17  O   UNL     1      25.871  23.346  30.539  0.00  0.00    +0.000 OA
ATOM     18  O   UNL     1      26.816  21.366  30.085  0.00  0.00    +0.000 OA
ENDBRANCH  13  16
ENDBRANCH  12  13
BRANCH  12  20
ATOM     19  C   UNL     1      25.051  26.188  27.969  0.00  0.00    +0.000 C 
ATOM     20  C   UNL     1      26.378  25.489  27.944  0.00  0.00    +0.000 C 
ENDBRANCH  12  20
ENDBRANCH   1  12
TORSDOF 4
ENDMDL
MODEL 4
REMARK VINA RESULT:      -6.1     20.711     22.612
REMARK  Name = 
REMARK  4 active torsions:
REMARK  status: ('A' for Active; 'I' for Inactive)
REMARK    1  A    between atoms: C_2  and  C_3
REMARK    2  A    between atoms: C_3  and  C_4
REMARK    3  A    between atoms: C_3  and  C_15
REMARK    4  A    between atoms: C_15  and  C_18
REMARK                            x       y       z     vdW  Elec       q    Type
REMARK                         _______ _______ _______ _____ _____    ______ ____
ROOT
ATOM      1  C   UNL     1      26.980   4.478  17.213  0.00  0.00    +0.000 A 
ATOM      2  C   UNL     1      27.256   3.243  16.819  0.00  0.00    +0.000 A 
ATOM      3  C   UNL     1      26.325   2.243  16.882  0.00  0.00    +0.000 A 
ATOM      4  C   UNL     1      25.079   2.554  17.372  0.00  0.00    +0.000 A 
ATOM      5  C   UNL     1      24.094   1.565  17.455  0.00  0.00    +0.000 A 
ATOM      6  C   UNL     1      22.849   1.884  17.947  0.00  0.00    +0.000 A 
ATOM      7  O   UNL     1      21.850   0.912  18.040  0.00  0.00    +0.000 OA
ATOM      8  C   UNL     1      22.573   3.154  18.351  0.00  0.00    +0.000 A 
ATOM      9  C   UNL     1      23.521   4.154  18.283  0.00  0.00    +0.000 A 
ATOM     10  C   UNL     1      24.758   3.834  17.793  0.00  0.00    +0.000 A 
ATOM     11  C   UNL     1      25.746   4.817  17.707  0.00  0.00    +0.000 A 
ENDROOT
BRANCH   1  12
ATOM     12  C   UNL     1      28.046   5.657  17.154  0.00  0.00    +0.000 C 
BRANCH  12  13
ATOM     13  C   UNL     1      27.711   6.218  15.665  0.00  0.00    +0.000 C 
ATOM     14  C   UNL     1      27.895   5.193  14.656  0.00  0.00    +0.000 C 
ATOM     15  C   UNL     1      26.433   6.959  15.686  0.00  0.00    +0.000 C 
BRANCH  13  16
ATOM     16  C   UNL     1      28.785   7.236  15.500  0.00  0.00    +0.000 C 
ATOM     17  O   UNL     1      29.888   7.182  16.097  0.00  0.00    +0.000 OA
ATOM     18  O   UNL     1      28.619   8.331  14.652  0.00  0.00    +0.000 OA
ENDBRANCH  13  16
ENDBRANCH  12  13
BRANCH  12  20
ATOM     19  C   UNL     1      27.916   7.219  19.066  0.00  0.00    +0.000 C 
ATOM     20  C   UNL     1      27.049   6.739  17.938  0.00  0.00    +0.000 C 
ENDBRANCH  12  20
ENDBRANCH   1  12
TORSDOF 4
ENDMDL
MODEL 5
REMARK VINA RESULT:      -6.1     16.358     18.395
REMARK  Name = 
REMARK  4 active torsions:
REMARK  status: ('A' for Active; 'I' for Inactive)
REMARK    1  A    between atoms: C_2  and  C_3
REMARK    2  A    between atoms: C_3  and  C_4
REMARK    3  A    between atoms: C_3  and  C_15
REMARK    4  A    between atoms: C_15  and  C_18
REMARK                            x       y       z     vdW  Elec       q    Type
REMARK                         _______ _______ _______ _____ _____    ______ ____
ROOT
ATOM      1  C   UNL     1      34.391   3.393  34.961  0.00  0.00    +0.000 A 
ATOM      2  C   UNL     1      33.932   3.108  33.750  0.00  0.00    +0.000 A 
ATOM      3  C   UNL     1      33.325   1.915  33.474  0.00  0.00    +0.000 A 
ATOM      4  C   UNL     1      33.198   1.004  34.495  0.00  0.00    +0.000 A 
ATOM      5  C   UNL     1      32.584  -0.229  34.261  0.00  0.00    +0.000 A 
ATOM      6  C   UNL     1      32.462  -1.136  35.289  0.00  0.00    +0.000 A 
ATOM      7  O   UNL     1      31.853  -2.374  35.078  0.00  0.00    +0.000 OA
ATOM      8  C   UNL     1      32.935  -0.837  36.529  0.00  0.00    +0.000 A 
ATOM      9  C   UNL     1      33.547   0.371  36.796  0.00  0.00    +0.000 A 
ATOM     10  C   UNL     1      33.667   1.270  35.772  0.00  0.00    +0.000 A 
ATOM     11  C   UNL     1      34.280   2.504  35.999  0.00  0.00    +0.000 A 
ENDROOT
BRANCH   1  12
ATOM     12  C   UNL     1      35.105   4.771  35.307  0.00  0.00    +0.000 C 
BRANCH  12  13
ATOM     13  C   UNL     1      33.790   5.633  35.722  0.00  0.00    +0.000 C 
ATOM     14  C   UNL     1      32.904   5.830  34.591  0.00  0.00    +0.000 C 
ATOM     15  C   UNL     1      33.218   5.100  36.976  0.00  0.00    +0.000 C 
BRANCH  13  16
ATOM     16  C   UNL     1      34.410   6.943  36.066  0.00  0.00    +0.000 C 
ATOM     17  O   UNL     1      34.014   7.670  37.009  0.00  0.00    +0.000 OA
ATOM     18  O   UNL     1      35.491   7.443  35.340  0.00  0.00    +0.000 OA
ENDBRANCH  13  16
ENDBRANCH  12  13
BRANCH  12  20
ATOM     19  C   UNL     1      36.939   4.598  36.955  0.00  0.00    +0.000 C 
ATOM     20  C   UNL     1      35.468   4.312  36.868  0.00  0.00    +0.000 C 
ENDBRANCH  12  20
ENDBRANCH   1  12
TORSDOF 4
ENDMDL
MODEL 6
REMARK VINA RESULT:      -5.9     17.904     18.804
REMARK  Name = 
REMARK  4 active torsions:
REMARK  status: ('A' for Active; 'I' for Inactive)
REMARK    1  A    between atoms: C_2  and  C_3
REMARK    2  A    between atoms: C_3  and  C_4
REMARK    3  A    between atoms: C_3  and  C_15
REMARK    4  A    between atoms: C_15  and  C_18
REMARK                            x       y       z     vdW  Elec       q    Type
REMARK                         _______ _______ _______ _____ _____    ______ ____
ROOT
ATOM      1  C   UNL     1      28.298  22.729  27.859  0.00  0.00    +0.000 A 
ATOM      2  C   UNL     1      29.385  22.576  27.115  0.00  0.00    +0.000 A 
ATOM      3  C   UNL     1      29.346  22.690  25.753  0.00  0.00    +0.000 A 
ATOM      4  C   UNL     1      28.136  22.971  25.165  0.00  0.00    +0.000 A 
ATOM      5  C   UNL     1      28.047  23.097  23.776  0.00  0.00    +0.000 A 
ATOM      6  C   UNL     1      26.832  23.378  23.194  0.00  0.00    +0.000 A 
ATOM      7  O   UNL     1      26.718  23.508  21.808  0.00  0.00    +0.000 OA
ATOM      8  C   UNL     1      25.720  23.534  23.964  0.00  0.00    +0.000 A 
ATOM      9  C   UNL     1      25.772  23.416  25.337  0.00  0.00    +0.000 A 
ATOM     10  C   UNL     1      26.982  23.137  25.913  0.00  0.00    +0.000 A 
ATOM     11  C   UNL     1      27.078  23.009  27.300  0.00  0.00    +0.000 A 
ENDROOT
BRANCH   1  12
ATOM     12  C   UNL     1      28.316  22.597  29.444  0.00  0.00    +0.000 C 
BRANCH  12  13
ATOM     13  C   UNL     1      28.584  24.157  29.818  0.00  0.00    +0.000 C 
ATOM     14  C   UNL     1      29.772  24.666  29.160  0.00  0.00    +0.000 C 
ATOM     15  C   UNL     1      27.328  24.925  29.689  0.00  0.00    +0.000 C 
BRANCH  13  16
ATOM     16  C   UNL     1      28.865  24.051  31.277  0.00  0.00    +0.000 C 
ATOM     17  O   UNL     1      29.583  23.152  31.780  0.00  0.00    +0.000 OA
ATOM     18  O   UNL     1      28.334  24.968  32.184  0.00  0.00    +0.000 OA
ENDBRANCH  13  16
ENDBRANCH  12  13
BRANCH  12  20
ATOM     19  C   UNL     1      26.329  21.544  30.469  0.00  0.00    +0.000 C 
ATOM     20  C   UNL     1      26.658  22.705  29.577  0.00  0.00    +0.000 C 
ENDBRANCH  12  20
ENDBRANCH   1  12
TORSDOF 4
ENDMDL
MODEL 7
REMARK VINA RESULT:      -5.7     20.402     22.237
REMARK  Name = 
REMARK  4 active torsions:
REMARK  status: ('A' for Active; 'I' for Inactive)
REMARK    1  A    between atoms: C_2  and  C_3
REMARK    2  A    between atoms: C_3  and  C_4
REMARK    3  A    between atoms: C_3  and  C_15
REMARK    4  A    between atoms: C_15  and  C_18
REMARK                            x       y       z     vdW  Elec       q    Type
REMARK                         _______ _______ _______ _____ _____    ______ ____
ROOT
ATOM      1  C   UNL     1      19.628  -7.760  26.641  0.00  0.00    +0.000 A 
ATOM      2  C   UNL     1      19.712  -6.552  26.101  0.00  0.00    +0.000 A 
ATOM      3  C   UNL     1      20.762  -6.195  25.301  0.00  0.00    +0.000 A 
ATOM      4  C   UNL     1      21.741  -7.130  25.067  0.00  0.00    +0.000 A 
ATOM      5  C   UNL     1      22.834  -6.811  24.256  0.00  0.00    +0.000 A 
ATOM      6  C   UNL     1      23.811  -7.753  24.026  0.00  0.00    +0.000 A 
ATOM      7  O   UNL     1      24.911  -7.456  23.220  0.00  0.00    +0.000 OA
ATOM      8  C   UNL     1      23.717  -8.990  24.585  0.00  0.00    +0.000 A 
ATOM      9  C   UNL     1      22.653  -9.340  25.391  0.00  0.00    +0.000 A 
ATOM     10  C   UNL     1      21.683  -8.401  25.616  0.00  0.00    +0.000 A 
ATOM     11  C   UNL     1      20.590  -8.713  26.426  0.00  0.00    +0.000 A 
ENDROOT
BRANCH   1  12
ATOM     12  C   UNL     1      18.419  -8.199  27.578  0.00  0.00    +0.000 C 
BRANCH  12  13
ATOM     13  C   UNL     1      17.457  -8.859  26.446  0.00  0.00    +0.000 C 
ATOM     14  C   UNL     1      18.145  -8.999  25.177  0.00  0.00    +0.000 C 
ATOM     15  C   UNL     1      16.768 -10.042  27.003  0.00  0.00    +0.000 C 
BRANCH  13  16
ATOM     16  C   UNL     1      16.422  -7.797  26.304  0.00  0.00    +0.000 C 
ATOM     17  O   UNL     1      15.519  -7.823  25.433  0.00  0.00    +0.000 OA
ATOM     18  O   UNL     1      16.400  -6.692  27.154  0.00  0.00    +0.000 OA
ENDBRANCH  13  16
ENDBRANCH  12  13
BRANCH  12  20
ATOM     19  C   UNL     1      19.155  -9.560  29.506  0.00  0.00    +0.000 C 
ATOM     20  C   UNL     1      19.138  -9.640  28.007  0.00  0.00    +0.000 C 
ENDBRANCH  12  20
ENDBRANCH   1  12
TORSDOF 4
ENDMDL
MODEL 8
REMARK VINA RESULT:      -5.7      2.695      4.248
REMARK  Name = 
REMARK  4 active torsions:
REMARK  status: ('A' for Active; 'I' for Inactive)
REMARK    1  A    between atoms: C_2  and  C_3
REMARK    2  A    between atoms: C_3  and  C_4
REMARK    3  A    between atoms: C_3  and  C_15
REMARK    4  A    between atoms: C_15  and  C_18
REMARK                            x       y       z     vdW  Elec       q    Type
REMARK                         _______ _______ _______ _____ _____    ______ ____
ROOT
ATOM      1  C   UNL     1      17.402   9.498  40.086  0.00  0.00    +0.000 A 
ATOM      2  C   UNL     1      18.386   8.955  39.383  0.00  0.00    +0.000 A 
ATOM      3  C   UNL     1      18.496   9.146  38.033  0.00  0.00    +0.000 A 
ATOM      4  C   UNL     1      17.549   9.926  37.414  0.00  0.00    +0.000 A 
ATOM      5  C   UNL     1      17.620  10.151  36.036  0.00  0.00    +0.000 A 
ATOM      6  C   UNL     1      16.668  10.932  35.424  0.00  0.00    +0.000 A 
ATOM      7  O   UNL     1      16.718  11.170  34.048  0.00  0.00    +0.000 OA
ATOM      8  C   UNL     1      15.660  11.486  36.152  0.00  0.00    +0.000 A 
ATOM      9  C   UNL     1      15.559  11.285  37.513  0.00  0.00    +0.000 A 
ATOM     10  C   UNL     1      16.508  10.508  38.119  0.00  0.00    +0.000 A 
ATOM     11  C   UNL     1      16.443  10.279  39.495  0.00  0.00    +0.000 A 
ENDROOT
BRANCH   1  12
ATOM     12  C   UNL     1      17.249   9.287  41.655  0.00  0.00    +0.000 C 
BRANCH  12  13
ATOM     13  C   UNL     1      16.439   7.877  41.638  0.00  0.00    +0.000 C 
ATOM     14  C   UNL     1      15.099   8.039  41.108  0.00  0.00    +0.000 C 
ATOM     15  C   UNL     1      17.295   6.816  41.066  0.00  0.00    +0.000 C 
BRANCH  13  16
ATOM     16  C   UNL     1      16.337   7.595  43.096  0.00  0.00    +0.000 C 
ATOM     17  O   UNL     1      16.502   6.455  43.594  0.00  0.00    +0.000 OA
ATOM     18  O   UNL     1      16.045   8.608  44.009  0.00  0.00    +0.000 OA
ENDBRANCH  13  16
ENDBRANCH  12  13
BRANCH  12  20
ATOM     19  C   UNL     1      19.442   9.505  42.775  0.00  0.00    +0.000 C 
ATOM     20  C   UNL     1      18.752   8.582  41.813  0.00  0.00    +0.000 C 
ENDBRANCH  12  20
ENDBRANCH   1  12
TORSDOF 4
ENDMDL
MODEL 9
REMARK VINA RESULT:      -5.6     17.939     19.139
REMARK  Name = 
REMARK  4 active torsions:
REMARK  status: ('A' for Active; 'I' for Inactive)
REMARK    1  A    between atoms: C_2  and  C_3
REMARK    2  A    between atoms: C_3  and  C_4
REMARK    3  A    between atoms: C_3  and  C_15
REMARK    4  A    between atoms: C_15  and  C_18
REMARK                            x       y       z     vdW  Elec       q    Type
REMARK                         _______ _______ _______ _____ _____    ______ ____
ROOT
ATOM      1  C   UNL     1      33.400   1.412  34.975  0.00  0.00    +0.000 A 
ATOM      2  C   UNL     1      33.161   2.045  33.835  0.00  0.00    +0.000 A 
ATOM      3  C   UNL     1      33.534   3.347  33.644  0.00  0.00    +0.000 A 
ATOM      4  C   UNL     1      34.171   3.993  34.677  0.00  0.00    +0.000 A 
ATOM      5  C   UNL     1      34.571   5.324  34.528  0.00  0.00    +0.000 A 
ATOM      6  C   UNL     1      35.207   5.964  35.567  0.00  0.00    +0.000 A 
ATOM      7  O   UNL     1      35.615   7.293  35.442  0.00  0.00    +0.000 OA
ATOM      8  C   UNL     1      35.448   5.307  36.735  0.00  0.00    +0.000 A 
ATOM      9  C   UNL     1      35.067   3.994  36.916  0.00  0.00    +0.000 A 
ATOM     10  C   UNL     1      34.434   3.360  35.881  0.00  0.00    +0.000 A 
ATOM     11  C   UNL     1      34.032   2.031  36.022  0.00  0.00    +0.000 A 
ENDROOT
BRANCH   1  12
ATOM     12  C   UNL     1      32.973  -0.100  35.223  0.00  0.00    +0.000 C 
BRANCH  12  13
ATOM     13  C   UNL     1      34.040  -0.824  34.233  0.00  0.00    +0.000 C 
ATOM     14  C   UNL     1      34.209  -0.082  32.999  0.00  0.00    +0.000 C 
ATOM     15  C   UNL     1      35.249  -1.203  34.993  0.00  0.00    +0.000 C 
BRANCH  13  16
ATOM     16  C   UNL     1      33.322  -2.091  33.925  0.00  0.00    +0.000 C 
ATOM     17  O   UNL     1      33.693  -2.899  33.039  0.00  0.00    +0.000 OA
ATOM     18  O   UNL     1      32.170  -2.457  34.622  0.00  0.00    +0.000 OA
ENDBRANCH  13  16
ENDBRANCH  12  13
BRANCH  12  20
ATOM     19  C   UNL     1      32.945  -0.769  37.603  0.00  0.00    +0.000 C 
ATOM     20  C   UNL     1      33.921  -0.253  36.586  0.00  0.00    +0.000 C 
ENDBRANCH  12  20
ENDBRANCH   1  12
TORSDOF 4
ENDMDL
MODEL 10
REMARK VINA RESULT:      -5.6     17.323     18.841
REMARK  Name = 
REMARK  4 active torsions:
REMARK  status: ('A' for Active; 'I' for Inactive)
REMARK    1  A    between atoms: C_2  and  C_3
REMARK    2  A    between atoms: C_3  and  C_4
REMARK    3  A    between atoms: C_3  and  C_15
REMARK    4  A    between atoms: C_15  and  C_18
REMARK                            x       y       z     vdW  Elec       q    Type
REMARK                         _______ _______ _______ _____ _____    ______ ____
ROOT
ATOM      1  C   UNL     1      34.321   4.059  35.939  0.00  0.00    +0.000 A 
ATOM      2  C   UNL     1      34.102   4.107  34.633  0.00  0.00    +0.000 A 
ATOM      3  C   UNL     1      33.757   2.992  33.921  0.00  0.00    +0.000 A 
ATOM      4  C   UNL     1      33.641   1.804  34.601  0.00  0.00    +0.000 A 
ATOM      5  C   UNL     1      33.290   0.637  33.916  0.00  0.00    +0.000 A 
ATOM      6  C   UNL     1      33.176  -0.549  34.604  0.00  0.00    +0.000 A 
ATOM      7  O   UNL     1      32.827  -1.727  33.941  0.00  0.00    +0.000 OA
ATOM      8  C   UNL     1      33.402  -0.590  35.946  0.00  0.00    +0.000 A 
ATOM      9  C   UNL     1      33.751   0.542  36.653  0.00  0.00    +0.000 A 
ATOM     10  C   UNL     1      33.863   1.719  35.966  0.00  0.00    +0.000 A 
ATOM     11  C   UNL     1      34.213   2.888  36.644  0.00  0.00    +0.000 A 
ENDROOT
BRANCH   1  12
ATOM     12  C   UNL     1      34.728   5.341  36.789  0.00  0.00    +0.000 C 
BRANCH  12  13
ATOM     13  C   UNL     1      36.333   5.091  36.862  0.00  0.00    +0.000 C 
ATOM     14  C   UNL     1      36.648   3.843  37.530  0.00  0.00    +0.000 C 
ATOM     15  C   UNL     1      36.939   5.349  35.539  0.00  0.00    +0.000 C 
BRANCH  13  16
ATOM     16  C   UNL     1      36.753   6.215  37.744  0.00  0.00    +0.000 C 
ATOM     17  O   UNL     1      36.254   6.430  38.875  0.00  0.00    +0.000 OA
ATOM     18  O   UNL     1      37.747   7.110  37.350  0.00  0.00    +0.000 OA
ENDBRANCH  13  16
ENDBRANCH  12  13
BRANCH  12  20
ATOM     19  C   UNL     1      34.174   7.601  35.956  0.00  0.00    +0.000 C 
ATOM     20  C   UNL     1      34.802   6.334  35.453  0.00  0.00    +0.000 C 
ENDBRANCH  12  20
ENDBRANCH   1  12
TORSDOF 4
ENDMDL
