MODEL 1
REMARK VINA RESULT:      -8.1      0.000      0.000
REMARK  Name = 
REMARK  6 active torsions:
REMARK  status: ('A' for Active; 'I' for Inactive)
REMARK    1  A    between atoms: C_2  and  C_3
REMARK    2  A    between atoms: C_6  and  C_7
REMARK    3  A    between atoms: C_17  and  O_18
REMARK    4  A    between atoms: O_18  and  C_19
REMARK    5  A    between atoms: C_19  and  C_20
REMARK    6  A    between atoms: C_28  and  O_29
REMARK                            x       y       z     vdW  Elec       q    Type
REMARK                         _______ _______ _______ _____ _____    ______ ____
ROOT
ATOM      1  C   UNL     1      37.415   4.093  14.728  0.00  0.00    +0.000 C 
ATOM      2  N   UNL     1      36.218   3.835  15.746  0.00  0.00    +0.000 NA
ATOM      3  C   UNL     1      35.243   3.270  14.823  0.00  0.00    +0.000 C 
ATOM      4  C   UNL     1      35.601   1.856  14.445  0.00  0.00    +0.000 C 
ATOM      5  C   UNL     1      37.064   1.609  14.598  0.00  0.00    +0.000 A 
ATOM      6  C   UNL     1      37.968   2.622  14.738  0.00  0.00    +0.000 A 
ATOM      7  N   UNL     1      39.154   2.078  14.852  0.00  0.00    +0.000 NA
ATOM      8  C   UNL     1      39.055   0.722  14.790  0.00  0.00    +0.000 A 
ATOM      9  C   UNL     1      39.971  -0.305  14.855  0.00  0.00    +0.000 A 
ATOM     10  C   UNL     1      39.563  -1.632  14.760  0.00  0.00    +0.000 A 
ATOM     11  C   UNL     1      38.238  -1.977  14.598  0.00  0.00    +0.000 A 
ATOM     12  C   UNL     1      37.335  -0.935  14.535  0.00  0.00    +0.000 A 
ATOM     13  C   UNL     1      37.718   0.392  14.627  0.00  0.00    +0.000 A 
ENDROOT
BRANCH   1  17
ATOM     14  C   UNL     1      40.064   5.737  17.719  0.00  0.00    +0.000 A 
ATOM     15  C   UNL     1      38.935   5.036  18.092  0.00  0.00    +0.000 A 
ATOM     16  C   UNL     1      38.088   4.510  17.115  0.00  0.00    +0.000 A 
ATOM     17  C   UNL     1      38.438   4.727  15.809  0.00  0.00    +0.000 A 
ATOM     18  C   UNL     1      39.516   5.397  15.430  0.00  0.00    +0.000 A 
ATOM     19  C   UNL     1      40.350   5.914  16.389  0.00  0.00    +0.000 A 
BRANCH  14  21
ATOM     20  C   UNL     1      40.103   6.653  19.973  0.00  0.00    +0.000 C 
ATOM     21  C   UNL     1      40.977   6.305  18.786  0.00  0.00    +0.000 C 
ENDBRANCH  14  21
BRANCH  18  22
ATOM     22  O   UNL     1      39.766   5.551  14.064  0.00  0.00    +0.000 OA
ATOM     23  C   UNL     1      39.708   6.853  13.492  0.00  0.00    +0.000 C 
ENDBRANCH  18  22
ENDBRANCH   1  17
BRANCH  11  24
ATOM     24  O   UNL     1      37.848  -3.311  14.504  0.00  0.00    +0.000 OA
BRANCH  24  25
ATOM     25  C   UNL     1      37.243  -4.030  15.522  0.00  0.00    +0.000 C 
BRANCH  25  26
ATOM     26  C   UNL     1      37.414  -3.476  16.868  0.00  0.00    +0.000 A 
ATOM     27  C   UNL     1      36.552  -2.572  17.448  0.00  0.00    +0.000 A 
ATOM     28  C   UNL     1      36.766  -2.087  18.718  0.00  0.00    +0.000 A 
ATOM     29  C   UNL     1      37.886  -2.530  19.429  0.00  0.00    +0.000 A 
ATOM     30  C   UNL     1      38.774  -3.435  18.886  0.00  0.00    +0.000 A 
ATOM     31  C   UNL     1      38.502  -3.880  17.610  0.00  0.00    +0.000 A 
ENDBRANCH  25  26
ENDBRANCH  24  25
ENDBRANCH  11  24
TORSDOF 6
ENDMDL
MODEL 2
REMARK VINA RESULT:      -8.0      1.426      2.268
REMARK  Name = 
REMARK  6 active torsions:
REMARK  status: ('A' for Active; 'I' for Inactive)
REMARK    1  A    between atoms: C_2  and  C_3
REMARK    2  A    between atoms: C_6  and  C_7
REMARK    3  A    between atoms: C_17  and  O_18
REMARK    4  A    between atoms: O_18  and  C_19
REMARK    5  A    between atoms: C_19  and  C_20
REMARK    6  A    between atoms: C_28  and  O_29
REMARK                            x       y       z     vdW  Elec       q    Type
REMARK                         _______ _______ _______ _____ _____    ______ ____
ROOT
ATOM      1  C   UNL     1      37.139   3.871  15.096  0.00  0.00    +0.000 C 
ATOM      2  N   UNL     1      36.142   3.570  16.300  0.00  0.00    +0.000 NA
ATOM      3  C   UNL     1      35.067   2.924  15.559  0.00  0.00    +0.000 C 
ATOM      4  C   UNL     1      35.446   1.524  15.151  0.00  0.00    +0.000 C 
ATOM      5  C   UNL     1      36.928   1.368  15.066  0.00  0.00    +0.000 A 
ATOM      6  C   UNL     1      37.777   2.435  15.039  0.00  0.00    +0.000 A 
ATOM      7  N   UNL     1      38.998   1.965  14.966  0.00  0.00    +0.000 NA
ATOM      8  C   UNL     1      38.975   0.605  14.943  0.00  0.00    +0.000 A 
ATOM      9  C   UNL     1      39.951  -0.364  14.874  0.00  0.00    +0.000 A 
ATOM     10  C   UNL     1      39.617  -1.715  14.868  0.00  0.00    +0.000 A 
ATOM     11  C   UNL     1      38.307  -2.142  14.931  0.00  0.00    +0.000 A 
ATOM     12  C   UNL     1      37.342  -1.157  15.000  0.00  0.00    +0.000 A 
ATOM     13  C   UNL     1      37.652   0.192  15.007  0.00  0.00    +0.000 A 
ENDROOT
BRANCH   1  17
ATOM     14  C   UNL     1      40.126   5.753  17.587  0.00  0.00    +0.000 A 
ATOM     15  C   UNL     1      39.074   5.064  18.155  0.00  0.00    +0.000 A 
ATOM     16  C   UNL     1      38.117   4.460  17.338  0.00  0.00    +0.000 A 
ATOM     17  C   UNL     1      38.283   4.592  15.984  0.00  0.00    +0.000 A 
ATOM     18  C   UNL     1      39.285   5.249  15.420  0.00  0.00    +0.000 A 
ATOM     19  C   UNL     1      40.228   5.842  16.221  0.00  0.00    +0.000 A 
BRANCH  14  21
ATOM     20  C   UNL     1      40.682   6.233  19.906  0.00  0.00    +0.000 C 
ATOM     21  C   UNL     1      41.161   6.406  18.480  0.00  0.00    +0.000 C 
ENDBRANCH  14  21
BRANCH  18  22
ATOM     22  O   UNL     1      39.346   5.312  14.026  0.00  0.00    +0.000 OA
ATOM     23  C   UNL     1      39.767   6.522  13.406  0.00  0.00    +0.000 C 
ENDBRANCH  18  22
ENDBRANCH   1  17
BRANCH  11  24
ATOM     24  O   UNL     1      37.991  -3.499  14.924  0.00  0.00    +0.000 OA
BRANCH  24  25
ATOM     25  C   UNL     1      37.304  -4.154  15.933  0.00  0.00    +0.000 C 
BRANCH  25  26
ATOM     26  C   UNL     1      36.011  -4.723  15.543  0.00  0.00    +0.000 A 
ATOM     27  C   UNL     1      35.114  -4.103  14.702  0.00  0.00    +0.000 A 
ATOM     28  C   UNL     1      33.913  -4.688  14.372  0.00  0.00    +0.000 A 
ATOM     29  C   UNL     1      33.605  -5.942  14.908  0.00  0.00    +0.000 A 
ATOM     30  C   UNL     1      34.474  -6.598  15.754  0.00  0.00    +0.000 A 
ATOM     31  C   UNL     1      35.660  -5.957  16.045  0.00  0.00    +0.000 A 
ENDBRANCH  25  26
ENDBRANCH  24  25
ENDBRANCH  11  24
TORSDOF 6
ENDMDL
MODEL 3
REMARK VINA RESULT:      -7.8      3.387      8.704
REMARK  Name = 
REMARK  6 active torsions:
REMARK  status: ('A' for Active; 'I' for Inactive)
REMARK    1  A    between atoms: C_2  and  C_3
REMARK    2  A    between atoms: C_6  and  C_7
REMARK    3  A    between atoms: C_17  and  O_18
REMARK    4  A    between atoms: O_18  and  C_19
REMARK    5  A    between atoms: C_19  and  C_20
REMARK    6  A    between atoms: C_28  and  O_29
REMARK                            x       y       z     vdW  Elec       q    Type
REMARK                         _______ _______ _______ _____ _____    ______ ____
ROOT
ATOM      1  C   UNL     1      37.429  -2.310  13.783  0.00  0.00    +0.000 C 
ATOM      2  N   UNL     1      38.851  -1.633  13.548  0.00  0.00    +0.000 NA
ATOM      3  C   UNL     1      38.590  -0.974  12.276  0.00  0.00    +0.000 C 
ATOM      4  C   UNL     1      37.724   0.245  12.456  0.00  0.00    +0.000 C 
ATOM      5  C   UNL     1      36.899   0.145  13.695  0.00  0.00    +0.000 A 
ATOM      6  C   UNL     1      36.725  -1.031  14.366  0.00  0.00    +0.000 A 
ATOM      7  N   UNL     1      35.960  -0.784  15.400  0.00  0.00    +0.000 NA
ATOM      8  C   UNL     1      35.622   0.534  15.428  0.00  0.00    +0.000 A 
ATOM      9  C   UNL     1      34.857   1.305  16.276  0.00  0.00    +0.000 A 
ATOM     10  C   UNL     1      34.687   2.666  16.045  0.00  0.00    +0.000 A 
ATOM     11  C   UNL     1      35.269   3.300  14.967  0.00  0.00    +0.000 A 
ATOM     12  C   UNL     1      36.031   2.513  14.129  0.00  0.00    +0.000 A 
ATOM     13  C   UNL     1      36.215   1.157  14.340  0.00  0.00    +0.000 A 
ENDROOT
BRANCH   1  17
ATOM     14  C   UNL     1      38.519  -4.123  17.550  0.00  0.00    +0.000 A 
ATOM     15  C   UNL     1      39.189  -3.008  17.090  0.00  0.00    +0.000 A 
ATOM     16  C   UNL     1      38.825  -2.431  15.872  0.00  0.00    +0.000 A 
ATOM     17  C   UNL     1      37.798  -3.025  15.186  0.00  0.00    +0.000 A 
ATOM     18  C   UNL     1      37.143  -4.095  15.610  0.00  0.00    +0.000 A 
ATOM     19  C   UNL     1      37.498  -4.662  16.808  0.00  0.00    +0.000 A 
BRANCH  14  21
ATOM     20  C   UNL     1      38.708  -3.684  19.936  0.00  0.00    +0.000 C 
ATOM     21  C   UNL     1      38.919  -4.742  18.873  0.00  0.00    +0.000 C 
ENDBRANCH  14  21
BRANCH  18  22
ATOM     22  O   UNL     1      36.112  -4.608  14.821  0.00  0.00    +0.000 OA
ATOM     23  C   UNL     1      34.764  -4.292  15.151  0.00  0.00    +0.000 C 
ENDBRANCH  18  22
ENDBRANCH   1  17
BRANCH  11  24
ATOM     24  O   UNL     1      35.087   4.665  14.751  0.00  0.00    +0.000 OA
BRANCH  24  25
ATOM     25  C   UNL     1      35.921   5.460  13.984  0.00  0.00    +0.000 C 
BRANCH  25  26
ATOM     26  C   UNL     1      35.303   6.054  12.796  0.00  0.00    +0.000 A 
ATOM     27  C   UNL     1      34.136   6.786  12.814  0.00  0.00    +0.000 A 
ATOM     28  C   UNL     1      33.603   7.320  11.664  0.00  0.00    +0.000 A 
ATOM     29  C   UNL     1      34.268   7.110  10.451  0.00  0.00    +0.000 A 
ATOM     30  C   UNL     1      35.439   6.383  10.388  0.00  0.00    +0.000 A 
ATOM     31  C   UNL     1      35.920   5.876  11.577  0.00  0.00    +0.000 A 
ENDBRANCH  25  26
ENDBRANCH  24  25
ENDBRANCH  11  24
TORSDOF 6
ENDMDL
MODEL 4
REMARK VINA RESULT:      -7.8      2.456      8.215
REMARK  Name = 
REMARK  6 active torsions:
REMARK  status: ('A' for Active; 'I' for Inactive)
REMARK    1  A    between atoms: C_2  and  C_3
REMARK    2  A    between atoms: C_6  and  C_7
REMARK    3  A    between atoms: C_17  and  O_18
REMARK    4  A    between atoms: O_18  and  C_19
REMARK    5  A    between atoms: C_19  and  C_20
REMARK    6  A    between atoms: C_28  and  O_29
REMARK                            x       y       z     vdW  Elec       q    Type
REMARK                         _______ _______ _______ _____ _____    ______ ____
ROOT
ATOM      1  C   UNL     1      38.073   3.047  13.927  0.00  0.00    +0.000 C 
ATOM      2  N   UNL     1      39.541   2.929  13.321  0.00  0.00    +0.000 NA
ATOM      3  C   UNL     1      39.660   4.256  12.732  0.00  0.00    +0.000 C 
ATOM      4  C   UNL     1      39.875   5.307  13.789  0.00  0.00    +0.000 C 
ATOM      5  C   UNL     1      39.342   4.865  15.110  0.00  0.00    +0.000 A 
ATOM      6  C   UNL     1      38.491   3.805  15.239  0.00  0.00    +0.000 A 
ATOM      7  N   UNL     1      38.214   3.676  16.513  0.00  0.00    +0.000 NA
ATOM      8  C   UNL     1      38.864   4.631  17.232  0.00  0.00    +0.000 A 
ATOM      9  C   UNL     1      38.923   4.940  18.573  0.00  0.00    +0.000 A 
ATOM     10  C   UNL     1      39.696   6.004  19.028  0.00  0.00    +0.000 A 
ATOM     11  C   UNL     1      40.432   6.790  18.166  0.00  0.00    +0.000 A 
ATOM     12  C   UNL     1      40.362   6.465  16.827  0.00  0.00    +0.000 A 
ATOM     13  C   UNL     1      39.600   5.412  16.352  0.00  0.00    +0.000 A 
ENDROOT
BRANCH   1  17
ATOM     14  C   UNL     1      38.044  -0.961  15.540  0.00  0.00    +0.000 A 
ATOM     15  C   UNL     1      39.216  -0.404  15.070  0.00  0.00    +0.000 A 
ATOM     16  C   UNL     1      39.211   0.893  14.553  0.00  0.00    +0.000 A 
ATOM     17  C   UNL     1      38.010   1.552  14.540  0.00  0.00    +0.000 A 
ATOM     18  C   UNL     1      36.875   1.034  14.985  0.00  0.00    +0.000 A 
ATOM     19  C   UNL     1      36.877  -0.239  15.496  0.00  0.00    +0.000 A 
BRANCH  14  21
ATOM     20  C   UNL     1      39.494  -2.846  16.052  0.00  0.00    +0.000 C 
ATOM     21  C   UNL     1      38.058  -2.369  16.099  0.00  0.00    +0.000 C 
ENDBRANCH  14  21
BRANCH  18  22
ATOM     22  O   UNL     1      35.713   1.807  14.920  0.00  0.00    +0.000 OA
ATOM     23  C   UNL     1      34.993   2.078  16.117  0.00  0.00    +0.000 C 
ENDBRANCH  18  22
ENDBRANCH   1  17
BRANCH  11  24
ATOM     24  O   UNL     1      41.201   7.851  18.639  0.00  0.00    +0.000 OA
BRANCH  24  25
ATOM     25  C   UNL     1      41.652   7.979  19.942  0.00  0.00    +0.000 C 
BRANCH  25  26
ATOM     26  C   UNL     1      42.849   7.201  20.272  0.00  0.00    +0.000 A 
ATOM     27  C   UNL     1      42.945   6.346  21.348  0.00  0.00    +0.000 A 
ATOM     28  C   UNL     1      44.097   5.641  21.606  0.00  0.00    +0.000 A 
ATOM     29  C   UNL     1      45.192   5.800  20.749  0.00  0.00    +0.000 A 
ATOM     30  C   UNL     1      45.138   6.645  19.660  0.00  0.00    +0.000 A 
ATOM     31  C   UNL     1      43.955   7.323  19.459  0.00  0.00    +0.000 A 
ENDBRANCH  25  26
ENDBRANCH  24  25
ENDBRANCH  11  24
TORSDOF 6
ENDMDL
MODEL 5
REMARK VINA RESULT:      -7.5      1.718      8.026
REMARK  Name = 
REMARK  6 active torsions:
REMARK  status: ('A' for Active; 'I' for Inactive)
REMARK    1  A    between atoms: C_2  and  C_3
REMARK    2  A    between atoms: C_6  and  C_7
REMARK    3  A    between atoms: C_17  and  O_18
REMARK    4  A    between atoms: O_18  and  C_19
REMARK    5  A    between atoms: C_19  and  C_20
REMARK    6  A    between atoms: C_28  and  O_29
REMARK                            x       y       z     vdW  Elec       q    Type
REMARK                         _______ _______ _______ _____ _____    ______ ____
ROOT
ATOM      1  C   UNL     1      37.349  -1.205  13.853  0.00  0.00    +0.000 C 
ATOM      2  N   UNL     1      38.855  -1.096  13.346  0.00  0.00    +0.000 NA
ATOM      3  C   UNL     1      38.651  -0.234  12.189  0.00  0.00    +0.000 C 
ATOM      4  C   UNL     1      38.389   1.190  12.605  0.00  0.00    +0.000 C 
ATOM      5  C   UNL     1      37.833   1.257  13.988  0.00  0.00    +0.000 A 
ATOM      6  C   UNL     1      37.331   0.162  14.629  0.00  0.00    +0.000 A 
ATOM      7  N   UNL     1      36.929   0.550  15.814  0.00  0.00    +0.000 NA
ATOM      8  C   UNL     1      37.154   1.883  15.971  0.00  0.00    +0.000 A 
ATOM      9  C   UNL     1      36.927   2.774  16.997  0.00  0.00    +0.000 A 
ATOM     10  C   UNL     1      37.273   4.116  16.866  0.00  0.00    +0.000 A 
ATOM     11  C   UNL     1      37.853   4.610  15.717  0.00  0.00    +0.000 A 
ATOM     12  C   UNL     1      38.073   3.703  14.701  0.00  0.00    +0.000 A 
ATOM     13  C   UNL     1      37.737   2.365  14.808  0.00  0.00    +0.000 A 
ENDROOT
BRANCH   1  17
ATOM     14  C   UNL     1      38.296  -3.758  17.207  0.00  0.00    +0.000 A 
ATOM     15  C   UNL     1      39.278  -2.996  16.608  0.00  0.00    +0.000 A 
ATOM     16  C   UNL     1      38.958  -2.174  15.526  0.00  0.00    +0.000 A 
ATOM     17  C   UNL     1      37.653  -2.176  15.111  0.00  0.00    +0.000 A 
ATOM     18  C   UNL     1      36.696  -2.900  15.671  0.00  0.00    +0.000 A 
ATOM     19  C   UNL     1      37.008  -3.707  16.736  0.00  0.00    +0.000 A 
BRANCH  14  21
ATOM     20  C   UNL     1      38.760  -3.749  19.595  0.00  0.00    +0.000 C 
ATOM     21  C   UNL     1      38.652  -4.647  18.381  0.00  0.00    +0.000 C 
ENDBRANCH  14  21
BRANCH  18  22
ATOM     22  O   UNL     1      35.400  -2.815  15.157  0.00  0.00    +0.000 OA
ATOM     23  C   UNL     1      34.715  -4.011  14.803  0.00  0.00    +0.000 C 
ENDBRANCH  18  22
ENDBRANCH   1  17
BRANCH  11  24
ATOM     24  O   UNL     1      38.192   5.956  15.605  0.00  0.00    +0.000 OA
BRANCH  24  25
ATOM     25  C   UNL     1      38.242   6.849  16.663  0.00  0.00    +0.000 C 
BRANCH  25  26
ATOM     26  C   UNL     1      39.387   6.693  17.562  0.00  0.00    +0.000 A 
ATOM     27  C   UNL     1      40.697   6.621  17.142  0.00  0.00    +0.000 A 
ATOM     28  C   UNL     1      41.733   6.475  18.036  0.00  0.00    +0.000 A 
ATOM     29  C   UNL     1      41.439   6.398  19.401  0.00  0.00    +0.000 A 
ATOM     30  C   UNL     1      40.142   6.466  19.865  0.00  0.00    +0.000 A 
ATOM     31  C   UNL     1      39.151   6.612  18.917  0.00  0.00    +0.000 A 
ENDBRANCH  25  26
ENDBRANCH  24  25
ENDBRANCH  11  24
TORSDOF 6
ENDMDL
MODEL 6
REMARK VINA RESULT:      -7.5      3.460      9.003
REMARK  Name = 
REMARK  6 active torsions:
REMARK  status: ('A' for Active; 'I' for Inactive)
REMARK    1  A    between atoms: C_2  and  C_3
REMARK    2  A    between atoms: C_6  and  C_7
REMARK    3  A    between atoms: C_17  and  O_18
REMARK    4  A    between atoms: O_18  and  C_19
REMARK    5  A    between atoms: C_19  and  C_20
REMARK    6  A    between atoms: C_28  and  O_29
REMARK                            x       y       z     vdW  Elec       q    Type
REMARK                         _______ _______ _______ _____ _____    ______ ____
ROOT
ATOM      1  C   UNL     1      36.372  -1.655  16.994  0.00  0.00    +0.000 C 
ATOM      2  N   UNL     1      34.972  -0.963  17.310  0.00  0.00    +0.000 NA
ATOM      3  C   UNL     1      35.452   0.267  17.925  0.00  0.00    +0.000 C 
ATOM      4  C   UNL     1      36.009   1.215  16.895  0.00  0.00    +0.000 C 
ATOM      5  C   UNL     1      36.467   0.484  15.678  0.00  0.00    +0.000 A 
ATOM      6  C   UNL     1      36.654  -0.868  15.662  0.00  0.00    +0.000 A 
ATOM      7  N   UNL     1      37.052  -1.196  14.458  0.00  0.00    +0.000 NA
ATOM      8  C   UNL     1      37.133  -0.087  13.674  0.00  0.00    +0.000 A 
ATOM      9  C   UNL     1      37.490   0.128  12.361  0.00  0.00    +0.000 A 
ATOM     10  C   UNL     1      37.477   1.410  11.819  0.00  0.00    +0.000 A 
ATOM     11  C   UNL     1      37.110   2.512  12.562  0.00  0.00    +0.000 A 
ATOM     12  C   UNL     1      36.756   2.277  13.875  0.00  0.00    +0.000 A 
ATOM     13  C   UNL     1      36.761   1.011  14.435  0.00  0.00    +0.000 A 
ENDROOT
BRANCH   1  17
ATOM     14  C   UNL     1      34.620  -5.186  15.226  0.00  0.00    +0.000 A 
ATOM     15  C   UNL     1      33.863  -4.047  15.410  0.00  0.00    +0.000 A 
ATOM     16  C   UNL     1      34.443  -2.913  15.982  0.00  0.00    +0.000 A 
ATOM     17  C   UNL     1      35.763  -3.001  16.336  0.00  0.00    +0.000 A 
ATOM     18  C   UNL     1      36.506  -4.085  16.168  0.00  0.00    +0.000 A 
ATOM     19  C   UNL     1      35.939  -5.201  15.606  0.00  0.00    +0.000 A 
BRANCH  14  21
ATOM     20  C   UNL     1      33.871  -7.452  15.701  0.00  0.00    +0.000 C 
ATOM     21  C   UNL     1      33.984  -6.413  14.605  0.00  0.00    +0.000 C 
ENDBRANCH  14  21
BRANCH  18  22
ATOM     22  O   UNL     1      37.843  -4.052  16.570  0.00  0.00    +0.000 OA
ATOM     23  C   UNL     1      38.271  -4.907  17.624  0.00  0.00    +0.000 C 
ENDBRANCH  18  22
ENDBRANCH   1  17
BRANCH  11  24
ATOM     24  O   UNL     1      37.103   3.787  12.002  0.00  0.00    +0.000 OA
BRANCH  24  25
ATOM     25  C   UNL     1      37.131   4.968  12.727  0.00  0.00    +0.000 C 
BRANCH  25  26
ATOM     26  C   UNL     1      35.868   5.708  12.769  0.00  0.00    +0.000 A 
ATOM     27  C   UNL     1      35.274   6.290  11.672  0.00  0.00    +0.000 A 
ATOM     28  C   UNL     1      34.084   6.973  11.774  0.00  0.00    +0.000 A 
ATOM     29  C   UNL     1      33.471   7.074  13.027  0.00  0.00    +0.000 A 
ATOM     30  C   UNL     1      34.031   6.506  14.152  0.00  0.00    +0.000 A 
ATOM     31  C   UNL     1      35.224   5.836  13.981  0.00  0.00    +0.000 A 
ENDBRANCH  25  26
ENDBRANCH  24  25
ENDBRANCH  11  24
TORSDOF 6
ENDMDL
MODEL 7
REMARK VINA RESULT:      -7.4      3.522      8.324
REMARK  Name = 
REMARK  6 active torsions:
REMARK  status: ('A' for Active; 'I' for Inactive)
REMARK    1  A    between atoms: C_2  and  C_3
REMARK    2  A    between atoms: C_6  and  C_7
REMARK    3  A    between atoms: C_17  and  O_18
REMARK    4  A    between atoms: O_18  and  C_19
REMARK    5  A    between atoms: C_19  and  C_20
REMARK    6  A    between atoms: C_28  and  O_29
REMARK                            x       y       z     vdW  Elec       q    Type
REMARK                         _______ _______ _______ _____ _____    ______ ____
ROOT
ATOM      1  C   UNL     1      39.201   5.450  14.399  0.00  0.00    +0.000 C 
ATOM      2  N   UNL     1      40.460   4.526  14.083  0.00  0.00    +0.000 NA
ATOM      3  C   UNL     1      41.453   5.561  13.829  0.00  0.00    +0.000 C 
ATOM      4  C   UNL     1      41.900   6.219  15.108  0.00  0.00    +0.000 C 
ATOM      5  C   UNL     1      40.860   6.098  16.171  0.00  0.00    +0.000 A 
ATOM      6  C   UNL     1      39.572   5.737  15.899  0.00  0.00    +0.000 A 
ATOM      7  N   UNL     1      38.920   5.721  17.035  0.00  0.00    +0.000 NA
ATOM      8  C   UNL     1      39.751   6.065  18.056  0.00  0.00    +0.000 A 
ATOM      9  C   UNL     1      39.584   6.200  19.417  0.00  0.00    +0.000 A 
ATOM     10  C   UNL     1      40.647   6.576  20.233  0.00  0.00    +0.000 A 
ATOM     11  C   UNL     1      41.903   6.827  19.723  0.00  0.00    +0.000 A 
ATOM     12  C   UNL     1      42.052   6.686  18.358  0.00  0.00    +0.000 A 
ATOM     13  C   UNL     1      41.009   6.313  17.528  0.00  0.00    +0.000 A 
ENDROOT
BRANCH   1  17
ATOM     14  C   UNL     1      36.509   2.142  15.090  0.00  0.00    +0.000 A 
ATOM     15  C   UNL     1      37.875   1.950  15.118  0.00  0.00    +0.000 A 
ATOM     16  C   UNL     1      38.733   3.028  14.894  0.00  0.00    +0.000 A 
ATOM     17  C   UNL     1      38.152   4.245  14.652  0.00  0.00    +0.000 A 
ATOM     18  C   UNL     1      36.844   4.450  14.620  0.00  0.00    +0.000 A 
ATOM     19  C   UNL     1      35.998   3.392  14.842  0.00  0.00    +0.000 A 
BRANCH  14  21
ATOM     20  C   UNL     1      34.966   1.172  16.702  0.00  0.00    +0.000 C 
ATOM     21  C   UNL     1      35.584   0.968  15.335  0.00  0.00    +0.000 C 
ENDBRANCH  14  21
BRANCH  18  22
ATOM     22  O   UNL     1      36.372   5.739  14.364  0.00  0.00    +0.000 OA
ATOM     23  C   UNL     1      35.604   5.974  13.189  0.00  0.00    +0.000 C 
ENDBRANCH  18  22
ENDBRANCH   1  17
BRANCH  11  24
ATOM     24  O   UNL     1      42.956   7.202  20.555  0.00  0.00    +0.000 OA
BRANCH  24  25
ATOM     25  C   UNL     1      43.416   6.458  21.629  0.00  0.00    +0.000 C 
BRANCH  25  26
ATOM     26  C   UNL     1      44.625   5.671  21.374  0.00  0.00    +0.000 A 
ATOM     27  C   UNL     1      44.948   4.509  22.040  0.00  0.00    +0.000 A 
ATOM     28  C   UNL     1      46.099   3.812  21.756  0.00  0.00    +0.000 A 
ATOM     29  C   UNL     1      46.956   4.301  20.764  0.00  0.00    +0.000 A 
ATOM     30  C   UNL     1      46.671   5.460  20.072  0.00  0.00    +0.000 A 
ATOM     31  C   UNL     1      45.502   6.111  20.406  0.00  0.00    +0.000 A 
ENDBRANCH  25  26
ENDBRANCH  24  25
ENDBRANCH  11  24
TORSDOF 6
ENDMDL
MODEL 8
REMARK VINA RESULT:      -7.3      4.150      7.937
REMARK  Name = 
REMARK  6 active torsions:
REMARK  status: ('A' for Active; 'I' for Inactive)
REMARK    1  A    between atoms: C_2  and  C_3
REMARK    2  A    between atoms: C_6  and  C_7
REMARK    3  A    between atoms: C_17  and  O_18
REMARK    4  A    between atoms: O_18  and  C_19
REMARK    5  A    between atoms: C_19  and  C_20
REMARK    6  A    between atoms: C_28  and  O_29
REMARK                            x       y       z     vdW  Elec       q    Type
REMARK                         _______ _______ _______ _____ _____    ______ ____
ROOT
ATOM      1  C   UNL     1      36.509   3.463  14.105  0.00  0.00    +0.000 C 
ATOM      2  N   UNL     1      35.256   3.680  15.063  0.00  0.00    +0.000 NA
ATOM      3  C   UNL     1      35.521   2.631  16.038  0.00  0.00    +0.000 C 
ATOM      4  C   UNL     1      36.650   3.011  16.960  0.00  0.00    +0.000 C 
ATOM      5  C   UNL     1      37.557   4.008  16.322  0.00  0.00    +0.000 A 
ATOM      6  C   UNL     1      37.536   4.267  14.982  0.00  0.00    +0.000 A 
ATOM      7  N   UNL     1      38.441   5.183  14.744  0.00  0.00    +0.000 NA
ATOM      8  C   UNL     1      39.064   5.538  15.900  0.00  0.00    +0.000 A 
ATOM      9  C   UNL     1      40.065   6.432  16.209  0.00  0.00    +0.000 A 
ATOM     10  C   UNL     1      40.508   6.584  17.520  0.00  0.00    +0.000 A 
ATOM     11  C   UNL     1      39.970   5.854  18.559  0.00  0.00    +0.000 A 
ATOM     12  C   UNL     1      38.969   4.963  18.231  0.00  0.00    +0.000 A 
ATOM     13  C   UNL     1      38.513   4.796  16.935  0.00  0.00    +0.000 A 
ENDROOT
BRANCH   1  17
ATOM     14  C   UNL     1      35.430   6.651  11.396  0.00  0.00    +0.000 A 
ATOM     15  C   UNL     1      34.847   6.565  12.644  0.00  0.00    +0.000 A 
ATOM     16  C   UNL     1      35.206   5.530  13.509  0.00  0.00    +0.000 A 
ATOM     17  C   UNL     1      36.140   4.637  13.055  0.00  0.00    +0.000 A 
ATOM     18  C   UNL     1      36.711   4.701  11.861  0.00  0.00    +0.000 A 
ATOM     19  C   UNL     1      36.361   5.718  11.010  0.00  0.00    +0.000 A 
BRANCH  14  21
ATOM     20  C   UNL     1      34.201   7.161   9.359  0.00  0.00    +0.000 C 
ATOM     21  C   UNL     1      35.035   7.777  10.463  0.00  0.00    +0.000 C 
ENDBRANCH  14  21
BRANCH  18  22
ATOM     22  O   UNL     1      37.652   3.730  11.513  0.00  0.00    +0.000 OA
ATOM     23  C   UNL     1      37.346   2.812  10.470  0.00  0.00    +0.000 C 
ENDBRANCH  18  22
ENDBRANCH   1  17
BRANCH  11  24
ATOM     24  O   UNL     1      40.426   6.019  19.865  0.00  0.00    +0.000 OA
BRANCH  24  25
ATOM     25  C   UNL     1      41.266   7.037  20.286  0.00  0.00    +0.000 C 
BRANCH  25  26
ATOM     26  C   UNL     1      42.688   6.689  20.353  0.00  0.00    +0.000 A 
ATOM     27  C   UNL     1      43.614   7.026  19.390  0.00  0.00    +0.000 A 
ATOM     28  C   UNL     1      44.937   6.671  19.510  0.00  0.00    +0.000 A 
ATOM     29  C   UNL     1      45.344   5.952  20.639  0.00  0.00    +0.000 A 
ATOM     30  C   UNL     1      44.450   5.595  21.627  0.00  0.00    +0.000 A 
ATOM     31  C   UNL     1      43.138   5.981  21.446  0.00  0.00    +0.000 A 
ENDBRANCH  25  26
ENDBRANCH  24  25
ENDBRANCH  11  24
TORSDOF 6
ENDMDL
MODEL 9
REMARK VINA RESULT:      -7.3      4.557      6.779
REMARK  Name = 
REMARK  6 active torsions:
REMARK  status: ('A' for Active; 'I' for Inactive)
REMARK    1  A    between atoms: C_2  and  C_3
REMARK    2  A    between atoms: C_6  and  C_7
REMARK    3  A    between atoms: C_17  and  O_18
REMARK    4  A    between atoms: O_18  and  C_19
REMARK    5  A    between atoms: C_19  and  C_20
REMARK    6  A    between atoms: C_28  and  O_29
REMARK                            x       y       z     vdW  Elec       q    Type
REMARK                         _______ _______ _______ _____ _____    ______ ____
ROOT
ATOM      1  C   UNL     1      42.461  -2.550  12.429  0.00  0.00    +0.000 C 
ATOM      2  N   UNL     1      41.927  -1.194  11.788  0.00  0.00    +0.000 NA
ATOM      3  C   UNL     1      40.955  -1.744  10.853  0.00  0.00    +0.000 C 
ATOM      4  C   UNL     1      39.718  -2.225  11.566  0.00  0.00    +0.000 C 
ATOM      5  C   UNL     1      40.012  -2.566  12.989  0.00  0.00    +0.000 A 
ATOM      6  C   UNL     1      41.284  -2.729  13.455  0.00  0.00    +0.000 A 
ATOM      7  N   UNL     1      41.202  -3.017  14.731  0.00  0.00    +0.000 NA
ATOM      8  C   UNL     1      39.898  -3.048  15.120  0.00  0.00    +0.000 A 
ATOM      9  C   UNL     1      39.266  -3.293  16.319  0.00  0.00    +0.000 A 
ATOM     10  C   UNL     1      37.879  -3.253  16.416  0.00  0.00    +0.000 A 
ATOM     11  C   UNL     1      37.080  -2.969  15.328  0.00  0.00    +0.000 A 
ATOM     12  C   UNL     1      37.730  -2.726  14.136  0.00  0.00    +0.000 A 
ATOM     13  C   UNL     1      39.108  -2.760  14.016  0.00  0.00    +0.000 A 
ENDROOT
BRANCH   1  17
ATOM     14  C   UNL     1      45.232  -0.615  15.121  0.00  0.00    +0.000 A 
ATOM     15  C   UNL     1      44.012  -0.036  14.837  0.00  0.00    +0.000 A 
ATOM     16  C   UNL     1      43.126  -0.673  13.966  0.00  0.00    +0.000 A 
ATOM     17  C   UNL     1      43.532  -1.866  13.430  0.00  0.00    +0.000 A 
ATOM     18  C   UNL     1      44.699  -2.438  13.690  0.00  0.00    +0.000 A 
ATOM     19  C   UNL     1      45.570  -1.815  14.547  0.00  0.00    +0.000 A 
BRANCH  14  21
ATOM     20  C   UNL     1      45.623  -0.082  17.463  0.00  0.00    +0.000 C 
ATOM     21  C   UNL     1      46.187   0.083  16.067  0.00  0.00    +0.000 C 
ENDBRANCH  14  21
BRANCH  18  22
ATOM     22  O   UNL     1      44.998  -3.659  13.082  0.00  0.00    +0.000 OA
ATOM     23  C   UNL     1      46.260  -4.268  13.335  0.00  0.00    +0.000 C 
ENDBRANCH  18  22
ENDBRANCH   1  17
BRANCH  11  24
ATOM     24  O   UNL     1      35.692  -2.933  15.445  0.00  0.00    +0.000 OA
BRANCH  24  25
ATOM     25  C   UNL     1      35.005  -2.569  16.591  0.00  0.00    +0.000 C 
BRANCH  25  26
ATOM     26  C   UNL     1      35.337  -1.246  17.126  0.00  0.00    +0.000 A 
ATOM     27  C   UNL     1      35.775  -1.018  18.412  0.00  0.00    +0.000 A 
ATOM     28  C   UNL     1      36.072   0.248  18.858  0.00  0.00    +0.000 A 
ATOM     29  C   UNL     1      35.922   1.325  17.978  0.00  0.00    +0.000 A 
ATOM     30  C   UNL     1      35.487   1.142  16.682  0.00  0.00    +0.000 A 
ATOM     31  C   UNL     1      35.206  -0.152  16.299  0.00  0.00    +0.000 A 
ENDBRANCH  25  26
ENDBRANCH  24  25
ENDBRANCH  11  24
TORSDOF 6
ENDMDL
MODEL 10
REMARK VINA RESULT:      -7.1      2.677      8.944
REMARK  Name = 
REMARK  6 active torsions:
REMARK  status: ('A' for Active; 'I' for Inactive)
REMARK    1  A    between atoms: C_2  and  C_3
REMARK    2  A    between atoms: C_6  and  C_7
REMARK    3  A    between atoms: C_17  and  O_18
REMARK    4  A    between atoms: O_18  and  C_19
REMARK    5  A    between atoms: C_19  and  C_20
REMARK    6  A    between atoms: C_28  and  O_29
REMARK                            x       y       z     vdW  Elec       q    Type
REMARK                         _______ _______ _______ _____ _____    ______ ____
ROOT
ATOM      1  C   UNL     1      36.782   2.756  14.431  0.00  0.00    +0.000 C 
ATOM      2  N   UNL     1      37.830   3.062  13.272  0.00  0.00    +0.000 NA
ATOM      3  C   UNL     1      37.311   4.344  12.818  0.00  0.00    +0.000 C 
ATOM      4  C   UNL     1      37.638   5.446  13.792  0.00  0.00    +0.000 C 
ATOM      5  C   UNL     1      37.854   4.906  15.166  0.00  0.00    +0.000 A 
ATOM      6  C   UNL     1      37.474   3.646  15.527  0.00  0.00    +0.000 A 
ATOM      7  N   UNL     1      37.803   3.480  16.784  0.00  0.00    +0.000 NA
ATOM      8  C   UNL     1      38.393   4.608  17.266  0.00  0.00    +0.000 A 
ATOM      9  C   UNL     1      38.914   4.963  18.490  0.00  0.00    +0.000 A 
ATOM     10  C   UNL     1      39.469   6.223  18.692  0.00  0.00    +0.000 A 
ATOM     11  C   UNL     1      39.523   7.164  17.686  0.00  0.00    +0.000 A 
ATOM     12  C   UNL     1      38.996   6.791  16.466  0.00  0.00    +0.000 A 
ATOM     13  C   UNL     1      38.440   5.544  16.243  0.00  0.00    +0.000 A 
ENDROOT
BRANCH   1  17
ATOM     14  C   UNL     1      38.575  -1.016  15.537  0.00  0.00    +0.000 A 
ATOM     15  C   UNL     1      39.302  -0.073  14.839  0.00  0.00    +0.000 A 
ATOM     16  C   UNL     1      38.710   1.142  14.489  0.00  0.00    +0.000 A 
ATOM     17  C   UNL     1      37.408   1.330  14.869  0.00  0.00    +0.000 A 
ATOM     18  C   UNL     1      36.693   0.438  15.539  0.00  0.00    +0.000 A 
ATOM     19  C   UNL     1      37.273  -0.756  15.885  0.00  0.00    +0.000 A 
BRANCH  14  21
ATOM     20  C   UNL     1      40.446  -2.487  15.031  0.00  0.00    +0.000 C 
ATOM     21  C   UNL     1      39.225  -2.332  15.913  0.00  0.00    +0.000 C 
ENDBRANCH  14  21
BRANCH  18  22
ATOM     22  O   UNL     1      35.372   0.748  15.871  0.00  0.00    +0.000 OA
ATOM     23  C   UNL     1      35.004   0.830  17.243  0.00  0.00    +0.000 C 
ENDBRANCH  18  22
ENDBRANCH   1  17
BRANCH  11  24
ATOM     24  O   UNL     1      40.083   8.421  17.906  0.00  0.00    +0.000 OA
BRANCH  24  25
ATOM     25  C   UNL     1      40.773   8.789  19.049  0.00  0.00    +0.000 C 
BRANCH  25  26
ATOM     26  C   UNL     1      40.153   9.854  19.841  0.00  0.00    +0.000 A 
ATOM     27  C   UNL     1      38.803  10.129  19.847  0.00  0.00    +0.000 A 
ATOM     28  C   UNL     1      38.278  11.143  20.613  0.00  0.00    +0.000 A 
ATOM     29  C   UNL     1      39.143  11.910  21.402  0.00  0.00    +0.000 A 
ATOM     30  C   UNL     1      40.501  11.669  21.425  0.00  0.00    +0.000 A 
ATOM     31  C   UNL     1      40.962  10.638  20.634  0.00  0.00    +0.000 A 
ENDBRANCH  25  26
ENDBRANCH  24  25
ENDBRANCH  11  24
TORSDOF 6
ENDMDL
