MODEL 1
REMARK VINA RESULT:      -7.6      0.000      0.000
REMARK  Name = 
REMARK  7 active torsions:
REMARK  status: ('A' for Active; 'I' for Inactive)
REMARK    1  A    between atoms: C_2  and  O_3
REMARK    2  A    between atoms: O_3  and  C_4
REMARK    3  A    between atoms: C_9  and  N_10
REMARK    4  A    between atoms: C_11  and  C_13
REMARK    5  A    between atoms: C_14  and  N_15
REMARK    6  A    between atoms: C_16  and  C_18
REMARK    7  A    between atoms: C_18  and  C_19
REMARK                            x       y       z     vdW  Elec       q    Type
REMARK                         _______ _______ _______ _____ _____    ______ ____
ROOT
ATOM      1  C   UNL     1      39.890  -0.305  14.557  0.00  0.00    +0.000 A 
ATOM      2  C   UNL     1      40.202   0.999  14.339  0.00  0.00    +0.000 A 
ATOM      3  S   UNL     1      41.788   0.843  13.564  0.00  0.00    +0.000 S 
ATOM      4  C   UNL     1      41.930  -0.836  13.566  0.00  0.00    +0.000 A 
ATOM      5  C   UNL     1      40.782  -1.257  14.152  0.00  0.00    +0.000 A 
ATOM      6  C   UNL     1      40.864  -2.787  14.159  0.00  0.00    +0.000 C 
ATOM      7  C   UNL     1      41.791  -3.094  13.013  0.00  0.00    +0.000 C 
ATOM      8  C   UNL     1      42.816  -1.999  13.174  0.00  0.00    +0.000 C 
ENDROOT
BRANCH   1  10
ATOM      9  N   UNL     1      37.379  -0.727  14.841  0.00  0.00    +0.000 NA
ATOM     10  C   UNL     1      38.703  -0.670  15.416  0.00  0.00    +0.000 C 
ATOM     11  O   UNL     1      38.776  -0.937  16.597  0.00  0.00    +0.000 OA
BRANCH   9  17
ATOM     12  C   UNL     1      35.554  -0.053  16.242  0.00  0.00    +0.000 A 
ATOM     13  C   UNL     1      34.466  -0.378  17.039  0.00  0.00    +0.000 A 
ATOM     14  C   UNL     1      34.090  -1.682  17.269  0.00  0.00    +0.000 A 
ATOM     15  C   UNL     1      34.819  -2.708  16.687  0.00  0.00    +0.000 A 
ATOM     16  C   UNL     1      35.908  -2.425  15.887  0.00  0.00    +0.000 A 
ATOM     17  C   UNL     1      36.257  -1.092  15.679  0.00  0.00    +0.000 A 
BRANCH  12  18
ATOM     18  O   UNL     1      35.872   1.273  16.057  0.00  0.00    +0.000 OA
BRANCH  18  20
ATOM     19  C   UNL     1      34.597   3.082  15.207  0.00  0.00    +0.000 C 
ATOM     20  C   UNL     1      35.062   2.340  16.449  0.00  0.00    +0.000 C 
ENDBRANCH  18  20
ENDBRANCH  12  18
ENDBRANCH   9  17
ENDBRANCH   1  10
BRANCH   2  21
ATOM     21  N   UNL     1      39.557   2.247  14.407  0.00  0.00    +0.000 NA
ATOM     22  C   UNL     1      38.396   2.810  14.021  0.00  0.00    +0.000 C 
ATOM     23  O   UNL     1      37.557   2.162  13.361  0.00  0.00    +0.000 OA
BRANCH  22  24
ATOM     24  C   UNL     1      37.986   4.238  14.328  0.00  0.00    +0.000 C 
BRANCH  24  25
ATOM     25  C   UNL     1      38.652   4.687  15.600  0.00  0.00    +0.000 A 
ATOM     26  C   UNL     1      39.769   5.471  15.634  0.00  0.00    +0.000 A 
ATOM     27  C   UNL     1      40.344   5.904  16.836  0.00  0.00    +0.000 A 
ATOM     28  C   UNL     1      39.753   5.522  18.029  0.00  0.00    +0.000 A 
ATOM     29  C   UNL     1      38.616   4.723  18.021  0.00  0.00    +0.000 A 
ATOM     30  C   UNL     1      38.087   4.322  16.832  0.00  0.00    +0.000 A 
ENDBRANCH  24  25
ENDBRANCH  22  24
ENDBRANCH   2  21
TORSDOF 7
ENDMDL
MODEL 2
REMARK VINA RESULT:      -7.4      2.522      5.561
REMARK  Name = 
REMARK  7 active torsions:
REMARK  status: ('A' for Active; 'I' for Inactive)
REMARK    1  A    between atoms: C_2  and  O_3
REMARK    2  A    between atoms: O_3  and  C_4
REMARK    3  A    between atoms: C_9  and  N_10
REMARK    4  A    between atoms: C_11  and  C_13
REMARK    5  A    between atoms: C_14  and  N_15
REMARK    6  A    between atoms: C_16  and  C_18
REMARK    7  A    between atoms: C_18  and  C_19
REMARK                            x       y       z     vdW  Elec       q    Type
REMARK                         _______ _______ _______ _____ _____    ______ ____
ROOT
ATOM      1  C   UNL     1      36.948   0.596  15.721  0.00  0.00    +0.000 A 
ATOM      2  C   UNL     1      36.714   1.875  16.114  0.00  0.00    +0.000 A 
ATOM      3  S   UNL     1      35.210   1.679  17.028  0.00  0.00    +0.000 S 
ATOM      4  C   UNL     1      34.998   0.018  16.855  0.00  0.00    +0.000 A 
ATOM      5  C   UNL     1      36.062  -0.368  16.109  0.00  0.00    +0.000 A 
ATOM      6  C   UNL     1      35.915  -1.884  15.940  0.00  0.00    +0.000 C 
ATOM      7  C   UNL     1      35.096  -2.293  17.136  0.00  0.00    +0.000 C 
ATOM      8  C   UNL     1      34.108  -1.156  17.206  0.00  0.00    +0.000 C 
ENDROOT
BRANCH   1  10
ATOM      9  N   UNL     1      37.722  -0.490  13.534  0.00  0.00    +0.000 NA
ATOM     10  C   UNL     1      38.026   0.296  14.707  0.00  0.00    +0.000 C 
ATOM     11  O   UNL     1      39.172   0.684  14.797  0.00  0.00    +0.000 OA
BRANCH   9  17
ATOM     12  C   UNL     1      39.548  -1.862  12.802  0.00  0.00    +0.000 A 
ATOM     13  C   UNL     1      40.548  -2.142  11.882  0.00  0.00    +0.000 A 
ATOM     14  C   UNL     1      40.763  -1.357  10.772  0.00  0.00    +0.000 A 
ATOM     15  C   UNL     1      39.958  -0.248  10.562  0.00  0.00    +0.000 A 
ATOM     16  C   UNL     1      38.952   0.064  11.456  0.00  0.00    +0.000 A 
ATOM     17  C   UNL     1      38.766  -0.755  12.567  0.00  0.00    +0.000 A 
BRANCH  12  18
ATOM     18  O   UNL     1      39.391  -2.691  13.890  0.00  0.00    +0.000 OA
BRANCH  18  20
ATOM     19  C   UNL     1      39.433  -2.847  16.255  0.00  0.00    +0.000 C 
ATOM     20  C   UNL     1      40.257  -2.728  14.984  0.00  0.00    +0.000 C 
ENDBRANCH  18  20
ENDBRANCH  12  18
ENDBRANCH   9  17
ENDBRANCH   1  10
BRANCH   2  21
ATOM     21  N   UNL     1      37.402   3.102  16.117  0.00  0.00    +0.000 NA
ATOM     22  C   UNL     1      37.990   3.932  16.999  0.00  0.00    +0.000 C 
ATOM     23  O   UNL     1      37.964   3.689  18.224  0.00  0.00    +0.000 OA
BRANCH  22  24
ATOM     24  C   UNL     1      38.724   5.207  16.627  0.00  0.00    +0.000 C 
BRANCH  24  25
ATOM     25  C   UNL     1      38.928   6.044  17.860  0.00  0.00    +0.000 A 
ATOM     26  C   UNL     1      38.102   7.067  18.227  0.00  0.00    +0.000 A 
ATOM     27  C   UNL     1      38.298   7.804  19.402  0.00  0.00    +0.000 A 
ATOM     28  C   UNL     1      39.370   7.479  20.218  0.00  0.00    +0.000 A 
ATOM     29  C   UNL     1      40.225   6.443  19.866  0.00  0.00    +0.000 A 
ATOM     30  C   UNL     1      40.002   5.749  18.715  0.00  0.00    +0.000 A 
ENDBRANCH  24  25
ENDBRANCH  22  24
ENDBRANCH   2  21
TORSDOF 7
ENDMDL
MODEL 3
REMARK VINA RESULT:      -7.3      1.941      5.378
REMARK  Name = 
REMARK  7 active torsions:
REMARK  status: ('A' for Active; 'I' for Inactive)
REMARK    1  A    between atoms: C_2  and  O_3
REMARK    2  A    between atoms: O_3  and  C_4
REMARK    3  A    between atoms: C_9  and  N_10
REMARK    4  A    between atoms: C_11  and  C_13
REMARK    5  A    between atoms: C_14  and  N_15
REMARK    6  A    between atoms: C_16  and  C_18
REMARK    7  A    between atoms: C_18  and  C_19
REMARK                            x       y       z     vdW  Elec       q    Type
REMARK                         _______ _______ _______ _____ _____    ______ ____
ROOT
ATOM      1  C   UNL     1      40.062  -0.681  14.352  0.00  0.00    +0.000 A 
ATOM      2  C   UNL     1      39.765  -1.949  14.738  0.00  0.00    +0.000 A 
ATOM      3  S   UNL     1      41.312  -2.763  14.443  0.00  0.00    +0.000 S 
ATOM      4  C   UNL     1      42.205  -1.455  13.871  0.00  0.00    +0.000 A 
ATOM      5  C   UNL     1      41.328  -0.422  13.908  0.00  0.00    +0.000 A 
ATOM      6  C   UNL     1      42.110   0.797  13.408  0.00  0.00    +0.000 C 
ATOM      7  C   UNL     1      43.541   0.447  13.718  0.00  0.00    +0.000 C 
ATOM      8  C   UNL     1      43.560  -1.017  13.358  0.00  0.00    +0.000 C 
ENDROOT
BRANCH   1  10
ATOM      9  N   UNL     1      38.214   0.773  15.370  0.00  0.00    +0.000 NA
ATOM     10  C   UNL     1      38.966   0.348  14.211  0.00  0.00    +0.000 C 
ATOM     11  O   UNL     1      38.658   0.874  13.162  0.00  0.00    +0.000 OA
BRANCH   9  17
ATOM     12  C   UNL     1      37.559   3.080  15.390  0.00  0.00    +0.000 A 
ATOM     13  C   UNL     1      36.583   4.053  15.235  0.00  0.00    +0.000 A 
ATOM     14  C   UNL     1      35.281   3.742  14.917  0.00  0.00    +0.000 A 
ATOM     15  C   UNL     1      34.926   2.413  14.747  0.00  0.00    +0.000 A 
ATOM     16  C   UNL     1      35.869   1.414  14.893  0.00  0.00    +0.000 A 
ATOM     17  C   UNL     1      37.177   1.770  15.215  0.00  0.00    +0.000 A 
BRANCH  12  18
ATOM     18  O   UNL     1      38.841   3.464  15.709  0.00  0.00    +0.000 OA
BRANCH  18  20
ATOM     19  C   UNL     1      40.137   4.011  13.801  0.00  0.00    +0.000 C 
ATOM     20  C   UNL     1      39.524   4.516  15.095  0.00  0.00    +0.000 C 
ENDBRANCH  18  20
ENDBRANCH  12  18
ENDBRANCH   9  17
ENDBRANCH   1  10
BRANCH   2  21
ATOM     21  N   UNL     1      38.719  -2.615  15.401  0.00  0.00    +0.000 NA
ATOM     22  C   UNL     1      38.552  -3.477  16.422  0.00  0.00    +0.000 C 
ATOM     23  O   UNL     1      39.535  -3.942  17.035  0.00  0.00    +0.000 OA
BRANCH  22  24
ATOM     24  C   UNL     1      37.207  -3.965  16.927  0.00  0.00    +0.000 C 
BRANCH  24  25
ATOM     25  C   UNL     1      36.372  -2.786  17.347  0.00  0.00    +0.000 A 
ATOM     26  C   UNL     1      35.154  -2.488  16.806  0.00  0.00    +0.000 A 
ATOM     27  C   UNL     1      34.384  -1.404  17.246  0.00  0.00    +0.000 A 
ATOM     28  C   UNL     1      34.880  -0.609  18.267  0.00  0.00    +0.000 A 
ATOM     29  C   UNL     1      36.117  -0.891  18.833  0.00  0.00    +0.000 A 
ATOM     30  C   UNL     1      36.837  -1.954  18.378  0.00  0.00    +0.000 A 
ENDBRANCH  24  25
ENDBRANCH  22  24
ENDBRANCH   2  21
TORSDOF 7
ENDMDL
MODEL 4
REMARK VINA RESULT:      -7.3      2.716      7.352
REMARK  Name = 
REMARK  7 active torsions:
REMARK  status: ('A' for Active; 'I' for Inactive)
REMARK    1  A    between atoms: C_2  and  O_3
REMARK    2  A    between atoms: O_3  and  C_4
REMARK    3  A    between atoms: C_9  and  N_10
REMARK    4  A    between atoms: C_11  and  C_13
REMARK    5  A    between atoms: C_14  and  N_15
REMARK    6  A    between atoms: C_16  and  C_18
REMARK    7  A    between atoms: C_18  and  C_19
REMARK                            x       y       z     vdW  Elec       q    Type
REMARK                         _______ _______ _______ _____ _____    ______ ____
ROOT
ATOM      1  C   UNL     1      36.563   1.712  14.523  0.00  0.00    +0.000 A 
ATOM      2  C   UNL     1      35.676   1.392  15.501  0.00  0.00    +0.000 A 
ATOM      3  S   UNL     1      34.843   2.940  15.722  0.00  0.00    +0.000 S 
ATOM      4  C   UNL     1      35.661   3.858  14.572  0.00  0.00    +0.000 A 
ATOM      5  C   UNL     1      36.552   2.988  14.037  0.00  0.00    +0.000 A 
ATOM      6  C   UNL     1      37.310   3.784  12.969  0.00  0.00    +0.000 C 
ATOM      7  C   UNL     1      36.341   4.871  12.588  0.00  0.00    +0.000 C 
ATOM      8  C   UNL     1      35.768   5.228  13.936  0.00  0.00    +0.000 C 
ENDROOT
BRANCH   1  10
ATOM      9  N   UNL     1      38.781   0.540  15.045  0.00  0.00    +0.000 NA
ATOM     10  C   UNL     1      37.666   0.750  14.151  0.00  0.00    +0.000 C 
ATOM     11  O   UNL     1      37.688   0.106  13.123  0.00  0.00    +0.000 OA
BRANCH   9  17
ATOM     12  C   UNL     1      39.867  -1.569  15.394  0.00  0.00    +0.000 A 
ATOM     13  C   UNL     1      40.847  -2.488  15.049  0.00  0.00    +0.000 A 
ATOM     14  C   UNL     1      41.745  -2.255  14.032  0.00  0.00    +0.000 A 
ATOM     15  C   UNL     1      41.672  -1.064  13.326  0.00  0.00    +0.000 A 
ATOM     16  C   UNL     1      40.710  -0.123  13.640  0.00  0.00    +0.000 A 
ATOM     17  C   UNL     1      39.820  -0.396  14.676  0.00  0.00    +0.000 A 
BRANCH  12  18
ATOM     18  O   UNL     1      39.003  -1.870  16.422  0.00  0.00    +0.000 OA
BRANCH  18  20
ATOM     19  C   UNL     1      38.419  -2.881  18.485  0.00  0.00    +0.000 C 
ATOM     20  C   UNL     1      38.962  -3.099  17.083  0.00  0.00    +0.000 C 
ENDBRANCH  18  20
ENDBRANCH  12  18
ENDBRANCH   9  17
ENDBRANCH   1  10
BRANCH   2  21
ATOM     21  N   UNL     1      35.213   0.229  16.143  0.00  0.00    +0.000 NA
ATOM     22  C   UNL     1      35.522  -0.529  17.212  0.00  0.00    +0.000 C 
ATOM     23  O   UNL     1      36.516  -0.266  17.920  0.00  0.00    +0.000 OA
BRANCH  22  24
ATOM     24  C   UNL     1      34.732  -1.743  17.666  0.00  0.00    +0.000 C 
BRANCH  24  25
ATOM     25  C   UNL     1      34.619  -2.720  16.527  0.00  0.00    +0.000 A 
ATOM     26  C   UNL     1      33.456  -3.344  16.176  0.00  0.00    +0.000 A 
ATOM     27  C   UNL     1      33.376  -4.221  15.087  0.00  0.00    +0.000 A 
ATOM     28  C   UNL     1      34.519  -4.459  14.341  0.00  0.00    +0.000 A 
ATOM     29  C   UNL     1      35.715  -3.837  14.679  0.00  0.00    +0.000 A 
ATOM     30  C   UNL     1      35.754  -2.991  15.747  0.00  0.00    +0.000 A 
ENDBRANCH  24  25
ENDBRANCH  22  24
ENDBRANCH   2  21
TORSDOF 7
ENDMDL
MODEL 5
REMARK VINA RESULT:      -7.3      1.337      2.472
REMARK  Name = 
REMARK  7 active torsions:
REMARK  status: ('A' for Active; 'I' for Inactive)
REMARK    1  A    between atoms: C_2  and  O_3
REMARK    2  A    between atoms: O_3  and  C_4
REMARK    3  A    between atoms: C_9  and  N_10
REMARK    4  A    between atoms: C_11  and  C_13
REMARK    5  A    between atoms: C_14  and  N_15
REMARK    6  A    between atoms: C_16  and  C_18
REMARK    7  A    between atoms: C_18  and  C_19
REMARK                            x       y       z     vdW  Elec       q    Type
REMARK                         _______ _______ _______ _____ _____    ______ ____
ROOT
ATOM      1  C   UNL     1      39.669  -0.211  14.063  0.00  0.00    +0.000 A 
ATOM      2  C   UNL     1      40.245   1.016  14.167  0.00  0.00    +0.000 A 
ATOM      3  S   UNL     1      41.918   0.644  13.714  0.00  0.00    +0.000 S 
ATOM      4  C   UNL     1      41.762  -1.008  13.424  0.00  0.00    +0.000 A 
ATOM      5  C   UNL     1      40.453  -1.259  13.673  0.00  0.00    +0.000 A 
ATOM      6  C   UNL     1      40.266  -2.755  13.404  0.00  0.00    +0.000 C 
ATOM      7  C   UNL     1      41.370  -3.078  12.432  0.00  0.00    +0.000 C 
ATOM      8  C   UNL     1      42.501  -2.261  13.005  0.00  0.00    +0.000 C 
ENDROOT
BRANCH   1  10
ATOM      9  N   UNL     1      38.047  -0.750  15.971  0.00  0.00    +0.000 NA
ATOM     10  C   UNL     1      38.269  -0.439  14.578  0.00  0.00    +0.000 C 
ATOM     11  O   UNL     1      37.272  -0.373  13.888  0.00  0.00    +0.000 OA
BRANCH   9  17
ATOM     12  C   UNL     1      36.307  -2.257  16.641  0.00  0.00    +0.000 A 
ATOM     13  C   UNL     1      35.019  -2.474  17.109  0.00  0.00    +0.000 A 
ATOM     14  C   UNL     1      34.151  -1.439  17.374  0.00  0.00    +0.000 A 
ATOM     15  C   UNL     1      34.572  -0.135  17.168  0.00  0.00    +0.000 A 
ATOM     16  C   UNL     1      35.847   0.123  16.703  0.00  0.00    +0.000 A 
ATOM     17  C   UNL     1      36.696  -0.952  16.446  0.00  0.00    +0.000 A 
BRANCH  12  18
ATOM     18  O   UNL     1      37.120  -3.340  16.397  0.00  0.00    +0.000 OA
BRANCH  18  20
ATOM     19  C   UNL     1      36.816  -3.854  14.103  0.00  0.00    +0.000 C 
ATOM     20  C   UNL     1      36.801  -4.384  15.527  0.00  0.00    +0.000 C 
ENDBRANCH  18  20
ENDBRANCH  12  18
ENDBRANCH   9  17
ENDBRANCH   1  10
BRANCH   2  21
ATOM     21  N   UNL     1      39.828   2.348  14.340  0.00  0.00    +0.000 NA
ATOM     22  C   UNL     1      38.927   3.041  15.062  0.00  0.00    +0.000 C 
ATOM     23  O   UNL     1      38.126   2.457  15.821  0.00  0.00    +0.000 OA
BRANCH  22  24
ATOM     24  C   UNL     1      38.783   4.551  15.040  0.00  0.00    +0.000 C 
BRANCH  24  25
ATOM     25  C   UNL     1      39.398   5.131  16.284  0.00  0.00    +0.000 A 
ATOM     26  C   UNL     1      40.549   5.867  16.289  0.00  0.00    +0.000 A 
ATOM     27  C   UNL     1      41.076   6.425  17.461  0.00  0.00    +0.000 A 
ATOM     28  C   UNL     1      40.401   6.222  18.654  0.00  0.00    +0.000 A 
ATOM     29  C   UNL     1      39.229   5.476  18.675  0.00  0.00    +0.000 A 
ATOM     30  C   UNL     1      38.748   4.949  17.515  0.00  0.00    +0.000 A 
ENDBRANCH  24  25
ENDBRANCH  22  24
ENDBRANCH   2  21
TORSDOF 7
ENDMDL
MODEL 6
REMARK VINA RESULT:      -7.2      2.045      3.214
REMARK  Name = 
REMARK  7 active torsions:
REMARK  status: ('A' for Active; 'I' for Inactive)
REMARK    1  A    between atoms: C_2  and  O_3
REMARK    2  A    between atoms: O_3  and  C_4
REMARK    3  A    between atoms: C_9  and  N_10
REMARK    4  A    between atoms: C_11  and  C_13
REMARK    5  A    between atoms: C_14  and  N_15
REMARK    6  A    between atoms: C_16  and  C_18
REMARK    7  A    between atoms: C_18  and  C_19
REMARK                            x       y       z     vdW  Elec       q    Type
REMARK                         _______ _______ _______ _____ _____    ______ ____
ROOT
ATOM      1  C   UNL     1      38.701   1.556  13.980  0.00  0.00    +0.000 A 
ATOM      2  C   UNL     1      39.334   2.724  14.262  0.00  0.00    +0.000 A 
ATOM      3  S   UNL     1      40.746   2.610  13.198  0.00  0.00    +0.000 S 
ATOM      4  C   UNL     1      40.429   1.119  12.482  0.00  0.00    +0.000 A 
ATOM      5  C   UNL     1      39.265   0.726  13.054  0.00  0.00    +0.000 A 
ATOM      6  C   UNL     1      38.932  -0.626  12.414  0.00  0.00    +0.000 C 
ATOM      7  C   UNL     1      39.639  -0.570  11.086  0.00  0.00    +0.000 C 
ATOM      8  C   UNL     1      40.931   0.101  11.480  0.00  0.00    +0.000 C 
ENDROOT
BRANCH   1  10
ATOM      9  N   UNL     1      37.706   0.013  15.767  0.00  0.00    +0.000 NA
ATOM     10  C   UNL     1      37.538   1.097  14.827  0.00  0.00    +0.000 C 
ATOM     11  O   UNL     1      36.430   1.590  14.785  0.00  0.00    +0.000 OA
BRANCH   9  17
ATOM     12  C   UNL     1      35.802  -1.414  16.068  0.00  0.00    +0.000 A 
ATOM     13  C   UNL     1      34.727  -1.837  16.835  0.00  0.00    +0.000 A 
ATOM     14  C   UNL     1      34.435  -1.281  18.060  0.00  0.00    +0.000 A 
ATOM     15  C   UNL     1      35.240  -0.263  18.548  0.00  0.00    +0.000 A 
ATOM     16  C   UNL     1      36.321   0.186  17.814  0.00  0.00    +0.000 A 
ATOM     17  C   UNL     1      36.582  -0.402  16.579  0.00  0.00    +0.000 A 
BRANCH  12  18
ATOM     18  O   UNL     1      36.033  -2.016  14.852  0.00  0.00    +0.000 OA
BRANCH  18  20
ATOM     19  C   UNL     1      37.664  -3.692  15.241  0.00  0.00    +0.000 C 
ATOM     20  C   UNL     1      36.286  -3.378  14.682  0.00  0.00    +0.000 C 
ENDBRANCH  18  20
ENDBRANCH  12  18
ENDBRANCH   9  17
ENDBRANCH   1  10
BRANCH   2  21
ATOM     21  N   UNL     1      39.057   3.912  14.963  0.00  0.00    +0.000 NA
ATOM     22  C   UNL     1      38.550   4.293  16.151  0.00  0.00    +0.000 C 
ATOM     23  O   UNL     1      38.117   3.450  16.964  0.00  0.00    +0.000 OA
BRANCH  22  24
ATOM     24  C   UNL     1      38.447   5.731  16.623  0.00  0.00    +0.000 C 
BRANCH  24  25
ATOM     25  C   UNL     1      39.544   6.013  17.612  0.00  0.00    +0.000 A 
ATOM     26  C   UNL     1      39.358   6.040  18.965  0.00  0.00    +0.000 A 
ATOM     27  C   UNL     1      40.409   6.269  19.862  0.00  0.00    +0.000 A 
ATOM     28  C   UNL     1      41.682   6.473  19.353  0.00  0.00    +0.000 A 
ATOM     29  C   UNL     1      41.897   6.451  17.981  0.00  0.00    +0.000 A 
ATOM     30  C   UNL     1      40.849   6.227  17.140  0.00  0.00    +0.000 A 
ENDBRANCH  24  25
ENDBRANCH  22  24
ENDBRANCH   2  21
TORSDOF 7
ENDMDL
MODEL 7
REMARK VINA RESULT:      -7.1      2.764      7.127
REMARK  Name = 
REMARK  7 active torsions:
REMARK  status: ('A' for Active; 'I' for Inactive)
REMARK    1  A    between atoms: C_2  and  O_3
REMARK    2  A    between atoms: O_3  and  C_4
REMARK    3  A    between atoms: C_9  and  N_10
REMARK    4  A    between atoms: C_11  and  C_13
REMARK    5  A    between atoms: C_14  and  N_15
REMARK    6  A    between atoms: C_16  and  C_18
REMARK    7  A    between atoms: C_18  and  C_19
REMARK                            x       y       z     vdW  Elec       q    Type
REMARK                         _______ _______ _______ _____ _____    ______ ____
ROOT
ATOM      1  C   UNL     1      36.611   2.136  14.686  0.00  0.00    +0.000 A 
ATOM      2  C   UNL     1      35.553   1.730  15.436  0.00  0.00    +0.000 A 
ATOM      3  S   UNL     1      34.476   3.129  15.288  0.00  0.00    +0.000 S 
ATOM      4  C   UNL     1      35.427   4.104  14.297  0.00  0.00    +0.000 A 
ATOM      5  C   UNL     1      36.544   3.364  14.091  0.00  0.00    +0.000 A 
ATOM      6  C   UNL     1      37.433   4.213  13.177  0.00  0.00    +0.000 C 
ATOM      7  C   UNL     1      36.453   5.102  12.459  0.00  0.00    +0.000 C 
ATOM      8  C   UNL     1      35.499   5.435  13.579  0.00  0.00    +0.000 C 
ENDROOT
BRANCH   1  10
ATOM      9  N   UNL     1      37.965   0.051  14.070  0.00  0.00    +0.000 NA
ATOM     10  C   UNL     1      37.899   1.350  14.699  0.00  0.00    +0.000 C 
ATOM     11  O   UNL     1      38.929   1.740  15.208  0.00  0.00    +0.000 OA
BRANCH   9  17
ATOM     12  C   UNL     1      40.097  -0.394  13.068  0.00  0.00    +0.000 A 
ATOM     13  C   UNL     1      41.306  -1.074  13.066  0.00  0.00    +0.000 A 
ATOM     14  C   UNL     1      41.627  -2.002  14.031  0.00  0.00    +0.000 A 
ATOM     15  C   UNL     1      40.715  -2.269  15.040  0.00  0.00    +0.000 A 
ATOM     16  C   UNL     1      39.500  -1.613  15.077  0.00  0.00    +0.000 A 
ATOM     17  C   UNL     1      39.213  -0.681  14.082  0.00  0.00    +0.000 A 
BRANCH  12  18
ATOM     18  O   UNL     1      39.844   0.520  12.070  0.00  0.00    +0.000 OA
BRANCH  18  20
ATOM     19  C   UNL     1      38.065   1.131  10.628  0.00  0.00    +0.000 C 
ATOM     20  C   UNL     1      39.250   0.206  10.846  0.00  0.00    +0.000 C 
ENDBRANCH  18  20
ENDBRANCH  12  18
ENDBRANCH   9  17
ENDBRANCH   1  10
BRANCH   2  21
ATOM     21  N   UNL     1      35.110   0.545  16.050  0.00  0.00    +0.000 NA
ATOM     22  C   UNL     1      35.206  -0.076  17.241  0.00  0.00    +0.000 C 
ATOM     23  O   UNL     1      35.894   0.409  18.164  0.00  0.00    +0.000 OA
BRANCH  22  24
ATOM     24  C   UNL     1      34.518  -1.383  17.590  0.00  0.00    +0.000 C 
BRANCH  24  25
ATOM     25  C   UNL     1      35.178  -2.510  16.844  0.00  0.00    +0.000 A 
ATOM     26  C   UNL     1      34.636  -3.111  15.744  0.00  0.00    +0.000 A 
ATOM     27  C   UNL     1      35.294  -4.134  15.049  0.00  0.00    +0.000 A 
ATOM     28  C   UNL     1      36.538  -4.546  15.497  0.00  0.00    +0.000 A 
ATOM     29  C   UNL     1      37.110  -3.951  16.614  0.00  0.00    +0.000 A 
ATOM     30  C   UNL     1      36.440  -2.960  17.264  0.00  0.00    +0.000 A 
ENDBRANCH  24  25
ENDBRANCH  22  24
ENDBRANCH   2  21
TORSDOF 7
ENDMDL
MODEL 8
REMARK VINA RESULT:      -7.1      2.466      3.877
REMARK  Name = 
REMARK  7 active torsions:
REMARK  status: ('A' for Active; 'I' for Inactive)
REMARK    1  A    between atoms: C_2  and  O_3
REMARK    2  A    between atoms: O_3  and  C_4
REMARK    3  A    between atoms: C_9  and  N_10
REMARK    4  A    between atoms: C_11  and  C_13
REMARK    5  A    between atoms: C_14  and  N_15
REMARK    6  A    between atoms: C_16  and  C_18
REMARK    7  A    between atoms: C_18  and  C_19
REMARK                            x       y       z     vdW  Elec       q    Type
REMARK                         _______ _______ _______ _____ _____    ______ ____
ROOT
ATOM      1  C   UNL     1      38.390   1.780  14.113  0.00  0.00    +0.000 A 
ATOM      2  C   UNL     1      38.507   3.026  14.642  0.00  0.00    +0.000 A 
ATOM      3  S   UNL     1      38.230   4.030  13.209  0.00  0.00    +0.000 S 
ATOM      4  C   UNL     1      37.982   2.816  12.068  0.00  0.00    +0.000 A 
ATOM      5  C   UNL     1      38.113   1.670  12.780  0.00  0.00    +0.000 A 
ATOM      6  C   UNL     1      37.879   0.536  11.777  0.00  0.00    +0.000 C 
ATOM      7  C   UNL     1      37.029   1.179  10.713  0.00  0.00    +0.000 C 
ATOM      8  C   UNL     1      37.679   2.536  10.611  0.00  0.00    +0.000 C 
ENDROOT
BRANCH   1  10
ATOM      9  N   UNL     1      37.755  -0.268  15.514  0.00  0.00    +0.000 NA
ATOM     10  C   UNL     1      38.776   0.568  14.927  0.00  0.00    +0.000 C 
ATOM     11  O   UNL     1      39.921   0.222  15.130  0.00  0.00    +0.000 OA
BRANCH   9  17
ATOM     12  C   UNL     1      37.787  -1.437  17.608  0.00  0.00    +0.000 A 
ATOM     13  C   UNL     1      38.140  -2.549  18.358  0.00  0.00    +0.000 A 
ATOM     14  C   UNL     1      38.821  -3.615  17.814  0.00  0.00    +0.000 A 
ATOM     15  C   UNL     1      39.168  -3.581  16.473  0.00  0.00    +0.000 A 
ATOM     16  C   UNL     1      38.834  -2.491  15.692  0.00  0.00    +0.000 A 
ATOM     17  C   UNL     1      38.146  -1.432  16.280  0.00  0.00    +0.000 A 
BRANCH  12  18
ATOM     18  O   UNL     1      37.107  -0.408  18.219  0.00  0.00    +0.000 OA
BRANCH  18  20
ATOM     19  C   UNL     1      34.810  -0.603  17.669  0.00  0.00    +0.000 C 
ATOM     20  C   UNL     1      35.837  -0.530  18.786  0.00  0.00    +0.000 C 
ENDBRANCH  18  20
ENDBRANCH  12  18
ENDBRANCH   9  17
ENDBRANCH   1  10
BRANCH   2  21
ATOM     21  N   UNL     1      38.594   3.607  15.920  0.00  0.00    +0.000 NA
ATOM     22  C   UNL     1      38.242   4.750  16.540  0.00  0.00    +0.000 C 
ATOM     23  O   UNL     1      37.703   5.682  15.908  0.00  0.00    +0.000 OA
BRANCH  22  24
ATOM     24  C   UNL     1      38.451   5.030  18.016  0.00  0.00    +0.000 C 
BRANCH  24  25
ATOM     25  C   UNL     1      39.803   5.657  18.220  0.00  0.00    +0.000 A 
ATOM     26  C   UNL     1      40.676   5.925  17.204  0.00  0.00    +0.000 A 
ATOM     27  C   UNL     1      41.913   6.545  17.423  0.00  0.00    +0.000 A 
ATOM     28  C   UNL     1      42.258   6.898  18.718  0.00  0.00    +0.000 A 
ATOM     29  C   UNL     1      41.387   6.635  19.768  0.00  0.00    +0.000 A 
ATOM     30  C   UNL     1      40.194   6.030  19.516  0.00  0.00    +0.000 A 
ENDBRANCH  24  25
ENDBRANCH  22  24
ENDBRANCH   2  21
TORSDOF 7
ENDMDL
MODEL 9
REMARK VINA RESULT:      -7.1      2.411      5.211
REMARK  Name = 
REMARK  7 active torsions:
REMARK  status: ('A' for Active; 'I' for Inactive)
REMARK    1  A    between atoms: C_2  and  O_3
REMARK    2  A    between atoms: O_3  and  C_4
REMARK    3  A    between atoms: C_9  and  N_10
REMARK    4  A    between atoms: C_11  and  C_13
REMARK    5  A    between atoms: C_14  and  N_15
REMARK    6  A    between atoms: C_16  and  C_18
REMARK    7  A    between atoms: C_18  and  C_19
REMARK                            x       y       z     vdW  Elec       q    Type
REMARK                         _______ _______ _______ _____ _____    ______ ____
ROOT
ATOM      1  C   UNL     1      36.500   0.219  15.089  0.00  0.00    +0.000 A 
ATOM      2  C   UNL     1      36.361   1.467  15.609  0.00  0.00    +0.000 A 
ATOM      3  S   UNL     1      35.210   1.160  16.921  0.00  0.00    +0.000 S 
ATOM      4  C   UNL     1      35.001  -0.499  16.720  0.00  0.00    +0.000 A 
ATOM      5  C   UNL     1      35.800  -0.801  15.667  0.00  0.00    +0.000 A 
ATOM      6  C   UNL     1      35.649  -2.312  15.460  0.00  0.00    +0.000 C 
ATOM      7  C   UNL     1      35.243  -2.813  16.820  0.00  0.00    +0.000 C 
ATOM      8  C   UNL     1      34.291  -1.726  17.252  0.00  0.00    +0.000 C 
ENDROOT
BRANCH   1  10
ATOM      9  N   UNL     1      38.635  -0.305  13.775  0.00  0.00    +0.000 NA
ATOM     10  C   UNL     1      37.227   0.017  13.781  0.00  0.00    +0.000 C 
ATOM     11  O   UNL     1      36.701   0.099  12.691  0.00  0.00    +0.000 OA
BRANCH   9  17
ATOM     12  C   UNL     1      39.833   0.614  11.912  0.00  0.00    +0.000 A 
ATOM     13  C   UNL     1      40.496   0.441  10.706  0.00  0.00    +0.000 A 
ATOM     14  C   UNL     1      40.637  -0.795  10.117  0.00  0.00    +0.000 A 
ATOM     15  C   UNL     1      40.099  -1.907  10.745  0.00  0.00    +0.000 A 
ATOM     16  C   UNL     1      39.432  -1.777  11.947  0.00  0.00    +0.000 A 
ATOM     17  C   UNL     1      39.311  -0.509  12.511  0.00  0.00    +0.000 A 
BRANCH  12  18
ATOM     18  O   UNL     1      39.731   1.880  12.442  0.00  0.00    +0.000 OA
BRANCH  18  20
ATOM     19  C   UNL     1      37.886   3.139  11.648  0.00  0.00    +0.000 C 
ATOM     20  C   UNL     1      39.399   3.018  11.705  0.00  0.00    +0.000 C 
ENDBRANCH  18  20
ENDBRANCH  12  18
ENDBRANCH   9  17
ENDBRANCH   1  10
BRANCH   2  21
ATOM     21  N   UNL     1      36.984   2.721  15.479  0.00  0.00    +0.000 NA
ATOM     22  C   UNL     1      38.224   3.228  15.352  0.00  0.00    +0.000 C 
ATOM     23  O   UNL     1      39.227   2.485  15.380  0.00  0.00    +0.000 OA
BRANCH  22  24
ATOM     24  C   UNL     1      38.540   4.701  15.167  0.00  0.00    +0.000 C 
BRANCH  24  25
ATOM     25  C   UNL     1      39.248   5.218  16.389  0.00  0.00    +0.000 A 
ATOM     26  C   UNL     1      40.429   5.902  16.349  0.00  0.00    +0.000 A 
ATOM     27  C   UNL     1      41.044   6.404  17.503  0.00  0.00    +0.000 A 
ATOM     28  C   UNL     1      40.428   6.197  18.726  0.00  0.00    +0.000 A 
ATOM     29  C   UNL     1      39.226   5.503  18.794  0.00  0.00    +0.000 A 
ATOM     30  C   UNL     1      38.659   5.030  17.649  0.00  0.00    +0.000 A 
ENDBRANCH  24  25
ENDBRANCH  22  24
ENDBRANCH   2  21
TORSDOF 7
ENDMDL
MODEL 10
REMARK VINA RESULT:      -6.8      2.052      5.519
REMARK  Name = 
REMARK  7 active torsions:
REMARK  status: ('A' for Active; 'I' for Inactive)
REMARK    1  A    between atoms: C_2  and  O_3
REMARK    2  A    between atoms: O_3  and  C_4
REMARK    3  A    between atoms: C_9  and  N_10
REMARK    4  A    between atoms: C_11  and  C_13
REMARK    5  A    between atoms: C_14  and  N_15
REMARK    6  A    between atoms: C_16  and  C_18
REMARK    7  A    between atoms: C_18  and  C_19
REMARK                            x       y       z     vdW  Elec       q    Type
REMARK                         _______ _______ _______ _____ _____    ______ ____
ROOT
ATOM      1  C   UNL     1      36.909   0.735  15.617  0.00  0.00    +0.000 A 
ATOM      2  C   UNL     1      36.378   1.922  16.013  0.00  0.00    +0.000 A 
ATOM      3  S   UNL     1      34.942   1.374  16.894  0.00  0.00    +0.000 S 
ATOM      4  C   UNL     1      35.123  -0.290  16.705  0.00  0.00    +0.000 A 
ATOM      5  C   UNL     1      36.262  -0.412  15.980  0.00  0.00    +0.000 A 
ATOM      6  C   UNL     1      36.471  -1.919  15.798  0.00  0.00    +0.000 C 
ATOM      7  C   UNL     1      35.746  -2.518  16.974  0.00  0.00    +0.000 C 
ATOM      8  C   UNL     1      34.520  -1.641  17.029  0.00  0.00    +0.000 C 
ENDROOT
BRANCH   1  10
ATOM      9  N   UNL     1      39.402   0.933  15.065  0.00  0.00    +0.000 NA
ATOM     10  C   UNL     1      38.046   0.703  14.625  0.00  0.00    +0.000 C 
ATOM     11  O   UNL     1      37.908   0.483  13.439  0.00  0.00    +0.000 OA
BRANCH   9  17
ATOM     12  C   UNL     1      41.170  -0.302  14.016  0.00  0.00    +0.000 A 
ATOM     13  C   UNL     1      42.198  -0.376  13.089  0.00  0.00    +0.000 A 
ATOM     14  C   UNL     1      42.530   0.684  12.276  0.00  0.00    +0.000 A 
ATOM     15  C   UNL     1      41.816   1.867  12.383  0.00  0.00    +0.000 A 
ATOM     16  C   UNL     1      40.784   1.980  13.295  0.00  0.00    +0.000 A 
ATOM     17  C   UNL     1      40.479   0.885  14.100  0.00  0.00    +0.000 A 
BRANCH  12  18
ATOM     18  O   UNL     1      40.894  -1.402  14.796  0.00  0.00    +0.000 OA
BRANCH  18  20
ATOM     19  C   UNL     1      39.336  -2.680  13.548  0.00  0.00    +0.000 C 
ATOM     20  C   UNL     1      40.659  -2.684  14.296  0.00  0.00    +0.000 C 
ENDBRANCH  18  20
ENDBRANCH  12  18
ENDBRANCH   9  17
ENDBRANCH   1  10
BRANCH   2  21
ATOM     21  N   UNL     1      36.764   3.274  16.039  0.00  0.00    +0.000 NA
ATOM     22  C   UNL     1      37.397   4.163  15.250  0.00  0.00    +0.000 C 
ATOM     23  O   UNL     1      37.876   3.816  14.150  0.00  0.00    +0.000 OA
BRANCH  22  24
ATOM     24  C   UNL     1      37.598   5.628  15.589  0.00  0.00    +0.000 C 
BRANCH  24  25
ATOM     25  C   UNL     1      38.746   5.767  16.550  0.00  0.00    +0.000 A 
ATOM     26  C   UNL     1      40.027   6.044  16.167  0.00  0.00    +0.000 A 
ATOM     27  C   UNL     1      41.068   6.204  17.090  0.00  0.00    +0.000 A 
ATOM     28  C   UNL     1      40.782   6.077  18.440  0.00  0.00    +0.000 A 
ATOM     29  C   UNL     1      39.487   5.795  18.856  0.00  0.00    +0.000 A 
ATOM     30  C   UNL     1      38.501   5.645  17.927  0.00  0.00    +0.000 A 
ENDBRANCH  24  25
ENDBRANCH  22  24
ENDBRANCH   2  21
TORSDOF 7
ENDMDL
