MODEL 1
REMARK VINA RESULT:      -7.4      0.000      0.000
REMARK  Name = 
REMARK  8 active torsions:
REMARK  status: ('A' for Active; 'I' for Inactive)
REMARK    1  A    between atoms: C_2  and  O_3
REMARK    2  A    between atoms: O_3  and  C_4
REMARK    3  A    between atoms: C_9  and  N_10
REMARK    4  A    between atoms: N_10  and  C_11
REMARK    5  A    between atoms: C_12  and  S_13
REMARK    6  A    between atoms: S_13  and  C_14
REMARK    7  A    between atoms: N_22  and  C_23
REMARK    8  A    between atoms: C_26  and  O_27
REMARK                            x       y       z     vdW  Elec       q    Type
REMARK                         _______ _______ _______ _____ _____    ______ ____
ROOT
ATOM      1  C   UNL     1      37.202   1.539  15.169  0.00  0.00    +0.000 C 
ATOM      2  C   UNL     1      38.245   1.817  14.369  0.00  0.00    +0.000 C 
ATOM      3  C   UNL     1      38.821   3.061  14.837  0.00  0.00    +0.000 C 
ATOM      4  O   UNL     1      39.806   3.721  14.413  0.00  0.00    +0.000 OA
ATOM      5  N   UNL     1      38.073   3.526  15.965  0.00  0.00    +0.000 N 
ATOM      6  C   UNL     1      37.059   2.564  16.166  0.00  0.00    +0.000 C 
ATOM      7  O   UNL     1      36.191   2.651  17.099  0.00  0.00    +0.000 OA
ENDROOT
BRANCH   5   8
ATOM      8  C   UNL     1      38.275   4.692  16.737  0.00  0.00    +0.000 A 
ATOM      9  C   UNL     1      37.963   5.936  16.229  0.00  0.00    +0.000 A 
ATOM     10  C   UNL     1      38.168   7.063  16.996  0.00  0.00    +0.000 A 
ATOM     11  C   UNL     1      38.682   6.998  18.277  0.00  0.00    +0.000 A 
ATOM     12  C   UNL     1      38.986   5.748  18.762  0.00  0.00    +0.000 A 
ATOM     13  C   UNL     1      38.788   4.619  18.013  0.00  0.00    +0.000 A 
BRANCH  11  14
ATOM     14  O   UNL     1      38.885   8.155  19.049  0.00  0.00    +0.000 OA
ATOM     15  C   UNL     1      38.998   8.051  20.445  0.00  0.00    +0.000 C 
ENDBRANCH  11  14
ENDBRANCH   5   8
BRANCH   1  16
ATOM     16  N   UNL     1      36.371   0.407  15.047  0.00  0.00    +0.000 NA
BRANCH  16  22
ATOM     17  C   UNL     1      37.272  -1.372  16.428  0.00  0.00    +0.000 A 
ATOM     18  C   UNL     1      37.644  -2.700  16.562  0.00  0.00    +0.000 A 
ATOM     19  C   UNL     1      37.519  -3.592  15.530  0.00  0.00    +0.000 A 
ATOM     20  C   UNL     1      37.006  -3.136  14.336  0.00  0.00    +0.000 A 
ATOM     21  C   UNL     1      36.642  -1.824  14.215  0.00  0.00    +0.000 A 
ATOM     22  C   UNL     1      36.762  -0.919  15.237  0.00  0.00    +0.000 A 
BRANCH  17  23
ATOM     23  O   UNL     1      37.438  -0.543  17.530  0.00  0.00    +0.000 OA
BRANCH  23  25
ATOM     24  C   UNL     1      35.609  -0.251  19.094  0.00  0.00    +0.000 C 
ATOM     25  C   UNL     1      36.930  -0.870  18.793  0.00  0.00    +0.000 C 
ENDBRANCH  23  25
ENDBRANCH  17  23
ENDBRANCH  16  22
ENDBRANCH   1  16
BRANCH   2  26
ATOM     26  S   UNL     1      38.799   0.847  13.012  0.00  0.00    +0.000 S 
BRANCH  26  27
ATOM     27  C   UNL     1      39.737  -0.575  13.386  0.00  0.00    +0.000 A 
ATOM     28  C   UNL     1      40.422  -0.874  14.522  0.00  0.00    +0.000 A 
ATOM     29  C   UNL     1      41.129  -2.039  14.694  0.00  0.00    +0.000 A 
ATOM     30  C   UNL     1      41.158  -2.962  13.679  0.00  0.00    +0.000 A 
ATOM     31  C   UNL     1      40.481  -2.693  12.525  0.00  0.00    +0.000 A 
ATOM     32  C   UNL     1      39.787  -1.545  12.362  0.00  0.00    +0.000 A 
ENDBRANCH  26  27
ENDBRANCH   2  26
TORSDOF 8
ENDMDL
MODEL 2
REMARK VINA RESULT:      -7.3      3.655      6.964
REMARK  Name = 
REMARK  8 active torsions:
REMARK  status: ('A' for Active; 'I' for Inactive)
REMARK    1  A    between atoms: C_2  and  O_3
REMARK    2  A    between atoms: O_3  and  C_4
REMARK    3  A    between atoms: C_9  and  N_10
REMARK    4  A    between atoms: N_10  and  C_11
REMARK    5  A    between atoms: C_12  and  S_13
REMARK    6  A    between atoms: S_13  and  C_14
REMARK    7  A    between atoms: N_22  and  C_23
REMARK    8  A    between atoms: C_26  and  O_27
REMARK                            x       y       z     vdW  Elec       q    Type
REMARK                         _______ _______ _______ _____ _____    ______ ____
ROOT
ATOM      1  C   UNL     1      36.793   3.822  16.075  0.00  0.00    +0.000 C 
ATOM      2  C   UNL     1      37.716   4.797  16.112  0.00  0.00    +0.000 C 
ATOM      3  C   UNL     1      37.413   5.710  15.029  0.00  0.00    +0.000 C 
ATOM      4  O   UNL     1      37.989   6.768  14.660  0.00  0.00    +0.000 OA
ATOM      5  N   UNL     1      36.257   5.238  14.330  0.00  0.00    +0.000 N 
ATOM      6  C   UNL     1      35.875   4.052  14.994  0.00  0.00    +0.000 C 
ATOM      7  O   UNL     1      34.868   3.349  14.642  0.00  0.00    +0.000 OA
ENDROOT
BRANCH   5   8
ATOM      8  C   UNL     1      35.608   5.808  13.211  0.00  0.00    +0.000 A 
ATOM      9  C   UNL     1      34.460   6.556  13.368  0.00  0.00    +0.000 A 
ATOM     10  C   UNL     1      33.841   7.103  12.265  0.00  0.00    +0.000 A 
ATOM     11  C   UNL     1      34.330   6.932  10.985  0.00  0.00    +0.000 A 
ATOM     12  C   UNL     1      35.476   6.183  10.852  0.00  0.00    +0.000 A 
ATOM     13  C   UNL     1      36.103   5.632  11.938  0.00  0.00    +0.000 A 
BRANCH  11  14
ATOM     14  O   UNL     1      33.689   7.496   9.868  0.00  0.00    +0.000 OA
ATOM     15  C   UNL     1      34.127   7.172   8.574  0.00  0.00    +0.000 C 
ENDBRANCH  11  14
ENDBRANCH   5   8
BRANCH   1  16
ATOM     16  N   UNL     1      36.736   2.732  16.968  0.00  0.00    +0.000 NA
BRANCH  16  22
ATOM     17  C   UNL     1      37.053   0.635  15.790  0.00  0.00    +0.000 A 
ATOM     18  C   UNL     1      36.612  -0.649  15.508  0.00  0.00    +0.000 A 
ATOM     19  C   UNL     1      35.469  -1.158  16.065  0.00  0.00    +0.000 A 
ATOM     20  C   UNL     1      34.753  -0.355  16.927  0.00  0.00    +0.000 A 
ATOM     21  C   UNL     1      35.197   0.909  17.198  0.00  0.00    +0.000 A 
ATOM     22  C   UNL     1      36.338   1.433  16.648  0.00  0.00    +0.000 A 
BRANCH  17  23
ATOM     23  O   UNL     1      38.223   1.063  15.177  0.00  0.00    +0.000 OA
BRANCH  23  25
ATOM     24  C   UNL     1      37.849   1.828  12.908  0.00  0.00    +0.000 C 
ATOM     25  C   UNL     1      38.481   0.834  13.820  0.00  0.00    +0.000 C 
ENDBRANCH  23  25
ENDBRANCH  17  23
ENDBRANCH  16  22
ENDBRANCH   1  16
BRANCH   2  26
ATOM     26  S   UNL     1      39.037   4.933  17.262  0.00  0.00    +0.000 S 
BRANCH  26  27
ATOM     27  C   UNL     1      38.947   6.233  18.422  0.00  0.00    +0.000 A 
ATOM     28  C   UNL     1      38.074   7.273  18.475  0.00  0.00    +0.000 A 
ATOM     29  C   UNL     1      38.109   8.240  19.449  0.00  0.00    +0.000 A 
ATOM     30  C   UNL     1      39.067   8.172  20.429  0.00  0.00    +0.000 A 
ATOM     31  C   UNL     1      39.960   7.140  20.404  0.00  0.00    +0.000 A 
ATOM     32  C   UNL     1      39.920   6.191  19.444  0.00  0.00    +0.000 A 
ENDBRANCH  26  27
ENDBRANCH   2  26
TORSDOF 8
ENDMDL
MODEL 3
REMARK VINA RESULT:      -7.2      3.039      8.969
REMARK  Name = 
REMARK  8 active torsions:
REMARK  status: ('A' for Active; 'I' for Inactive)
REMARK    1  A    between atoms: C_2  and  O_3
REMARK    2  A    between atoms: O_3  and  C_4
REMARK    3  A    between atoms: C_9  and  N_10
REMARK    4  A    between atoms: N_10  and  C_11
REMARK    5  A    between atoms: C_12  and  S_13
REMARK    6  A    between atoms: S_13  and  C_14
REMARK    7  A    between atoms: N_22  and  C_23
REMARK    8  A    between atoms: C_26  and  O_27
REMARK                            x       y       z     vdW  Elec       q    Type
REMARK                         _______ _______ _______ _____ _____    ______ ____
ROOT
ATOM      1  C   UNL     1      38.062   5.708  16.250  0.00  0.00    +0.000 C 
ATOM      2  C   UNL     1      37.382   5.916  15.111  0.00  0.00    +0.000 C 
ATOM      3  C   UNL     1      36.677   4.688  14.805  0.00  0.00    +0.000 C 
ATOM      4  O   UNL     1      35.914   4.395  13.847  0.00  0.00    +0.000 OA
ATOM      5  N   UNL     1      36.965   3.720  15.819  0.00  0.00    +0.000 N 
ATOM      6  C   UNL     1      37.836   4.370  16.722  0.00  0.00    +0.000 C 
ATOM      7  O   UNL     1      38.306   3.804  17.766  0.00  0.00    +0.000 OA
ENDROOT
BRANCH   5   8
ATOM      8  C   UNL     1      36.498   2.391  15.928  0.00  0.00    +0.000 A 
ATOM      9  C   UNL     1      37.153   1.360  15.286  0.00  0.00    +0.000 A 
ATOM     10  C   UNL     1      36.682   0.070  15.403  0.00  0.00    +0.000 A 
ATOM     11  C   UNL     1      35.562  -0.241  16.149  0.00  0.00    +0.000 A 
ATOM     12  C   UNL     1      34.926   0.802  16.779  0.00  0.00    +0.000 A 
ATOM     13  C   UNL     1      35.380   2.090  16.674  0.00  0.00    +0.000 A 
BRANCH  11  14
ATOM     14  O   UNL     1      35.093  -1.562  16.259  0.00  0.00    +0.000 OA
ATOM     15  C   UNL     1      35.527  -2.369  17.324  0.00  0.00    +0.000 C 
ENDBRANCH  11  14
ENDBRANCH   5   8
BRANCH   1  16
ATOM     16  N   UNL     1      38.879   6.663  16.888  0.00  0.00    +0.000 NA
BRANCH  16  22
ATOM     17  C   UNL     1      39.286   7.029  19.251  0.00  0.00    +0.000 A 
ATOM     18  C   UNL     1      38.966   7.697  20.423  0.00  0.00    +0.000 A 
ATOM     19  C   UNL     1      37.971   8.638  20.469  0.00  0.00    +0.000 A 
ATOM     20  C   UNL     1      37.283   8.913  19.307  0.00  0.00    +0.000 A 
ATOM     21  C   UNL     1      37.607   8.249  18.158  0.00  0.00    +0.000 A 
ATOM     22  C   UNL     1      38.598   7.305  18.095  0.00  0.00    +0.000 A 
BRANCH  17  23
ATOM     23  O   UNL     1      40.309   6.092  19.304  0.00  0.00    +0.000 OA
BRANCH  23  25
ATOM     24  C   UNL     1      42.387   6.597  18.162  0.00  0.00    +0.000 C 
ATOM     25  C   UNL     1      41.651   6.460  19.451  0.00  0.00    +0.000 C 
ENDBRANCH  23  25
ENDBRANCH  17  23
ENDBRANCH  16  22
ENDBRANCH   1  16
BRANCH   2  26
ATOM     26  S   UNL     1      37.357   7.403  14.174  0.00  0.00    +0.000 S 
BRANCH  26  27
ATOM     27  C   UNL     1      36.185   8.610  14.637  0.00  0.00    +0.000 A 
ATOM     28  C   UNL     1      36.390   9.899  15.018  0.00  0.00    +0.000 A 
ATOM     29  C   UNL     1      35.373  10.756  15.361  0.00  0.00    +0.000 A 
ATOM     30  C   UNL     1      34.076  10.309  15.323  0.00  0.00    +0.000 A 
ATOM     31  C   UNL     1      33.836   9.019  14.944  0.00  0.00    +0.000 A 
ATOM     32  C   UNL     1      34.841   8.181  14.608  0.00  0.00    +0.000 A 
ENDBRANCH  26  27
ENDBRANCH   2  26
TORSDOF 8
ENDMDL
MODEL 4
REMARK VINA RESULT:      -6.8      3.741      7.221
REMARK  Name = 
REMARK  8 active torsions:
REMARK  status: ('A' for Active; 'I' for Inactive)
REMARK    1  A    between atoms: C_2  and  O_3
REMARK    2  A    between atoms: O_3  and  C_4
REMARK    3  A    between atoms: C_9  and  N_10
REMARK    4  A    between atoms: N_10  and  C_11
REMARK    5  A    between atoms: C_12  and  S_13
REMARK    6  A    between atoms: S_13  and  C_14
REMARK    7  A    between atoms: N_22  and  C_23
REMARK    8  A    between atoms: C_26  and  O_27
REMARK                            x       y       z     vdW  Elec       q    Type
REMARK                         _______ _______ _______ _____ _____    ______ ____
ROOT
ATOM      1  C   UNL     1      37.775  -1.624  14.785  0.00  0.00    +0.000 C 
ATOM      2  C   UNL     1      38.074  -2.584  15.677  0.00  0.00    +0.000 C 
ATOM      3  C   UNL     1      39.492  -2.850  15.555  0.00  0.00    +0.000 C 
ATOM      4  O   UNL     1      40.233  -3.661  16.174  0.00  0.00    +0.000 OA
ATOM      5  N   UNL     1      40.041  -2.002  14.541  0.00  0.00    +0.000 N 
ATOM      6  C   UNL     1      38.955  -1.237  14.064  0.00  0.00    +0.000 C 
ATOM      7  O   UNL     1      39.073  -0.360  13.142  0.00  0.00    +0.000 OA
ENDROOT
BRANCH   5   8
ATOM      8  C   UNL     1      41.377  -1.921  14.088  0.00  0.00    +0.000 A 
ATOM      9  C   UNL     1      41.869  -2.834  13.178  0.00  0.00    +0.000 A 
ATOM     10  C   UNL     1      43.175  -2.739  12.748  0.00  0.00    +0.000 A 
ATOM     11  C   UNL     1      44.029  -1.750  13.197  0.00  0.00    +0.000 A 
ATOM     12  C   UNL     1      43.517  -0.851  14.104  0.00  0.00    +0.000 A 
ATOM     13  C   UNL     1      42.222  -0.931  14.541  0.00  0.00    +0.000 A 
BRANCH  11  14
ATOM     14  O   UNL     1      45.359  -1.664  12.750  0.00  0.00    +0.000 OA
ATOM     15  C   UNL     1      45.624  -1.378  11.401  0.00  0.00    +0.000 C 
ENDBRANCH  11  14
ENDBRANCH   5   8
BRANCH   1  16
ATOM     16  N   UNL     1      36.490  -1.080  14.587  0.00  0.00    +0.000 NA
BRANCH  16  22
ATOM     17  C   UNL     1      35.509   0.424  16.218  0.00  0.00    +0.000 A 
ATOM     18  C   UNL     1      35.109   1.706  16.564  0.00  0.00    +0.000 A 
ATOM     19  C   UNL     1      35.254   2.763  15.705  0.00  0.00    +0.000 A 
ATOM     20  C   UNL     1      35.816   2.525  14.470  0.00  0.00    +0.000 A 
ATOM     21  C   UNL     1      36.207   1.257  14.140  0.00  0.00    +0.000 A 
ATOM     22  C   UNL     1      36.069   0.189  14.987  0.00  0.00    +0.000 A 
BRANCH  17  23
ATOM     23  O   UNL     1      35.321  -0.583  17.155  0.00  0.00    +0.000 OA
BRANCH  23  25
ATOM     24  C   UNL     1      36.665  -0.523  19.172  0.00  0.00    +0.000 C 
ATOM     25  C   UNL     1      35.333  -0.333  18.533  0.00  0.00    +0.000 C 
ENDBRANCH  23  25
ENDBRANCH  17  23
ENDBRANCH  16  22
ENDBRANCH   1  16
BRANCH   2  26
ATOM     26  S   UNL     1      36.949  -3.362  16.780  0.00  0.00    +0.000 S 
BRANCH  26  27
ATOM     27  C   UNL     1      35.584  -4.184  16.070  0.00  0.00    +0.000 A 
ATOM     28  C   UNL     1      34.453  -3.656  15.532  0.00  0.00    +0.000 A 
ATOM     29  C   UNL     1      33.441  -4.418  15.000  0.00  0.00    +0.000 A 
ATOM     30  C   UNL     1      33.559  -5.785  15.002  0.00  0.00    +0.000 A 
ATOM     31  C   UNL     1      34.683  -6.347  15.534  0.00  0.00    +0.000 A 
ATOM     32  C   UNL     1      35.674  -5.593  16.056  0.00  0.00    +0.000 A 
ENDBRANCH  26  27
ENDBRANCH   2  26
TORSDOF 8
ENDMDL
MODEL 5
REMARK VINA RESULT:      -6.8      3.601      7.728
REMARK  Name = 
REMARK  8 active torsions:
REMARK  status: ('A' for Active; 'I' for Inactive)
REMARK    1  A    between atoms: C_2  and  O_3
REMARK    2  A    between atoms: O_3  and  C_4
REMARK    3  A    between atoms: C_9  and  N_10
REMARK    4  A    between atoms: N_10  and  C_11
REMARK    5  A    between atoms: C_12  and  S_13
REMARK    6  A    between atoms: S_13  and  C_14
REMARK    7  A    between atoms: N_22  and  C_23
REMARK    8  A    between atoms: C_26  and  O_27
REMARK                            x       y       z     vdW  Elec       q    Type
REMARK                         _______ _______ _______ _____ _____    ______ ____
ROOT
ATOM      1  C   UNL     1      38.042  -1.525  14.603  0.00  0.00    +0.000 C 
ATOM      2  C   UNL     1      38.215  -2.435  15.576  0.00  0.00    +0.000 C 
ATOM      3  C   UNL     1      39.594  -2.874  15.507  0.00  0.00    +0.000 C 
ATOM      4  O   UNL     1      40.226  -3.710  16.206  0.00  0.00    +0.000 OA
ATOM      5  N   UNL     1      40.251  -2.182  14.440  0.00  0.00    +0.000 N 
ATOM      6  C   UNL     1      39.268  -1.338  13.878  0.00  0.00    +0.000 C 
ATOM      7  O   UNL     1      39.498  -0.561  12.891  0.00  0.00    +0.000 OA
ENDROOT
BRANCH   5   8
ATOM      8  C   UNL     1      41.592  -2.295  14.010  0.00  0.00    +0.000 A 
ATOM      9  C   UNL     1      41.940  -3.183  13.014  0.00  0.00    +0.000 A 
ATOM     10  C   UNL     1      43.254  -3.279  12.608  0.00  0.00    +0.000 A 
ATOM     11  C   UNL     1      44.256  -2.510  13.167  0.00  0.00    +0.000 A 
ATOM     12  C   UNL     1      43.886  -1.631  14.159  0.00  0.00    +0.000 A 
ATOM     13  C   UNL     1      42.585  -1.523  14.573  0.00  0.00    +0.000 A 
BRANCH  11  14
ATOM     14  O   UNL     1      45.592  -2.618  12.744  0.00  0.00    +0.000 OA
ATOM     15  C   UNL     1      46.389  -3.676  13.210  0.00  0.00    +0.000 C 
ENDBRANCH  11  14
ENDBRANCH   5   8
BRANCH   1  16
ATOM     16  N   UNL     1      36.832  -0.853  14.334  0.00  0.00    +0.000 NA
BRANCH  16  22
ATOM     17  C   UNL     1      36.756   1.548  14.673  0.00  0.00    +0.000 A 
ATOM     18  C   UNL     1      36.251   2.634  15.371  0.00  0.00    +0.000 A 
ATOM     19  C   UNL     1      35.353   2.481  16.394  0.00  0.00    +0.000 A 
ATOM     20  C   UNL     1      34.954   1.204  16.722  0.00  0.00    +0.000 A 
ATOM     21  C   UNL     1      35.458   0.140  16.028  0.00  0.00    +0.000 A 
ATOM     22  C   UNL     1      36.357   0.276  15.003  0.00  0.00    +0.000 A 
BRANCH  17  23
ATOM     23  O   UNL     1      37.661   1.803  13.652  0.00  0.00    +0.000 OA
BRANCH  23  25
ATOM     24  C   UNL     1      37.107   1.243  11.360  0.00  0.00    +0.000 C 
ATOM     25  C   UNL     1      37.261   2.295  12.404  0.00  0.00    +0.000 C 
ENDBRANCH  23  25
ENDBRANCH  17  23
ENDBRANCH  16  22
ENDBRANCH   1  16
BRANCH   2  26
ATOM     26  S   UNL     1      36.994  -2.983  16.714  0.00  0.00    +0.000 S 
BRANCH  26  27
ATOM     27  C   UNL     1      35.663  -3.905  16.065  0.00  0.00    +0.000 A 
ATOM     28  C   UNL     1      34.492  -3.461  15.537  0.00  0.00    +0.000 A 
ATOM     29  C   UNL     1      33.514  -4.298  15.056  0.00  0.00    +0.000 A 
ATOM     30  C   UNL     1      33.711  -5.655  15.100  0.00  0.00    +0.000 A 
ATOM     31  C   UNL     1      34.877  -6.134  15.625  0.00  0.00    +0.000 A 
ATOM     32  C   UNL     1      35.834  -5.306  16.096  0.00  0.00    +0.000 A 
ENDBRANCH  26  27
ENDBRANCH   2  26
TORSDOF 8
ENDMDL
MODEL 6
REMARK VINA RESULT:      -6.7      1.187      2.096
REMARK  Name = 
REMARK  8 active torsions:
REMARK  status: ('A' for Active; 'I' for Inactive)
REMARK    1  A    between atoms: C_2  and  O_3
REMARK    2  A    between atoms: O_3  and  C_4
REMARK    3  A    between atoms: C_9  and  N_10
REMARK    4  A    between atoms: N_10  and  C_11
REMARK    5  A    between atoms: C_12  and  S_13
REMARK    6  A    between atoms: S_13  and  C_14
REMARK    7  A    between atoms: N_22  and  C_23
REMARK    8  A    between atoms: C_26  and  O_27
REMARK                            x       y       z     vdW  Elec       q    Type
REMARK                         _______ _______ _______ _____ _____    ______ ____
ROOT
ATOM      1  C   UNL     1      37.565   2.003  15.059  0.00  0.00    +0.000 C 
ATOM      2  C   UNL     1      38.589   2.387  14.278  0.00  0.00    +0.000 C 
ATOM      3  C   UNL     1      39.100   3.626  14.826  0.00  0.00    +0.000 C 
ATOM      4  O   UNL     1      40.048   4.363  14.446  0.00  0.00    +0.000 OA
ATOM      5  N   UNL     1      38.332   3.977  15.982  0.00  0.00    +0.000 N 
ATOM      6  C   UNL     1      37.371   2.952  16.119  0.00  0.00    +0.000 C 
ATOM      7  O   UNL     1      36.502   2.933  17.056  0.00  0.00    +0.000 OA
ENDROOT
BRANCH   5   8
ATOM      8  C   UNL     1      38.475   5.100  16.827  0.00  0.00    +0.000 A 
ATOM      9  C   UNL     1      38.981   4.962  18.103  0.00  0.00    +0.000 A 
ATOM     10  C   UNL     1      39.112   6.069  18.914  0.00  0.00    +0.000 A 
ATOM     11  C   UNL     1      38.751   7.335  18.496  0.00  0.00    +0.000 A 
ATOM     12  C   UNL     1      38.249   7.449  17.221  0.00  0.00    +0.000 A 
ATOM     13  C   UNL     1      38.112   6.360  16.402  0.00  0.00    +0.000 A 
BRANCH  11  14
ATOM     14  O   UNL     1      38.891   8.456  19.333  0.00  0.00    +0.000 OA
ATOM     15  C   UNL     1      38.787   8.303  20.725  0.00  0.00    +0.000 C 
ENDBRANCH  11  14
ENDBRANCH   5   8
BRANCH   1  16
ATOM     16  N   UNL     1      36.794   0.839  14.863  0.00  0.00    +0.000 NA
BRANCH  16  22
ATOM     17  C   UNL     1      37.323  -0.912  16.457  0.00  0.00    +0.000 A 
ATOM     18  C   UNL     1      36.897  -1.796  17.436  0.00  0.00    +0.000 A 
ATOM     19  C   UNL     1      35.587  -1.862  17.829  0.00  0.00    +0.000 A 
ATOM     20  C   UNL     1      34.683  -1.017  17.222  0.00  0.00    +0.000 A 
ATOM     21  C   UNL     1      35.114  -0.149  16.258  0.00  0.00    +0.000 A 
ATOM     22  C   UNL     1      36.421  -0.071  15.853  0.00  0.00    +0.000 A 
BRANCH  17  23
ATOM     23  O   UNL     1      38.671  -0.919  16.126  0.00  0.00    +0.000 OA
BRANCH  23  25
ATOM     24  C   UNL     1      38.794  -2.851  14.668  0.00  0.00    +0.000 C 
ATOM     25  C   UNL     1      39.360  -2.099  15.824  0.00  0.00    +0.000 C 
ENDBRANCH  23  25
ENDBRANCH  17  23
ENDBRANCH  16  22
ENDBRANCH   1  16
BRANCH   2  26
ATOM     26  S   UNL     1      39.189   1.537  12.862  0.00  0.00    +0.000 S 
BRANCH  26  27
ATOM     27  C   UNL     1      40.449   0.358  13.121  0.00  0.00    +0.000 A 
ATOM     28  C   UNL     1      41.429   0.346  14.062  0.00  0.00    +0.000 A 
ATOM     29  C   UNL     1      42.370  -0.650  14.161  0.00  0.00    +0.000 A 
ATOM     30  C   UNL     1      42.337  -1.696  13.274  0.00  0.00    +0.000 A 
ATOM     31  C   UNL     1      41.365  -1.714  12.315  0.00  0.00    +0.000 A 
ATOM     32  C   UNL     1      40.442  -0.732  12.224  0.00  0.00    +0.000 A 
ENDBRANCH  26  27
ENDBRANCH   2  26
TORSDOF 8
ENDMDL
MODEL 7
REMARK VINA RESULT:      -6.7      3.484      7.170
REMARK  Name = 
REMARK  8 active torsions:
REMARK  status: ('A' for Active; 'I' for Inactive)
REMARK    1  A    between atoms: C_2  and  O_3
REMARK    2  A    between atoms: O_3  and  C_4
REMARK    3  A    between atoms: C_9  and  N_10
REMARK    4  A    between atoms: N_10  and  C_11
REMARK    5  A    between atoms: C_12  and  S_13
REMARK    6  A    between atoms: S_13  and  C_14
REMARK    7  A    between atoms: N_22  and  C_23
REMARK    8  A    between atoms: C_26  and  O_27
REMARK                            x       y       z     vdW  Elec       q    Type
REMARK                         _______ _______ _______ _____ _____    ______ ____
ROOT
ATOM      1  C   UNL     1      38.631  -1.956  14.849  0.00  0.00    +0.000 C 
ATOM      2  C   UNL     1      38.579  -1.047  13.861  0.00  0.00    +0.000 C 
ATOM      3  C   UNL     1      39.915  -0.936  13.314  0.00  0.00    +0.000 C 
ATOM      4  O   UNL     1      40.364  -0.220  12.380  0.00  0.00    +0.000 OA
ATOM      5  N   UNL     1      40.785  -1.825  14.023  0.00  0.00    +0.000 N 
ATOM      6  C   UNL     1      39.969  -2.461  14.985  0.00  0.00    +0.000 C 
ATOM      7  O   UNL     1      40.411  -3.332  15.807  0.00  0.00    +0.000 OA
ENDROOT
BRANCH   5   8
ATOM      8  C   UNL     1      42.167  -2.046  13.831  0.00  0.00    +0.000 A 
ATOM      9  C   UNL     1      42.611  -2.977  12.915  0.00  0.00    +0.000 A 
ATOM     10  C   UNL     1      43.963  -3.180  12.742  0.00  0.00    +0.000 A 
ATOM     11  C   UNL     1      44.911  -2.477  13.460  0.00  0.00    +0.000 A 
ATOM     12  C   UNL     1      44.446  -1.555  14.367  0.00  0.00    +0.000 A 
ATOM     13  C   UNL     1      43.106  -1.341  14.551  0.00  0.00    +0.000 A 
BRANCH  11  14
ATOM     14  O   UNL     1      46.288  -2.694  13.273  0.00  0.00    +0.000 OA
ATOM     15  C   UNL     1      47.192  -1.636  13.461  0.00  0.00    +0.000 C 
ENDBRANCH  11  14
ENDBRANCH   5   8
BRANCH   1  16
ATOM     16  N   UNL     1      37.532  -2.353  15.638  0.00  0.00    +0.000 NA
BRANCH  16  22
ATOM     17  C   UNL     1      37.636  -1.814  18.000  0.00  0.00    +0.000 A 
ATOM     18  C   UNL     1      37.117  -1.128  19.087  0.00  0.00    +0.000 A 
ATOM     19  C   UNL     1      36.021  -0.314  18.970  0.00  0.00    +0.000 A 
ATOM     20  C   UNL     1      35.435  -0.188  17.730  0.00  0.00    +0.000 A 
ATOM     21  C   UNL     1      35.956  -0.869  16.665  0.00  0.00    +0.000 A 
ATOM     22  C   UNL     1      37.050  -1.687  16.765  0.00  0.00    +0.000 A 
BRANCH  17  23
ATOM     23  O   UNL     1      38.749  -2.615  18.217  0.00  0.00    +0.000 OA
BRANCH  23  25
ATOM     24  C   UNL     1      38.353  -4.989  17.930  0.00  0.00    +0.000 C 
ATOM     25  C   UNL     1      38.661  -3.859  18.852  0.00  0.00    +0.000 C 
ENDBRANCH  23  25
ENDBRANCH  17  23
ENDBRANCH  16  22
ENDBRANCH   1  16
BRANCH   2  26
ATOM     26  S   UNL     1      37.152  -0.165  13.336  0.00  0.00    +0.000 S 
BRANCH  26  27
ATOM     27  C   UNL     1      36.749   1.286  14.217  0.00  0.00    +0.000 A 
ATOM     28  C   UNL     1      35.546   1.905  14.341  0.00  0.00    +0.000 A 
ATOM     29  C   UNL     1      35.358   3.054  15.069  0.00  0.00    +0.000 A 
ATOM     30  C   UNL     1      36.428   3.623  15.714  0.00  0.00    +0.000 A 
ATOM     31  C   UNL     1      37.651   3.026  15.610  0.00  0.00    +0.000 A 
ATOM     32  C   UNL     1      37.829   1.896  14.892  0.00  0.00    +0.000 A 
ENDBRANCH  26  27
ENDBRANCH   2  26
TORSDOF 8
ENDMDL
MODEL 8
REMARK VINA RESULT:      -6.6      3.348      8.494
REMARK  Name = 
REMARK  8 active torsions:
REMARK  status: ('A' for Active; 'I' for Inactive)
REMARK    1  A    between atoms: C_2  and  O_3
REMARK    2  A    between atoms: O_3  and  C_4
REMARK    3  A    between atoms: C_9  and  N_10
REMARK    4  A    between atoms: N_10  and  C_11
REMARK    5  A    between atoms: C_12  and  S_13
REMARK    6  A    between atoms: S_13  and  C_14
REMARK    7  A    between atoms: N_22  and  C_23
REMARK    8  A    between atoms: C_26  and  O_27
REMARK                            x       y       z     vdW  Elec       q    Type
REMARK                         _______ _______ _______ _____ _____    ______ ____
ROOT
ATOM      1  C   UNL     1      37.912   5.706  16.113  0.00  0.00    +0.000 C 
ATOM      2  C   UNL     1      37.190   5.861  14.991  0.00  0.00    +0.000 C 
ATOM      3  C   UNL     1      36.508   4.606  14.747  0.00  0.00    +0.000 C 
ATOM      4  O   UNL     1      35.721   4.264  13.825  0.00  0.00    +0.000 OA
ATOM      5  N   UNL     1      36.855   3.678  15.781  0.00  0.00    +0.000 N 
ATOM      6  C   UNL     1      37.737   4.378  16.633  0.00  0.00    +0.000 C 
ATOM      7  O   UNL     1      38.257   3.857  17.677  0.00  0.00    +0.000 OA
ENDROOT
BRANCH   5   8
ATOM      8  C   UNL     1      36.427   2.342  15.946  0.00  0.00    +0.000 A 
ATOM      9  C   UNL     1      35.293   2.050  16.675  0.00  0.00    +0.000 A 
ATOM     10  C   UNL     1      34.892   0.740  16.826  0.00  0.00    +0.000 A 
ATOM     11  C   UNL     1      35.590  -0.313  16.268  0.00  0.00    +0.000 A 
ATOM     12  C   UNL     1      36.717   0.001  15.545  0.00  0.00    +0.000 A 
ATOM     13  C   UNL     1      37.129   1.298  15.385  0.00  0.00    +0.000 A 
BRANCH  11  14
ATOM     14  O   UNL     1      35.170  -1.645  16.429  0.00  0.00    +0.000 OA
ATOM     15  C   UNL     1      34.069  -1.934  17.251  0.00  0.00    +0.000 C 
ENDBRANCH  11  14
ENDBRANCH   5   8
BRANCH   1  16
ATOM     16  N   UNL     1      38.725   6.702  16.692  0.00  0.00    +0.000 NA
BRANCH  16  22
ATOM     17  C   UNL     1      39.360   7.045  19.008  0.00  0.00    +0.000 A 
ATOM     18  C   UNL     1      39.120   7.658  20.228  0.00  0.00    +0.000 A 
ATOM     19  C   UNL     1      38.067   8.515  20.411  0.00  0.00    +0.000 A 
ATOM     20  C   UNL     1      37.236   8.761  19.339  0.00  0.00    +0.000 A 
ATOM     21  C   UNL     1      37.482   8.151  18.141  0.00  0.00    +0.000 A 
ATOM     22  C   UNL     1      38.530   7.291  17.942  0.00  0.00    +0.000 A 
BRANCH  17  23
ATOM     23  O   UNL     1      40.451   6.192  18.921  0.00  0.00    +0.000 OA
BRANCH  23  25
ATOM     24  C   UNL     1      42.269   6.213  20.525  0.00  0.00    +0.000 C 
ATOM     25  C   UNL     1      41.757   6.621  19.186  0.00  0.00    +0.000 C 
ENDBRANCH  23  25
ENDBRANCH  17  23
ENDBRANCH  16  22
ENDBRANCH   1  16
BRANCH   2  26
ATOM     26  S   UNL     1      37.094   7.316  14.011  0.00  0.00    +0.000 S 
BRANCH  26  27
ATOM     27  C   UNL     1      35.937   7.317  12.705  0.00  0.00    +0.000 A 
ATOM     28  C   UNL     1      34.580   7.378  12.765  0.00  0.00    +0.000 A 
ATOM     29  C   UNL     1      33.774   7.371  11.653  0.00  0.00    +0.000 A 
ATOM     30  C   UNL     1      34.347   7.300  10.408  0.00  0.00    +0.000 A 
ATOM     31  C   UNL     1      35.707   7.238  10.314  0.00  0.00    +0.000 A 
ATOM     32  C   UNL     1      36.495   7.245  11.411  0.00  0.00    +0.000 A 
ENDBRANCH  26  27
ENDBRANCH   2  26
TORSDOF 8
ENDMDL
MODEL 9
REMARK VINA RESULT:      -6.6     24.306     27.895
REMARK  Name = 
REMARK  8 active torsions:
REMARK  status: ('A' for Active; 'I' for Inactive)
REMARK    1  A    between atoms: C_2  and  O_3
REMARK    2  A    between atoms: O_3  and  C_4
REMARK    3  A    between atoms: C_9  and  N_10
REMARK    4  A    between atoms: N_10  and  C_11
REMARK    5  A    between atoms: C_12  and  S_13
REMARK    6  A    between atoms: S_13  and  C_14
REMARK    7  A    between atoms: N_22  and  C_23
REMARK    8  A    between atoms: C_26  and  O_27
REMARK                            x       y       z     vdW  Elec       q    Type
REMARK                         _______ _______ _______ _____ _____    ______ ____
ROOT
ATOM      1  C   UNL     1      12.742  -0.247  27.696  0.00  0.00    +0.000 C 
ATOM      2  C   UNL     1      13.369   0.022  28.853  0.00  0.00    +0.000 C 
ATOM      3  C   UNL     1      14.780   0.149  28.554  0.00  0.00    +0.000 C 
ATOM      4  O   UNL     1      15.761   0.396  29.304  0.00  0.00    +0.000 OA
ATOM      5  N   UNL     1      14.980  -0.058  27.152  0.00  0.00    +0.000 N 
ATOM      6  C   UNL     1      13.694  -0.307  26.622  0.00  0.00    +0.000 C 
ATOM      7  O   UNL     1      13.484  -0.538  25.384  0.00  0.00    +0.000 OA
ENDROOT
BRANCH   5   8
ATOM      8  C   UNL     1      16.188  -0.030  26.419  0.00  0.00    +0.000 A 
ATOM      9  C   UNL     1      16.761  -1.197  25.961  0.00  0.00    +0.000 A 
ATOM     10  C   UNL     1      17.941  -1.150  25.249  0.00  0.00    +0.000 A 
ATOM     11  C   UNL     1      18.585   0.040  24.969  0.00  0.00    +0.000 A 
ATOM     12  C   UNL     1      17.995   1.191  25.435  0.00  0.00    +0.000 A 
ATOM     13  C   UNL     1      16.823   1.161  26.144  0.00  0.00    +0.000 A 
BRANCH  11  14
ATOM     14  O   UNL     1      19.787   0.074  24.241  0.00  0.00    +0.000 OA
ATOM     15  C   UNL     1      20.202   1.271  23.636  0.00  0.00    +0.000 C 
ENDBRANCH  11  14
ENDBRANCH   5   8
BRANCH   1  16
ATOM     16  N   UNL     1      11.353  -0.443  27.558  0.00  0.00    +0.000 NA
BRANCH  16  22
ATOM     17  C   UNL     1      10.261   1.568  26.753  0.00  0.00    +0.000 A 
ATOM     18  C   UNL     1       9.424   2.179  25.833  0.00  0.00    +0.000 A 
ATOM     19  C   UNL     1       8.833   1.475  24.817  0.00  0.00    +0.000 A 
ATOM     20  C   UNL     1       9.093   0.125  24.725  0.00  0.00    +0.000 A 
ATOM     21  C   UNL     1       9.920  -0.466  25.637  0.00  0.00    +0.000 A 
ATOM     22  C   UNL     1      10.518   0.222  26.660  0.00  0.00    +0.000 A 
BRANCH  17  23
ATOM     23  O   UNL     1      10.813   2.364  27.748  0.00  0.00    +0.000 OA
BRANCH  23  25
ATOM     24  C   UNL     1      12.199   4.257  27.140  0.00  0.00    +0.000 C 
ATOM     25  C   UNL     1      10.885   3.757  27.636  0.00  0.00    +0.000 C 
ENDBRANCH  23  25
ENDBRANCH  17  23
ENDBRANCH  16  22
ENDBRANCH   1  16
BRANCH   2  26
ATOM     26  S   UNL     1      12.610   0.190  30.430  0.00  0.00    +0.000 S 
BRANCH  26  27
ATOM     27  C   UNL     1      13.647   0.054  31.826  0.00  0.00    +0.000 A 
ATOM     28  C   UNL     1      14.245  -1.052  32.343  0.00  0.00    +0.000 A 
ATOM     29  C   UNL     1      15.045  -1.026  33.459  0.00  0.00    +0.000 A 
ATOM     30  C   UNL     1      15.267   0.167  34.100  0.00  0.00    +0.000 A 
ATOM     31  C   UNL     1      14.680   1.296  33.606  0.00  0.00    +0.000 A 
ATOM     32  C   UNL     1      13.894   1.265  32.508  0.00  0.00    +0.000 A 
ENDBRANCH  26  27
ENDBRANCH   2  26
TORSDOF 8
ENDMDL
MODEL 10
REMARK VINA RESULT:      -6.6      1.755      4.092
REMARK  Name = 
REMARK  8 active torsions:
REMARK  status: ('A' for Active; 'I' for Inactive)
REMARK    1  A    between atoms: C_2  and  O_3
REMARK    2  A    between atoms: O_3  and  C_4
REMARK    3  A    between atoms: C_9  and  N_10
REMARK    4  A    between atoms: N_10  and  C_11
REMARK    5  A    between atoms: C_12  and  S_13
REMARK    6  A    between atoms: S_13  and  C_14
REMARK    7  A    between atoms: N_22  and  C_23
REMARK    8  A    between atoms: C_26  and  O_27
REMARK                            x       y       z     vdW  Elec       q    Type
REMARK                         _______ _______ _______ _____ _____    ______ ____
ROOT
ATOM      1  C   UNL     1      38.552   2.479  14.411  0.00  0.00    +0.000 C 
ATOM      2  C   UNL     1      37.379   2.144  14.976  0.00  0.00    +0.000 C 
ATOM      3  C   UNL     1      37.123   3.107  16.027  0.00  0.00    +0.000 C 
ATOM      4  O   UNL     1      36.158   3.210  16.830  0.00  0.00    +0.000 OA
ATOM      5  N   UNL     1      38.202   4.046  16.072  0.00  0.00    +0.000 N 
ATOM      6  C   UNL     1      39.094   3.643  15.054  0.00  0.00    +0.000 C 
ATOM      7  O   UNL     1      40.185   4.257  14.800  0.00  0.00    +0.000 OA
ENDROOT
BRANCH   5   8
ATOM      8  C   UNL     1      38.374   5.151  16.937  0.00  0.00    +0.000 A 
ATOM      9  C   UNL     1      38.011   6.420  16.537  0.00  0.00    +0.000 A 
ATOM     10  C   UNL     1      38.187   7.486  17.394  0.00  0.00    +0.000 A 
ATOM     11  C   UNL     1      38.721   7.334  18.659  0.00  0.00    +0.000 A 
ATOM     12  C   UNL     1      39.076   6.060  19.035  0.00  0.00    +0.000 A 
ATOM     13  C   UNL     1      38.908   4.990  18.196  0.00  0.00    +0.000 A 
BRANCH  11  14
ATOM     14  O   UNL     1      38.895   8.430  19.522  0.00  0.00    +0.000 OA
ATOM     15  C   UNL     1      37.862   8.796  20.400  0.00  0.00    +0.000 C 
ENDBRANCH  11  14
ENDBRANCH   5   8
BRANCH   1  16
ATOM     16  N   UNL     1      39.159   1.787  13.344  0.00  0.00    +0.000 NA
BRANCH  16  22
ATOM     17  C   UNL     1      40.589  -0.102  13.867  0.00  0.00    +0.000 A 
ATOM     18  C   UNL     1      41.854  -0.669  13.875  0.00  0.00    +0.000 A 
ATOM     19  C   UNL     1      42.950   0.005  13.402  0.00  0.00    +0.000 A 
ATOM     20  C   UNL     1      42.767   1.278  12.909  0.00  0.00    +0.000 A 
ATOM     21  C   UNL     1      41.515   1.827  12.906  0.00  0.00    +0.000 A 
ATOM     22  C   UNL     1      40.409   1.168  13.376  0.00  0.00    +0.000 A 
BRANCH  17  23
ATOM     23  O   UNL     1      39.541  -0.862  14.368  0.00  0.00    +0.000 OA
BRANCH  23  25
ATOM     24  C   UNL     1      39.516  -2.930  15.631  0.00  0.00    +0.000 C 
ATOM     25  C   UNL     1      39.581  -1.441  15.641  0.00  0.00    +0.000 C 
ENDBRANCH  23  25
ENDBRANCH  17  23
ENDBRANCH  16  22
ENDBRANCH   1  16
BRANCH   2  26
ATOM     26  S   UNL     1      36.356   0.791  14.517  0.00  0.00    +0.000 S 
BRANCH  26  27
ATOM     27  C   UNL     1      36.167  -0.491  15.685  0.00  0.00    +0.000 A 
ATOM     28  C   UNL     1      36.202  -0.423  17.042  0.00  0.00    +0.000 A 
ATOM     29  C   UNL     1      36.039  -1.517  17.858  0.00  0.00    +0.000 A 
ATOM     30  C   UNL     1      35.827  -2.750  17.294  0.00  0.00    +0.000 A 
ATOM     31  C   UNL     1      35.787  -2.852  15.933  0.00  0.00    +0.000 A 
ATOM     32  C   UNL     1      35.948  -1.773  15.137  0.00  0.00    +0.000 A 
ENDBRANCH  26  27
ENDBRANCH   2  26
TORSDOF 8
ENDMDL
