MODEL 1
REMARK VINA RESULT:      -8.9      0.000      0.000
REMARK  Name = 
REMARK  8 active torsions:
REMARK  status: ('A' for Active; 'I' for Inactive)
REMARK    1  A    between atoms: C_6  and  N_7
REMARK    2  A    between atoms: C_8  and  C_10
REMARK    3  A    between atoms: C_10  and  O_11
REMARK    4  A    between atoms: O_11  and  C_12
REMARK    5  A    between atoms: C_12  and  C_14
REMARK    6  A    between atoms: C_14  and  C_15
REMARK    7  A    between atoms: C_15  and  C_16
REMARK    8  A    between atoms: C_15  and  C_22
REMARK                            x       y       z     vdW  Elec       q    Type
REMARK                         _______ _______ _______ _____ _____    ______ ____
ROOT
ATOM      1  C   UNL     1      38.713   4.433  17.516  0.00  0.00    +0.000 C 
ATOM      2  O   UNL     1      38.319   3.884  18.574  0.00  0.00    +0.000 OA
ENDROOT
BRANCH   1   3
ATOM      3  O   UNL     1      38.358   3.881  16.281  0.00  0.00    +0.000 OA
BRANCH   3   4
ATOM      4  C   UNL     1      37.035   3.680  15.884  0.00  0.00    +0.000 C 
BRANCH   4   6
ATOM      5  N   UNL     1      37.152   1.208  16.239  0.00  0.00    +0.000 NA
ATOM      6  C   UNL     1      36.768   2.291  15.439  0.00  0.00    +0.000 C 
ATOM      7  O   UNL     1      36.199   2.098  14.343  0.00  0.00    +0.000 OA
BRANCH   5  13
ATOM      8  C   UNL     1      36.408  -4.242  14.733  0.00  0.00    +0.000 C 
ATOM      9  C   UNL     1      36.572  -2.826  15.139  0.00  0.00    +0.000 A 
ATOM     10  C   UNL     1      37.719  -2.157  14.821  0.00  0.00    +0.000 A 
ATOM     11  C   UNL     1      37.902  -0.840  15.184  0.00  0.00    +0.000 A 
ATOM     12  C   UNL     1      39.192  -0.196  14.789  0.00  0.00    +0.000 C 
ATOM     13  C   UNL     1      36.930  -0.158  15.881  0.00  0.00    +0.000 A 
ATOM     14  C   UNL     1      35.773  -0.824  16.204  0.00  0.00    +0.000 A 
ATOM     15  C   UNL     1      34.705  -0.090  16.965  0.00  0.00    +0.000 C 
ATOM     16  C   UNL     1      35.601  -2.128  15.840  0.00  0.00    +0.000 A 
ENDBRANCH   5  13
ENDBRANCH   4   6
ENDBRANCH   3   4
ENDBRANCH   1   3
BRANCH   1  17
ATOM     17  C   UNL     1      39.554   5.667  17.512  0.00  0.00    +0.000 C 
BRANCH  17  18
ATOM     18  C   UNL     1      39.793   6.052  18.957  0.00  0.00    +0.000 C 
BRANCH  18  19
ATOM     19  C   UNL     1      38.963   7.218  19.354  0.00  0.00    +0.000 A 
ATOM     20  C   UNL     1      39.080   7.857  20.564  0.00  0.00    +0.000 A 
ATOM     21  C   UNL     1      38.287   8.935  20.891  0.00  0.00    +0.000 A 
ATOM     22  C   UNL     1      37.355   9.358  19.950  0.00  0.00    +0.000 A 
ATOM     23  C   UNL     1      37.205   8.748  18.731  0.00  0.00    +0.000 A 
ATOM     24  C   UNL     1      38.025   7.674  18.454  0.00  0.00    +0.000 A 
ENDBRANCH  18  19
BRANCH  18  25
ATOM     25  C   UNL     1      41.237   6.293  19.221  0.00  0.00    +0.000 A 
ATOM     26  C   UNL     1      41.687   6.102  20.509  0.00  0.00    +0.000 A 
ATOM     27  C   UNL     1      42.991   6.289  20.889  0.00  0.00    +0.000 A 
ATOM     28  C   UNL     1      43.885   6.691  19.908  0.00  0.00    +0.000 A 
ATOM     29  C   UNL     1      43.441   6.888  18.594  0.00  0.00    +0.000 A 
ATOM     30  C   UNL     1      42.117   6.691  18.244  0.00  0.00    +0.000 A 
ENDBRANCH  18  25
ENDBRANCH  17  18
ENDBRANCH   1  17
TORSDOF 8
ENDMDL
MODEL 2
REMARK VINA RESULT:      -8.5      1.147      3.597
REMARK  Name = 
REMARK  8 active torsions:
REMARK  status: ('A' for Active; 'I' for Inactive)
REMARK    1  A    between atoms: C_6  and  N_7
REMARK    2  A    between atoms: C_8  and  C_10
REMARK    3  A    between atoms: C_10  and  O_11
REMARK    4  A    between atoms: O_11  and  C_12
REMARK    5  A    between atoms: C_12  and  C_14
REMARK    6  A    between atoms: C_14  and  C_15
REMARK    7  A    between atoms: C_15  and  C_16
REMARK    8  A    between atoms: C_15  and  C_22
REMARK                            x       y       z     vdW  Elec       q    Type
REMARK                         _______ _______ _______ _____ _____    ______ ____
ROOT
ATOM      1  C   UNL     1      38.866   4.765  17.465  0.00  0.00    +0.000 C 
ATOM      2  O   UNL     1      39.414   5.084  16.381  0.00  0.00    +0.000 OA
ENDROOT
BRANCH   1   3
ATOM      3  O   UNL     1      37.853   3.800  17.466  0.00  0.00    +0.000 OA
BRANCH   3   4
ATOM      4  C   UNL     1      36.808   3.787  16.542  0.00  0.00    +0.000 C 
BRANCH   4   6
ATOM      5  N   UNL     1      36.951   1.292  16.520  0.00  0.00    +0.000 NA
ATOM      6  C   UNL     1      36.178   2.453  16.397  0.00  0.00    +0.000 C 
ATOM      7  O   UNL     1      34.952   2.376  16.165  0.00  0.00    +0.000 OA
BRANCH   5  13
ATOM      8  C   UNL     1      34.862  -3.974  15.863  0.00  0.00    +0.000 C 
ATOM      9  C   UNL     1      35.397  -2.607  16.065  0.00  0.00    +0.000 A 
ATOM     10  C   UNL     1      35.956  -1.934  15.017  0.00  0.00    +0.000 A 
ATOM     11  C   UNL     1      36.462  -0.662  15.173  0.00  0.00    +0.000 A 
ATOM     12  C   UNL     1      37.053  -0.010  13.964  0.00  0.00    +0.000 C 
ATOM     13  C   UNL     1      36.419  -0.029  16.395  0.00  0.00    +0.000 A 
ATOM     14  C   UNL     1      35.857  -0.699  17.455  0.00  0.00    +0.000 A 
ATOM     15  C   UNL     1      35.805  -0.019  18.793  0.00  0.00    +0.000 C 
ATOM     16  C   UNL     1      35.359  -1.958  17.291  0.00  0.00    +0.000 A 
ENDBRANCH   5  13
ENDBRANCH   4   6
ENDBRANCH   3   4
ENDBRANCH   1   3
BRANCH   1  17
ATOM     17  C   UNL     1      39.251   5.373  18.773  0.00  0.00    +0.000 C 
BRANCH  17  18
ATOM     18  C   UNL     1      39.996   6.656  18.471  0.00  0.00    +0.000 C 
BRANCH  18  19
ATOM     19  C   UNL     1      41.379   6.623  19.010  0.00  0.00    +0.000 A 
ATOM     20  C   UNL     1      42.493   6.921  18.264  0.00  0.00    +0.000 A 
ATOM     21  C   UNL     1      43.758   6.875  18.807  0.00  0.00    +0.000 A 
ATOM     22  C   UNL     1      43.873   6.515  20.144  0.00  0.00    +0.000 A 
ATOM     23  C   UNL     1      42.788   6.210  20.925  0.00  0.00    +0.000 A 
ATOM     24  C   UNL     1      41.543   6.271  20.333  0.00  0.00    +0.000 A 
ENDBRANCH  18  19
BRANCH  18  25
ATOM     25  C   UNL     1      39.246   7.845  18.958  0.00  0.00    +0.000 A 
ATOM     26  C   UNL     1      39.151   8.926  18.110  0.00  0.00    +0.000 A 
ATOM     27  C   UNL     1      38.491  10.084  18.433  0.00  0.00    +0.000 A 
ATOM     28  C   UNL     1      37.895  10.145  19.684  0.00  0.00    +0.000 A 
ATOM     29  C   UNL     1      37.984   9.052  20.556  0.00  0.00    +0.000 A 
ATOM     30  C   UNL     1      38.659   7.899  20.199  0.00  0.00    +0.000 A 
ENDBRANCH  18  25
ENDBRANCH  17  18
ENDBRANCH   1  17
TORSDOF 8
ENDMDL
MODEL 3
REMARK VINA RESULT:      -8.1      1.066      3.781
REMARK  Name = 
REMARK  8 active torsions:
REMARK  status: ('A' for Active; 'I' for Inactive)
REMARK    1  A    between atoms: C_6  and  N_7
REMARK    2  A    between atoms: C_8  and  C_10
REMARK    3  A    between atoms: C_10  and  O_11
REMARK    4  A    between atoms: O_11  and  C_12
REMARK    5  A    between atoms: C_12  and  C_14
REMARK    6  A    between atoms: C_14  and  C_15
REMARK    7  A    between atoms: C_15  and  C_16
REMARK    8  A    between atoms: C_15  and  C_22
REMARK                            x       y       z     vdW  Elec       q    Type
REMARK                         _______ _______ _______ _____ _____    ______ ____
ROOT
ATOM      1  C   UNL     1      39.468   5.255  17.159  0.00  0.00    +0.000 C 
ATOM      2  O   UNL     1      40.084   5.828  16.227  0.00  0.00    +0.000 OA
ENDROOT
BRANCH   1   3
ATOM      3  O   UNL     1      38.531   4.262  16.856  0.00  0.00    +0.000 OA
BRANCH   3   4
ATOM      4  C   UNL     1      37.700   4.310  15.736  0.00  0.00    +0.000 C 
BRANCH   4   6
ATOM      5  N   UNL     1      37.499   1.845  16.100  0.00  0.00    +0.000 NA
ATOM      6  C   UNL     1      37.186   2.978  15.338  0.00  0.00    +0.000 C 
ATOM      7  O   UNL     1      36.471   2.876  14.318  0.00  0.00    +0.000 OA
BRANCH   5  13
ATOM      8  C   UNL     1      35.549  -3.386  14.933  0.00  0.00    +0.000 C 
ATOM      9  C   UNL     1      36.081  -2.032  15.217  0.00  0.00    +0.000 A 
ATOM     10  C   UNL     1      35.375  -1.178  16.014  0.00  0.00    +0.000 A 
ATOM     11  C   UNL     1      35.843   0.087  16.297  0.00  0.00    +0.000 A 
ATOM     12  C   UNL     1      34.996   0.947  17.180  0.00  0.00    +0.000 C 
ATOM     13  C   UNL     1      37.042   0.528  15.783  0.00  0.00    +0.000 A 
ATOM     14  C   UNL     1      37.760  -0.326  14.981  0.00  0.00    +0.000 A 
ATOM     15  C   UNL     1      39.069   0.145  14.414  0.00  0.00    +0.000 C 
ATOM     16  C   UNL     1      37.287  -1.576  14.706  0.00  0.00    +0.000 A 
ENDBRANCH   5  13
ENDBRANCH   4   6
ENDBRANCH   3   4
ENDBRANCH   1   3
BRANCH   1  17
ATOM     17  C   UNL     1      39.693   5.586  18.598  0.00  0.00    +0.000 C 
BRANCH  17  18
ATOM     18  C   UNL     1      40.486   6.874  18.644  0.00  0.00    +0.000 C 
BRANCH  18  19
ATOM     19  C   UNL     1      41.805   6.680  19.299  0.00  0.00    +0.000 A 
ATOM     20  C   UNL     1      41.953   6.259  20.598  0.00  0.00    +0.000 A 
ATOM     21  C   UNL     1      43.197   6.094  21.166  0.00  0.00    +0.000 A 
ATOM     22  C   UNL     1      44.307   6.369  20.377  0.00  0.00    +0.000 A 
ATOM     23  C   UNL     1      44.205   6.792  19.076  0.00  0.00    +0.000 A 
ATOM     24  C   UNL     1      42.935   6.941  18.556  0.00  0.00    +0.000 A 
ENDBRANCH  18  19
BRANCH  18  25
ATOM     25  C   UNL     1      39.710   7.966  19.291  0.00  0.00    +0.000 A 
ATOM     26  C   UNL     1      40.207   9.246  19.187  0.00  0.00    +0.000 A 
ATOM     27  C   UNL     1      39.592  10.342  19.736  0.00  0.00    +0.000 A 
ATOM     28  C   UNL     1      38.409  10.125  20.426  0.00  0.00    +0.000 A 
ATOM     29  C   UNL     1      37.892   8.827  20.538  0.00  0.00    +0.000 A 
ATOM     30  C   UNL     1      38.538   7.743  19.973  0.00  0.00    +0.000 A 
ENDBRANCH  18  25
ENDBRANCH  17  18
ENDBRANCH   1  17
TORSDOF 8
ENDMDL
MODEL 4
REMARK VINA RESULT:      -7.9      1.799      2.748
REMARK  Name = 
REMARK  8 active torsions:
REMARK  status: ('A' for Active; 'I' for Inactive)
REMARK    1  A    between atoms: C_6  and  N_7
REMARK    2  A    between atoms: C_8  and  C_10
REMARK    3  A    between atoms: C_10  and  O_11
REMARK    4  A    between atoms: O_11  and  C_12
REMARK    5  A    between atoms: C_12  and  C_14
REMARK    6  A    between atoms: C_14  and  C_15
REMARK    7  A    between atoms: C_15  and  C_16
REMARK    8  A    between atoms: C_15  and  C_22
REMARK                            x       y       z     vdW  Elec       q    Type
REMARK                         _______ _______ _______ _____ _____    ______ ____
ROOT
ATOM      1  C   UNL     1      38.208   4.162  17.350  0.00  0.00    +0.000 C 
ATOM      2  O   UNL     1      38.089   3.651  18.490  0.00  0.00    +0.000 OA
ENDROOT
BRANCH   1   3
ATOM      3  O   UNL     1      37.921   3.392  16.218  0.00  0.00    +0.000 OA
BRANCH   3   4
ATOM      4  C   UNL     1      36.987   2.355  16.215  0.00  0.00    +0.000 C 
BRANCH   4   6
ATOM      5  N   UNL     1      38.618   1.077  14.816  0.00  0.00    +0.000 NA
ATOM      6  C   UNL     1      37.296   1.300  15.220  0.00  0.00    +0.000 C 
ATOM      7  O   UNL     1      36.366   0.611  14.747  0.00  0.00    +0.000 OA
BRANCH   5  13
ATOM      8  C   UNL     1      40.102  -2.794  10.900  0.00  0.00    +0.000 C 
ATOM      9  C   UNL     1      39.722  -1.811  11.941  0.00  0.00    +0.000 A 
ATOM     10  C   UNL     1      39.382  -0.538  11.581  0.00  0.00    +0.000 A 
ATOM     11  C   UNL     1      39.024   0.400  12.526  0.00  0.00    +0.000 A 
ATOM     12  C   UNL     1      38.669   1.766  12.030  0.00  0.00    +0.000 C 
ATOM     13  C   UNL     1      38.997   0.080  13.865  0.00  0.00    +0.000 A 
ATOM     14  C   UNL     1      39.337  -1.198  14.235  0.00  0.00    +0.000 A 
ATOM     15  C   UNL     1      39.312  -1.559  15.693  0.00  0.00    +0.000 C 
ATOM     16  C   UNL     1      39.691  -2.120  13.293  0.00  0.00    +0.000 A 
ENDBRANCH   5  13
ENDBRANCH   4   6
ENDBRANCH   3   4
ENDBRANCH   1   3
BRANCH   1  17
ATOM     17  C   UNL     1      38.647   5.573  17.139  0.00  0.00    +0.000 C 
BRANCH  17  18
ATOM     18  C   UNL     1      39.495   5.963  18.332  0.00  0.00    +0.000 C 
BRANCH  18  19
ATOM     19  C   UNL     1      38.884   7.081  19.093  0.00  0.00    +0.000 A 
ATOM     20  C   UNL     1      39.303   7.468  20.343  0.00  0.00    +0.000 A 
ATOM     21  C   UNL     1      38.704   8.512  21.013  0.00  0.00    +0.000 A 
ATOM     22  C   UNL     1      37.654   9.167  20.381  0.00  0.00    +0.000 A 
ATOM     23  C   UNL     1      37.204   8.813  19.135  0.00  0.00    +0.000 A 
ATOM     24  C   UNL     1      37.839   7.761  18.506  0.00  0.00    +0.000 A 
ENDBRANCH  18  19
BRANCH  18  25
ATOM     25  C   UNL     1      40.891   6.276  17.924  0.00  0.00    +0.000 A 
ATOM     26  C   UNL     1      41.163   6.323  16.575  0.00  0.00    +0.000 A 
ATOM     27  C   UNL     1      42.405   6.600  16.063  0.00  0.00    +0.000 A 
ATOM     28  C   UNL     1      43.424   6.842  16.972  0.00  0.00    +0.000 A 
ATOM     29  C   UNL     1      43.161   6.798  18.348  0.00  0.00    +0.000 A 
ATOM     30  C   UNL     1      41.896   6.515  18.830  0.00  0.00    +0.000 A 
ENDBRANCH  18  25
ENDBRANCH  17  18
ENDBRANCH   1  17
TORSDOF 8
ENDMDL
MODEL 5
REMARK VINA RESULT:      -7.9     21.299     24.137
REMARK  Name = 
REMARK  8 active torsions:
REMARK  status: ('A' for Active; 'I' for Inactive)
REMARK    1  A    between atoms: C_6  and  N_7
REMARK    2  A    between atoms: C_8  and  C_10
REMARK    3  A    between atoms: C_10  and  O_11
REMARK    4  A    between atoms: O_11  and  C_12
REMARK    5  A    between atoms: C_12  and  C_14
REMARK    6  A    between atoms: C_14  and  C_15
REMARK    7  A    between atoms: C_15  and  C_16
REMARK    8  A    between atoms: C_15  and  C_22
REMARK                            x       y       z     vdW  Elec       q    Type
REMARK                         _______ _______ _______ _____ _____    ______ ____
ROOT
ATOM      1  C   UNL     1      29.317  16.421  35.121  0.00  0.00    +0.000 C 
ATOM      2  O   UNL     1      29.256  17.662  35.299  0.00  0.00    +0.000 OA
ENDROOT
BRANCH   1   3
ATOM      3  O   UNL     1      30.196  15.906  34.163  0.00  0.00    +0.000 OA
BRANCH   3   4
ATOM      4  C   UNL     1      31.568  16.163  34.166  0.00  0.00    +0.000 C 
BRANCH   4   6
ATOM      5  N   UNL     1      32.909  14.780  35.758  0.00  0.00    +0.000 NA
ATOM      6  C   UNL     1      32.382  14.964  34.474  0.00  0.00    +0.000 C 
ATOM      7  O   UNL     1      32.594  14.119  33.577  0.00  0.00    +0.000 OA
BRANCH   5  13
ATOM      8  C   UNL     1      36.203  10.351  37.194  0.00  0.00    +0.000 C 
ATOM      9  C   UNL     1      35.321  11.486  36.834  0.00  0.00    +0.000 A 
ATOM     10  C   UNL     1      35.852  12.600  36.247  0.00  0.00    +0.000 A 
ATOM     11  C   UNL     1      35.059  13.671  35.900  0.00  0.00    +0.000 A 
ATOM     12  C   UNL     1      35.735  14.843  35.262  0.00  0.00    +0.000 C 
ATOM     13  C   UNL     1      33.702  13.651  36.134  0.00  0.00    +0.000 A 
ATOM     14  C   UNL     1      33.160  12.535  36.723  0.00  0.00    +0.000 A 
ATOM     15  C   UNL     1      31.681  12.502  36.985  0.00  0.00    +0.000 C 
ATOM     16  C   UNL     1      33.954  11.479  37.064  0.00  0.00    +0.000 A 
ENDBRANCH   5  13
ENDBRANCH   4   6
ENDBRANCH   3   4
ENDBRANCH   1   3
BRANCH   1  17
ATOM     17  C   UNL     1      28.486  15.453  35.896  0.00  0.00    +0.000 C 
BRANCH  17  18
ATOM     18  C   UNL     1      27.092  16.036  35.994  0.00  0.00    +0.000 C 
BRANCH  18  19
ATOM     19  C   UNL     1      26.374  15.534  37.193  0.00  0.00    +0.000 A 
ATOM     20  C   UNL     1      25.006  15.532  37.315  0.00  0.00    +0.000 A 
ATOM     21  C   UNL     1      24.383  15.057  38.448  0.00  0.00    +0.000 A 
ATOM     22  C   UNL     1      25.188  14.577  39.473  0.00  0.00    +0.000 A 
ATOM     23  C   UNL     1      26.558  14.561  39.394  0.00  0.00    +0.000 A 
ATOM     24  C   UNL     1      27.131  15.047  38.237  0.00  0.00    +0.000 A 
ENDBRANCH  18  19
BRANCH  18  25
ATOM     25  C   UNL     1      26.315  15.792  34.749  0.00  0.00    +0.000 A 
ATOM     26  C   UNL     1      25.681  16.873  34.176  0.00  0.00    +0.000 A 
ATOM     27  C   UNL     1      24.933  16.788  33.029  0.00  0.00    +0.000 A 
ATOM     28  C   UNL     1      24.824  15.539  32.435  0.00  0.00    +0.000 A 
ATOM     29  C   UNL     1      25.464  14.433  33.009  0.00  0.00    +0.000 A 
ATOM     30  C   UNL     1      26.211  14.553  34.166  0.00  0.00    +0.000 A 
ENDBRANCH  18  25
ENDBRANCH  17  18
ENDBRANCH   1  17
TORSDOF 8
ENDMDL
MODEL 6
REMARK VINA RESULT:      -7.8      6.045      8.960
REMARK  Name = 
REMARK  8 active torsions:
REMARK  status: ('A' for Active; 'I' for Inactive)
REMARK    1  A    between atoms: C_6  and  N_7
REMARK    2  A    between atoms: C_8  and  C_10
REMARK    3  A    between atoms: C_10  and  O_11
REMARK    4  A    between atoms: O_11  and  C_12
REMARK    5  A    between atoms: C_12  and  C_14
REMARK    6  A    between atoms: C_14  and  C_15
REMARK    7  A    between atoms: C_15  and  C_16
REMARK    8  A    between atoms: C_15  and  C_22
REMARK                            x       y       z     vdW  Elec       q    Type
REMARK                         _______ _______ _______ _____ _____    ______ ____
ROOT
ATOM      1  C   UNL     1      35.931   0.621  15.603  0.00  0.00    +0.000 C 
ATOM      2  O   UNL     1      35.939   1.817  15.983  0.00  0.00    +0.000 OA
ENDROOT
BRANCH   1   3
ATOM      3  O   UNL     1      36.488   0.290  14.363  0.00  0.00    +0.000 OA
BRANCH   3   4
ATOM      4  C   UNL     1      37.406   1.101  13.695  0.00  0.00    +0.000 C 
BRANCH   4   6
ATOM      5  N   UNL     1      39.666   0.101  13.320  0.00  0.00    +0.000 NA
ATOM      6  C   UNL     1      38.806   0.864  14.120  0.00  0.00    +0.000 C 
ATOM      7  O   UNL     1      39.212   1.351  15.198  0.00  0.00    +0.000 OA
BRANCH   5  13
ATOM      8  C   UNL     1      45.051  -1.128  14.743  0.00  0.00    +0.000 C 
ATOM      9  C   UNL     1      43.662  -0.781  14.359  0.00  0.00    +0.000 A 
ATOM     10  C   UNL     1      42.644  -1.648  14.637  0.00  0.00    +0.000 A 
ATOM     11  C   UNL     1      41.342  -1.354  14.294  0.00  0.00    +0.000 A 
ATOM     12  C   UNL     1      40.299  -2.368  14.641  0.00  0.00    +0.000 C 
ATOM     13  C   UNL     1      41.028  -0.173  13.659  0.00  0.00    +0.000 A 
ATOM     14  C   UNL     1      42.046   0.705  13.377  0.00  0.00    +0.000 A 
ATOM     15  C   UNL     1      41.715   1.996  12.684  0.00  0.00    +0.000 C 
ATOM     16  C   UNL     1      43.332   0.405  13.720  0.00  0.00    +0.000 A 
ENDBRANCH   5  13
ENDBRANCH   4   6
ENDBRANCH   3   4
ENDBRANCH   1   3
BRANCH   1  17
ATOM     17  C   UNL     1      35.349  -0.483  16.422  0.00  0.00    +0.000 C 
BRANCH  17  18
ATOM     18  C   UNL     1      36.149  -1.733  16.125  0.00  0.00    +0.000 C 
BRANCH  18  19
ATOM     19  C   UNL     1      35.284  -2.826  15.613  0.00  0.00    +0.000 A 
ATOM     20  C   UNL     1      35.663  -3.693  14.617  0.00  0.00    +0.000 A 
ATOM     21  C   UNL     1      34.826  -4.692  14.173  0.00  0.00    +0.000 A 
ATOM     22  C   UNL     1      33.574  -4.796  14.767  0.00  0.00    +0.000 A 
ATOM     23  C   UNL     1      33.155  -3.952  15.763  0.00  0.00    +0.000 A 
ATOM     24  C   UNL     1      34.033  -2.969  16.173  0.00  0.00    +0.000 A 
ENDBRANCH  18  19
BRANCH  18  25
ATOM     25  C   UNL     1      36.935  -2.168  17.311  0.00  0.00    +0.000 A 
ATOM     26  C   UNL     1      36.649  -1.566  18.517  0.00  0.00    +0.000 A 
ATOM     27  C   UNL     1      37.297  -1.872  19.687  0.00  0.00    +0.000 A 
ATOM     28  C   UNL     1      38.287  -2.840  19.626  0.00  0.00    +0.000 A 
ATOM     29  C   UNL     1      38.588  -3.460  18.406  0.00  0.00    +0.000 A 
ATOM     30  C   UNL     1      37.916  -3.128  17.245  0.00  0.00    +0.000 A 
ENDBRANCH  18  25
ENDBRANCH  17  18
ENDBRANCH   1  17
TORSDOF 8
ENDMDL
MODEL 7
REMARK VINA RESULT:      -7.7      2.430      8.864
REMARK  Name = 
REMARK  8 active torsions:
REMARK  status: ('A' for Active; 'I' for Inactive)
REMARK    1  A    between atoms: C_6  and  N_7
REMARK    2  A    between atoms: C_8  and  C_10
REMARK    3  A    between atoms: C_10  and  O_11
REMARK    4  A    between atoms: O_11  and  C_12
REMARK    5  A    between atoms: C_12  and  C_14
REMARK    6  A    between atoms: C_14  and  C_15
REMARK    7  A    between atoms: C_15  and  C_16
REMARK    8  A    between atoms: C_15  and  C_22
REMARK                            x       y       z     vdW  Elec       q    Type
REMARK                         _______ _______ _______ _____ _____    ______ ____
ROOT
ATOM      1  C   UNL     1      36.711   1.977  13.421  0.00  0.00    +0.000 C 
ATOM      2  O   UNL     1      35.982   2.914  13.830  0.00  0.00    +0.000 OA
ENDROOT
BRANCH   1   3
ATOM      3  O   UNL     1      37.791   2.262  12.579  0.00  0.00    +0.000 OA
BRANCH   3   4
ATOM      4  C   UNL     1      38.498   3.465  12.623  0.00  0.00    +0.000 C 
BRANCH   4   6
ATOM      5  N   UNL     1      38.658   4.889  14.671  0.00  0.00    +0.000 NA
ATOM      6  C   UNL     1      39.069   3.754  13.960  0.00  0.00    +0.000 C 
ATOM      7  O   UNL     1      39.918   2.977  14.446  0.00  0.00    +0.000 OA
BRANCH   5  13
ATOM      8  C   UNL     1      40.537   6.193  19.895  0.00  0.00    +0.000 C 
ATOM      9  C   UNL     1      40.073   5.872  18.525  0.00  0.00    +0.000 A 
ATOM     10  C   UNL     1      38.998   5.048  18.347  0.00  0.00    +0.000 A 
ATOM     11  C   UNL     1      38.543   4.731  17.086  0.00  0.00    +0.000 A 
ATOM     12  C   UNL     1      37.359   3.821  16.997  0.00  0.00    +0.000 C 
ATOM     13  C   UNL     1      39.159   5.237  15.963  0.00  0.00    +0.000 A 
ATOM     14  C   UNL     1      40.240   6.067  16.133  0.00  0.00    +0.000 A 
ATOM     15  C   UNL     1      40.922   6.625  14.916  0.00  0.00    +0.000 C 
ATOM     16  C   UNL     1      40.685   6.375  17.387  0.00  0.00    +0.000 A 
ENDBRANCH   5  13
ENDBRANCH   4   6
ENDBRANCH   3   4
ENDBRANCH   1   3
BRANCH   1  17
ATOM     17  C   UNL     1      36.478   0.550  13.796  0.00  0.00    +0.000 C 
BRANCH  17  18
ATOM     18  C   UNL     1      37.425   0.224  14.931  0.00  0.00    +0.000 C 
BRANCH  18  19
ATOM     19  C   UNL     1      38.452  -0.766  14.517  0.00  0.00    +0.000 A 
ATOM     20  C   UNL     1      38.164  -1.911  13.816  0.00  0.00    +0.000 A 
ATOM     21  C   UNL     1      39.150  -2.803  13.454  0.00  0.00    +0.000 A 
ATOM     22  C   UNL     1      40.455  -2.506  13.824  0.00  0.00    +0.000 A 
ATOM     23  C   UNL     1      40.787  -1.374  14.526  0.00  0.00    +0.000 A 
ATOM     24  C   UNL     1      39.762  -0.514  14.862  0.00  0.00    +0.000 A 
ENDBRANCH  18  19
BRANCH  18  25
ATOM     25  C   UNL     1      36.686  -0.228  16.141  0.00  0.00    +0.000 A 
ATOM     26  C   UNL     1      35.366   0.148  16.254  0.00  0.00    +0.000 A 
ATOM     27  C   UNL     1      34.571  -0.199  17.316  0.00  0.00    +0.000 A 
ATOM     28  C   UNL     1      35.148  -0.969  18.314  0.00  0.00    +0.000 A 
ATOM     29  C   UNL     1      36.490  -1.358  18.211  0.00  0.00    +0.000 A 
ATOM     30  C   UNL     1      37.265  -0.990  17.126  0.00  0.00    +0.000 A 
ENDBRANCH  18  25
ENDBRANCH  17  18
ENDBRANCH   1  17
TORSDOF 8
ENDMDL
MODEL 8
REMARK VINA RESULT:      -7.7      2.315      9.192
REMARK  Name = 
REMARK  8 active torsions:
REMARK  status: ('A' for Active; 'I' for Inactive)
REMARK    1  A    between atoms: C_6  and  N_7
REMARK    2  A    between atoms: C_8  and  C_10
REMARK    3  A    between atoms: C_10  and  O_11
REMARK    4  A    between atoms: O_11  and  C_12
REMARK    5  A    between atoms: C_12  and  C_14
REMARK    6  A    between atoms: C_14  and  C_15
REMARK    7  A    between atoms: C_15  and  C_16
REMARK    8  A    between atoms: C_15  and  C_22
REMARK                            x       y       z     vdW  Elec       q    Type
REMARK                         _______ _______ _______ _____ _____    ______ ____
ROOT
ATOM      1  C   UNL     1      36.003   1.064  17.121  0.00  0.00    +0.000 C 
ATOM      2  O   UNL     1      36.297   0.694  18.284  0.00  0.00    +0.000 OA
ENDROOT
BRANCH   1   3
ATOM      3  O   UNL     1      35.790   2.423  16.865  0.00  0.00    +0.000 OA
BRANCH   3   4
ATOM      4  C   UNL     1      36.275   3.073  15.730  0.00  0.00    +0.000 C 
BRANCH   4   6
ATOM      5  N   UNL     1      37.921   4.909  16.141  0.00  0.00    +0.000 NA
ATOM      6  C   UNL     1      37.668   3.555  15.889  0.00  0.00    +0.000 C 
ATOM      7  O   UNL     1      38.613   2.741  15.797  0.00  0.00    +0.000 OA
BRANCH   5  13
ATOM      8  C   UNL     1      43.138   7.065  16.962  0.00  0.00    +0.000 C 
ATOM      9  C   UNL     1      41.787   6.507  16.716  0.00  0.00    +0.000 A 
ATOM     10  C   UNL     1      41.003   6.135  17.771  0.00  0.00    +0.000 A 
ATOM     11  C   UNL     1      39.743   5.613  17.576  0.00  0.00    +0.000 A 
ATOM     12  C   UNL     1      38.963   5.236  18.796  0.00  0.00    +0.000 C 
ATOM     13  C   UNL     1      39.234   5.451  16.306  0.00  0.00    +0.000 A 
ATOM     14  C   UNL     1      40.015   5.824  15.240  0.00  0.00    +0.000 A 
ATOM     15  C   UNL     1      39.471   5.651  13.850  0.00  0.00    +0.000 C 
ATOM     16  C   UNL     1      41.262   6.339  15.443  0.00  0.00    +0.000 A 
ENDBRANCH   5  13
ENDBRANCH   4   6
ENDBRANCH   3   4
ENDBRANCH   1   3
BRANCH   1  17
ATOM     17  C   UNL     1      35.869   0.111  15.980  0.00  0.00    +0.000 C 
BRANCH  17  18
ATOM     18  C   UNL     1      37.071  -0.808  16.018  0.00  0.00    +0.000 C 
BRANCH  18  19
ATOM     19  C   UNL     1      38.046  -0.475  14.949  0.00  0.00    +0.000 A 
ATOM     20  C   UNL     1      39.399  -0.685  15.062  0.00  0.00    +0.000 A 
ATOM     21  C   UNL     1      40.267  -0.359  14.043  0.00  0.00    +0.000 A 
ATOM     22  C   UNL     1      39.727   0.196  12.889  0.00  0.00    +0.000 A 
ATOM     23  C   UNL     1      38.384   0.423  12.735  0.00  0.00    +0.000 A 
ATOM     24  C   UNL     1      37.558   0.077  13.785  0.00  0.00    +0.000 A 
ENDBRANCH  18  19
BRANCH  18  25
ATOM     25  C   UNL     1      36.663  -2.237  15.960  0.00  0.00    +0.000 A 
ATOM     26  C   UNL     1      35.531  -2.545  15.238  0.00  0.00    +0.000 A 
ATOM     27  C   UNL     1      35.044  -3.820  15.104  0.00  0.00    +0.000 A 
ATOM     28  C   UNL     1      35.746  -4.835  15.737  0.00  0.00    +0.000 A 
ATOM     29  C   UNL     1      36.899  -4.536  16.474  0.00  0.00    +0.000 A 
ATOM     30  C   UNL     1      37.362  -3.238  16.590  0.00  0.00    +0.000 A 
ENDBRANCH  18  25
ENDBRANCH  17  18
ENDBRANCH   1  17
TORSDOF 8
ENDMDL
MODEL 9
REMARK VINA RESULT:      -7.7      1.321      2.414
REMARK  Name = 
REMARK  8 active torsions:
REMARK  status: ('A' for Active; 'I' for Inactive)
REMARK    1  A    between atoms: C_6  and  N_7
REMARK    2  A    between atoms: C_8  and  C_10
REMARK    3  A    between atoms: C_10  and  O_11
REMARK    4  A    between atoms: O_11  and  C_12
REMARK    5  A    between atoms: C_12  and  C_14
REMARK    6  A    between atoms: C_14  and  C_15
REMARK    7  A    between atoms: C_15  and  C_16
REMARK    8  A    between atoms: C_15  and  C_22
REMARK                            x       y       z     vdW  Elec       q    Type
REMARK                         _______ _______ _______ _____ _____    ______ ____
ROOT
ATOM      1  C   UNL     1      38.855   4.906  17.446  0.00  0.00    +0.000 C 
ATOM      2  O   UNL     1      38.544   4.228  18.456  0.00  0.00    +0.000 OA
ENDROOT
BRANCH   1   3
ATOM      3  O   UNL     1      38.321   4.565  16.199  0.00  0.00    +0.000 OA
BRANCH   3   4
ATOM      4  C   UNL     1      37.247   3.688  16.039  0.00  0.00    +0.000 C 
BRANCH   4   6
ATOM      5  N   UNL     1      38.557   1.685  15.320  0.00  0.00    +0.000 NA
ATOM      6  C   UNL     1      37.526   2.599  15.073  0.00  0.00    +0.000 C 
ATOM      7  O   UNL     1      36.832   2.506  14.037  0.00  0.00    +0.000 OA
BRANCH   5  13
ATOM      8  C   UNL     1      39.780  -2.706  11.890  0.00  0.00    +0.000 C 
ATOM      9  C   UNL     1      39.483  -1.546  12.764  0.00  0.00    +0.000 A 
ATOM     10  C   UNL     1      38.582  -1.676  13.783  0.00  0.00    +0.000 A 
ATOM     11  C   UNL     1      38.284  -0.617  14.612  0.00  0.00    +0.000 A 
ATOM     12  C   UNL     1      37.285  -0.861  15.698  0.00  0.00    +0.000 C 
ATOM     13  C   UNL     1      38.888   0.608  14.439  0.00  0.00    +0.000 A 
ATOM     14  C   UNL     1      39.796   0.748  13.417  0.00  0.00    +0.000 A 
ATOM     15  C   UNL     1      40.460   2.080  13.217  0.00  0.00    +0.000 C 
ATOM     16  C   UNL     1      40.084  -0.307  12.600  0.00  0.00    +0.000 A 
ENDBRANCH   5  13
ENDBRANCH   4   6
ENDBRANCH   3   4
ENDBRANCH   1   3
BRANCH   1  17
ATOM     17  C   UNL     1      39.779   6.076  17.512  0.00  0.00    +0.000 C 
BRANCH  17  18
ATOM     18  C   UNL     1      39.957   6.426  18.974  0.00  0.00    +0.000 C 
BRANCH  18  19
ATOM     19  C   UNL     1      39.241   7.678  19.325  0.00  0.00    +0.000 A 
ATOM     20  C   UNL     1      38.917   8.033  20.612  0.00  0.00    +0.000 A 
ATOM     21  C   UNL     1      38.249   9.205  20.891  0.00  0.00    +0.000 A 
ATOM     22  C   UNL     1      37.909  10.024  19.821  0.00  0.00    +0.000 A 
ATOM     23  C   UNL     1      38.212   9.708  18.521  0.00  0.00    +0.000 A 
ATOM     24  C   UNL     1      38.883   8.523  18.297  0.00  0.00    +0.000 A 
ENDBRANCH  18  19
BRANCH  18  25
ATOM     25  C   UNL     1      41.397   6.498  19.342  0.00  0.00    +0.000 A 
ATOM     26  C   UNL     1      41.737   6.169  20.636  0.00  0.00    +0.000 A 
ATOM     27  C   UNL     1      43.025   6.193  21.107  0.00  0.00    +0.000 A 
ATOM     28  C   UNL     1      44.018   6.570  20.216  0.00  0.00    +0.000 A 
ATOM     29  C   UNL     1      43.685   6.906  18.897  0.00  0.00    +0.000 A 
ATOM     30  C   UNL     1      42.376   6.872  18.454  0.00  0.00    +0.000 A 
ENDBRANCH  18  25
ENDBRANCH  17  18
ENDBRANCH   1  17
TORSDOF 8
ENDMDL
MODEL 10
REMARK VINA RESULT:      -7.7      1.992      9.218
REMARK  Name = 
REMARK  8 active torsions:
REMARK  status: ('A' for Active; 'I' for Inactive)
REMARK    1  A    between atoms: C_6  and  N_7
REMARK    2  A    between atoms: C_8  and  C_10
REMARK    3  A    between atoms: C_10  and  O_11
REMARK    4  A    between atoms: O_11  and  C_12
REMARK    5  A    between atoms: C_12  and  C_14
REMARK    6  A    between atoms: C_14  and  C_15
REMARK    7  A    between atoms: C_15  and  C_16
REMARK    8  A    between atoms: C_15  and  C_22
REMARK                            x       y       z     vdW  Elec       q    Type
REMARK                         _______ _______ _______ _____ _____    ______ ____
ROOT
ATOM      1  C   UNL     1      36.235   2.454  14.483  0.00  0.00    +0.000 C 
ATOM      2  O   UNL     1      35.116   2.593  15.034  0.00  0.00    +0.000 OA
ENDROOT
BRANCH   1   3
ATOM      3  O   UNL     1      37.031   3.580  14.247  0.00  0.00    +0.000 OA
BRANCH   3   4
ATOM      4  C   UNL     1      37.107   4.661  15.127  0.00  0.00    +0.000 C 
BRANCH   4   6
ATOM      5  N   UNL     1      38.967   6.039  16.071  0.00  0.00    +0.000 NA
ATOM      6  C   UNL     1      38.428   4.777  15.790  0.00  0.00    +0.000 C 
ATOM      7  O   UNL     1      39.054   3.739  16.096  0.00  0.00    +0.000 OA
BRANCH   5  13
ATOM      8  C   UNL     1      43.939   6.816  18.754  0.00  0.00    +0.000 C 
ATOM      9  C   UNL     1      42.663   6.616  18.028  0.00  0.00    +0.000 A 
ATOM     10  C   UNL     1      41.505   6.428  18.728  0.00  0.00    +0.000 A 
ATOM     11  C   UNL     1      40.303   6.239  18.082  0.00  0.00    +0.000 A 
ATOM     12  C   UNL     1      39.092   6.042  18.939  0.00  0.00    +0.000 C 
ATOM     13  C   UNL     1      40.232   6.235  16.707  0.00  0.00    +0.000 A 
ATOM     14  C   UNL     1      41.391   6.424  15.995  0.00  0.00    +0.000 A 
ATOM     15  C   UNL     1      41.327   6.420  14.495  0.00  0.00    +0.000 C 
ATOM     16  C   UNL     1      42.578   6.610  16.644  0.00  0.00    +0.000 A 
ENDBRANCH   5  13
ENDBRANCH   4   6
ENDBRANCH   3   4
ENDBRANCH   1   3
BRANCH   1  17
ATOM     17  C   UNL     1      36.768   1.124  14.062  0.00  0.00    +0.000 C 
BRANCH  17  18
ATOM     18  C   UNL     1      37.311   0.445  15.301  0.00  0.00    +0.000 C 
BRANCH  18  19
ATOM     19  C   UNL     1      38.642  -0.163  15.050  0.00  0.00    +0.000 A 
ATOM     20  C   UNL     1      39.639   0.457  14.336  0.00  0.00    +0.000 A 
ATOM     21  C   UNL     1      40.859  -0.146  14.127  0.00  0.00    +0.000 A 
ATOM     22  C   UNL     1      41.053  -1.412  14.665  0.00  0.00    +0.000 A 
ATOM     23  C   UNL     1      40.086  -2.067  15.384  0.00  0.00    +0.000 A 
ATOM     24  C   UNL     1      38.882  -1.419  15.565  0.00  0.00    +0.000 A 
ENDBRANCH  18  19
BRANCH  18  25
ATOM     25  C   UNL     1      36.347  -0.553  15.838  0.00  0.00    +0.000 A 
ATOM     26  C   UNL     1      35.809  -0.309  17.083  0.00  0.00    +0.000 A 
ATOM     27  C   UNL     1      34.911  -1.145  17.695  0.00  0.00    +0.000 A 
ATOM     28  C   UNL     1      34.540  -2.289  17.004  0.00  0.00    +0.000 A 
ATOM     29  C   UNL     1      35.078  -2.548  15.737  0.00  0.00    +0.000 A 
ATOM     30  C   UNL     1      35.983  -1.684  15.149  0.00  0.00    +0.000 A 
ENDBRANCH  18  25
ENDBRANCH  17  18
ENDBRANCH   1  17
TORSDOF 8
ENDMDL
