MODEL 1
REMARK VINA RESULT:      -6.8      0.000      0.000
REMARK  Name = 
REMARK  3 active torsions:
REMARK  status: ('A' for Active; 'I' for Inactive)
REMARK    1  A    between atoms: C_5  and  N_6
REMARK    2  A    between atoms: C_7  and  C_9
REMARK    3  A    between atoms: C_12  and  N_13
REMARK                            x       y       z     vdW  Elec       q    Type
REMARK                         _______ _______ _______ _____ _____    ______ ____
ROOT
ATOM      1  N   UNL     1      15.461  11.175  35.770  0.00  0.00    +0.000 NA
ATOM      2  C   UNL     1      16.654  11.451  36.455  0.00  0.00    +0.000 C 
ATOM      3  O   UNL     1      17.314  12.476  36.194  0.00  0.00    +0.000 OA
ENDROOT
BRANCH   1   8
ATOM      4  C   UNL     1      13.587  14.602  31.661  0.00  0.00    +0.000 C 
ATOM      5  C   UNL     1      14.052  13.740  32.766  0.00  0.00    +0.000 A 
ATOM      6  C   UNL     1      13.745  14.002  34.100  0.00  0.00    +0.000 A 
ATOM      7  C   UNL     1      14.210  13.159  35.070  0.00  0.00    +0.000 A 
ATOM      8  C   UNL     1      14.972  12.060  34.758  0.00  0.00    +0.000 A 
ATOM      9  C   UNL     1      15.283  11.788  33.442  0.00  0.00    +0.000 A 
ATOM     10  C   UNL     1      16.108  10.605  33.082  0.00  0.00    +0.000 C 
ATOM     11  C   UNL     1      14.815  12.637  32.467  0.00  0.00    +0.000 A 
ENDBRANCH   1   8
BRANCH   2  12
ATOM     12  C   UNL     1      17.186  10.562  37.502  0.00  0.00    +0.000 A 
ATOM     13  C   UNL     1      16.686  10.392  38.758  0.00  0.00    +0.000 A 
ATOM     14  C   UNL     1      17.303   9.541  39.569  0.00  0.00    +0.000 A 
ATOM     15  C   UNL     1      18.405   8.887  39.094  0.00  0.00    +0.000 A 
ATOM     16  S   UNL     1      18.523   9.508  37.503  0.00  0.00    +0.000 S 
BRANCH  15  17
ATOM     17  N   UNL     1      19.225   7.936  39.775  0.00  0.00    +0.000 N 
ATOM     18  O   UNL     1      20.299   8.310  40.255  0.00  0.00    +0.000 OA
ATOM     19  O   UNL     1      18.787   6.657  39.864  0.00  0.00    +0.000 OA
ENDBRANCH  15  17
ENDBRANCH   2  12
TORSDOF 3
ENDMDL
MODEL 2
REMARK VINA RESULT:      -6.5      3.013      7.811
REMARK  Name = 
REMARK  3 active torsions:
REMARK  status: ('A' for Active; 'I' for Inactive)
REMARK    1  A    between atoms: C_5  and  N_6
REMARK    2  A    between atoms: C_7  and  C_9
REMARK    3  A    between atoms: C_12  and  N_13
REMARK                            x       y       z     vdW  Elec       q    Type
REMARK                         _______ _______ _______ _____ _____    ______ ____
ROOT
ATOM      1  N   UNL     1      16.737  11.059  36.742  0.00  0.00    +0.000 NA
ATOM      2  C   UNL     1      16.741  10.341  35.538  0.00  0.00    +0.000 C 
ATOM      3  O   UNL     1      17.158   9.166  35.499  0.00  0.00    +0.000 OA
ENDROOT
BRANCH   1   8
ATOM      4  C   UNL     1      18.472   8.712  41.602  0.00  0.00    +0.000 C 
ATOM      5  C   UNL     1      18.069   9.320  40.319  0.00  0.00    +0.000 A 
ATOM      6  C   UNL     1      18.972   9.549  39.281  0.00  0.00    +0.000 A 
ATOM      7  C   UNL     1      18.526  10.116  38.120  0.00  0.00    +0.000 A 
ATOM      8  C   UNL     1      17.208  10.465  37.955  0.00  0.00    +0.000 A 
ATOM      9  C   UNL     1      16.304  10.245  38.973  0.00  0.00    +0.000 A 
ATOM     10  C   UNL     1      14.872  10.616  38.816  0.00  0.00    +0.000 C 
ATOM     11  C   UNL     1      16.754   9.674  40.140  0.00  0.00    +0.000 A 
ENDBRANCH   1   8
BRANCH   2  12
ATOM     12  C   UNL     1      16.262  10.922  34.271  0.00  0.00    +0.000 A 
ATOM     13  C   UNL     1      16.687  10.604  33.017  0.00  0.00    +0.000 A 
ATOM     14  C   UNL     1      16.135  11.237  31.988  0.00  0.00    +0.000 A 
ATOM     15  C   UNL     1      15.173  12.170  32.251  0.00  0.00    +0.000 A 
ATOM     16  S   UNL     1      15.086  12.114  33.960  0.00  0.00    +0.000 S 
BRANCH  15  17
ATOM     17  N   UNL     1      14.445  12.970  31.318  0.00  0.00    +0.000 N 
ATOM     18  O   UNL     1      14.715  12.881  30.117  0.00  0.00    +0.000 OA
ATOM     19  O   UNL     1      13.483  13.799  31.795  0.00  0.00    +0.000 OA
ENDBRANCH  15  17
ENDBRANCH   2  12
TORSDOF 3
ENDMDL
MODEL 3
REMARK VINA RESULT:      -6.4      3.017      7.699
REMARK  Name = 
REMARK  3 active torsions:
REMARK  status: ('A' for Active; 'I' for Inactive)
REMARK    1  A    between atoms: C_5  and  N_6
REMARK    2  A    between atoms: C_7  and  C_9
REMARK    3  A    between atoms: C_12  and  N_13
REMARK                            x       y       z     vdW  Elec       q    Type
REMARK                         _______ _______ _______ _____ _____    ______ ____
ROOT
ATOM      1  N   UNL     1      17.233   9.962  36.966  0.00  0.00    +0.000 NA
ATOM      2  C   UNL     1      16.801  11.192  36.452  0.00  0.00    +0.000 C 
ATOM      3  O   UNL     1      16.795  12.214  37.167  0.00  0.00    +0.000 OA
ENDROOT
BRANCH   1   8
ATOM      4  C   UNL     1      19.128   9.499  42.289  0.00  0.00    +0.000 C 
ATOM      5  C   UNL     1      18.585   9.618  40.921  0.00  0.00    +0.000 A 
ATOM      6  C   UNL     1      17.217   9.653  40.658  0.00  0.00    +0.000 A 
ATOM      7  C   UNL     1      16.788   9.766  39.364  0.00  0.00    +0.000 A 
ATOM      8  C   UNL     1      17.677   9.845  38.321  0.00  0.00    +0.000 A 
ATOM      9  C   UNL     1      19.033   9.811  38.566  0.00  0.00    +0.000 A 
ATOM     10  C   UNL     1      20.013   9.894  37.450  0.00  0.00    +0.000 C 
ATOM     11  C   UNL     1      19.463   9.698  39.867  0.00  0.00    +0.000 A 
ENDBRANCH   1   8
BRANCH   2  12
ATOM     12  C   UNL     1      16.338  11.349  35.062  0.00  0.00    +0.000 A 
ATOM     13  C   UNL     1      16.922  10.831  33.945  0.00  0.00    +0.000 A 
ATOM     14  C   UNL     1      16.358  11.079  32.770  0.00  0.00    +0.000 A 
ATOM     15  C   UNL     1      15.223  11.840  32.751  0.00  0.00    +0.000 A 
ATOM     16  S   UNL     1      14.998  12.176  34.414  0.00  0.00    +0.000 S 
BRANCH  15  17
ATOM     17  N   UNL     1      14.448  12.235  31.618  0.00  0.00    +0.000 N 
ATOM     18  O   UNL     1      13.798  13.283  31.677  0.00  0.00    +0.000 OA
ATOM     19  O   UNL     1      14.458  11.438  30.522  0.00  0.00    +0.000 OA
ENDBRANCH  15  17
ENDBRANCH   2  12
TORSDOF 3
ENDMDL
MODEL 4
REMARK VINA RESULT:      -6.3     30.080     31.437
REMARK  Name = 
REMARK  3 active torsions:
REMARK  status: ('A' for Active; 'I' for Inactive)
REMARK    1  A    between atoms: C_5  and  N_6
REMARK    2  A    between atoms: C_7  and  C_9
REMARK    3  A    between atoms: C_12  and  N_13
REMARK                            x       y       z     vdW  Elec       q    Type
REMARK                         _______ _______ _______ _____ _____    ______ ____
ROOT
ATOM      1  N   UNL     1      31.672  20.911  12.108  0.00  0.00    +0.000 NA
ATOM      2  C   UNL     1      32.804  21.386  11.430  0.00  0.00    +0.000 C 
ATOM      3  O   UNL     1      32.777  22.484  10.840  0.00  0.00    +0.000 OA
ENDROOT
BRANCH   1   8
ATOM      4  C   UNL     1      26.828  23.855  12.120  0.00  0.00    +0.000 C 
ATOM      5  C   UNL     1      28.104  23.114  12.160  0.00  0.00    +0.000 A 
ATOM      6  C   UNL     1      29.056  23.315  13.158  0.00  0.00    +0.000 A 
ATOM      7  C   UNL     1      30.215  22.591  13.131  0.00  0.00    +0.000 A 
ATOM      8  C   UNL     1      30.461  21.670  12.142  0.00  0.00    +0.000 A 
ATOM      9  C   UNL     1      29.527  21.461  11.148  0.00  0.00    +0.000 A 
ATOM     10  C   UNL     1      29.773  20.470  10.067  0.00  0.00    +0.000 C 
ATOM     11  C   UNL     1      28.362  22.190  11.177  0.00  0.00    +0.000 A 
ENDBRANCH   1   8
BRANCH   2  12
ATOM     12  C   UNL     1      34.067  20.631  11.377  0.00  0.00    +0.000 A 
ATOM     13  C   UNL     1      34.709  20.039  12.423  0.00  0.00    +0.000 A 
ATOM     14  C   UNL     1      35.845  19.397  12.181  0.00  0.00    +0.000 A 
ATOM     15  C   UNL     1      36.303  19.368  10.894  0.00  0.00    +0.000 A 
ATOM     16  S   UNL     1      35.095  20.258  10.071  0.00  0.00    +0.000 S 
BRANCH  15  17
ATOM     17  N   UNL     1      37.488  18.745  10.395  0.00  0.00    +0.000 N 
ATOM     18  O   UNL     1      37.407  17.616   9.903  0.00  0.00    +0.000 OA
ATOM     19  O   UNL     1      38.657  19.425  10.486  0.00  0.00    +0.000 OA
ENDBRANCH  15  17
ENDBRANCH   2  12
TORSDOF 3
ENDMDL
MODEL 5
REMARK VINA RESULT:      -6.0      1.844      2.558
REMARK  Name = 
REMARK  3 active torsions:
REMARK  status: ('A' for Active; 'I' for Inactive)
REMARK    1  A    between atoms: C_5  and  N_6
REMARK    2  A    between atoms: C_7  and  C_9
REMARK    3  A    between atoms: C_12  and  N_13
REMARK                            x       y       z     vdW  Elec       q    Type
REMARK                         _______ _______ _______ _____ _____    ______ ____
ROOT
ATOM      1  N   UNL     1      17.073  11.236  35.551  0.00  0.00    +0.000 NA
ATOM      2  C   UNL     1      17.385  10.006  36.148  0.00  0.00    +0.000 C 
ATOM      3  O   UNL     1      17.123   8.933  35.568  0.00  0.00    +0.000 OA
ENDROOT
BRANCH   1   8
ATOM      4  C   UNL     1      14.491  11.546  30.514  0.00  0.00    +0.000 C 
ATOM      5  C   UNL     1      15.199  11.435  31.804  0.00  0.00    +0.000 A 
ATOM      6  C   UNL     1      16.367  10.689  31.956  0.00  0.00    +0.000 A 
ATOM      7  C   UNL     1      16.969  10.632  33.182  0.00  0.00    +0.000 A 
ATOM      8  C   UNL     1      16.447  11.293  34.266  0.00  0.00    +0.000 A 
ATOM      9  C   UNL     1      15.293  12.035  34.131  0.00  0.00    +0.000 A 
ATOM     10  C   UNL     1      14.710  12.758  35.292  0.00  0.00    +0.000 C 
ATOM     11  C   UNL     1      14.688  12.091  32.897  0.00  0.00    +0.000 A 
ENDBRANCH   1   8
BRANCH   2  12
ATOM     12  C   UNL     1      18.030   9.911  37.469  0.00  0.00    +0.000 A 
ATOM     13  C   UNL     1      17.408   9.885  38.680  0.00  0.00    +0.000 A 
ATOM     14  C   UNL     1      18.159   9.795  39.770  0.00  0.00    +0.000 A 
ATOM     15  C   UNL     1      19.515   9.733  39.611  0.00  0.00    +0.000 A 
ATOM     16  S   UNL     1      19.672   9.805  37.908  0.00  0.00    +0.000 S 
BRANCH  15  17
ATOM     17  N   UNL     1      20.517   9.634  40.625  0.00  0.00    +0.000 N 
ATOM     18  O   UNL     1      20.291  10.121  41.736  0.00  0.00    +0.000 OA
ATOM     19  O   UNL     1      21.678   9.005  40.321  0.00  0.00    +0.000 OA
ENDBRANCH  15  17
ENDBRANCH   2  12
TORSDOF 3
ENDMDL
MODEL 6
REMARK VINA RESULT:      -6.0     21.783     23.752
REMARK  Name = 
REMARK  3 active torsions:
REMARK  status: ('A' for Active; 'I' for Inactive)
REMARK    1  A    between atoms: C_5  and  N_6
REMARK    2  A    between atoms: C_7  and  C_9
REMARK    3  A    between atoms: C_12  and  N_13
REMARK                            x       y       z     vdW  Elec       q    Type
REMARK                         _______ _______ _______ _____ _____    ______ ____
ROOT
ATOM      1  N   UNL     1      22.982  -7.370  23.562  0.00  0.00    +0.000 NA
ATOM      2  C   UNL     1      22.528  -7.879  24.787  0.00  0.00    +0.000 C 
ATOM      3  O   UNL     1      23.202  -8.720  25.415  0.00  0.00    +0.000 OA
ENDROOT
BRANCH   1   8
ATOM      4  C   UNL     1      27.840  -9.168  21.260  0.00  0.00    +0.000 C 
ATOM      5  C   UNL     1      26.602  -8.666  21.888  0.00  0.00    +0.000 A 
ATOM      6  C   UNL     1      26.605  -7.651  22.843  0.00  0.00    +0.000 A 
ATOM      7  C   UNL     1      25.419  -7.236  23.381  0.00  0.00    +0.000 A 
ATOM      8  C   UNL     1      24.226  -7.800  23.001  0.00  0.00    +0.000 A 
ATOM      9  C   UNL     1      24.208  -8.805  22.058  0.00  0.00    +0.000 A 
ATOM     10  C   UNL     1      22.927  -9.430  21.632  0.00  0.00    +0.000 C 
ATOM     11  C   UNL     1      25.402  -9.221  21.517  0.00  0.00    +0.000 A 
ENDBRANCH   1   8
BRANCH   2  12
ATOM     12  C   UNL     1      21.253  -7.458  25.393  0.00  0.00    +0.000 A 
ATOM     13  C   UNL     1      20.728  -6.201  25.397  0.00  0.00    +0.000 A 
ATOM     14  C   UNL     1      19.559  -6.012  25.997  0.00  0.00    +0.000 A 
ATOM     15  C   UNL     1      18.952  -7.091  26.575  0.00  0.00    +0.000 A 
ATOM     16  S   UNL     1      20.071  -8.343  26.242  0.00  0.00    +0.000 S 
BRANCH  15  17
ATOM     17  N   UNL     1      17.705  -7.131  27.270  0.00  0.00    +0.000 N 
ATOM     18  O   UNL     1      16.956  -6.152  27.208  0.00  0.00    +0.000 OA
ATOM     19  O   UNL     1      17.396  -8.249  27.971  0.00  0.00    +0.000 OA
ENDBRANCH  15  17
ENDBRANCH   2  12
TORSDOF 3
ENDMDL
MODEL 7
REMARK VINA RESULT:      -6.0     19.652     21.398
REMARK  Name = 
REMARK  3 active torsions:
REMARK  status: ('A' for Active; 'I' for Inactive)
REMARK    1  A    between atoms: C_5  and  N_6
REMARK    2  A    between atoms: C_7  and  C_9
REMARK    3  A    between atoms: C_12  and  N_13
REMARK                            x       y       z     vdW  Elec       q    Type
REMARK                         _______ _______ _______ _____ _____    ______ ____
ROOT
ATOM      1  N   UNL     1      30.571  23.070  28.181  0.00  0.00    +0.000 NA
ATOM      2  C   UNL     1      29.651  22.540  27.265  0.00  0.00    +0.000 C 
ATOM      3  O   UNL     1      28.790  21.716  27.632  0.00  0.00    +0.000 OA
ENDROOT
BRANCH   1   8
ATOM      4  C   UNL     1      30.598  21.456  33.615  0.00  0.00    +0.000 C 
ATOM      5  C   UNL     1      30.546  21.901  32.209  0.00  0.00    +0.000 A 
ATOM      6  C   UNL     1      29.511  22.691  31.710  0.00  0.00    +0.000 A 
ATOM      7  C   UNL     1      29.531  23.066  30.396  0.00  0.00    +0.000 A 
ATOM      8  C   UNL     1      30.547  22.681  29.557  0.00  0.00    +0.000 A 
ATOM      9  C   UNL     1      31.577  21.899  30.036  0.00  0.00    +0.000 A 
ATOM     10  C   UNL     1      32.688  21.470  29.145  0.00  0.00    +0.000 C 
ATOM     11  C   UNL     1      31.557  21.523  31.359  0.00  0.00    +0.000 A 
ENDBRANCH   1   8
BRANCH   2  12
ATOM     12  C   UNL     1      29.647  22.919  25.841  0.00  0.00    +0.000 A 
ATOM     13  C   UNL     1      30.728  23.263  25.086  0.00  0.00    +0.000 A 
ATOM     14  C   UNL     1      30.528  23.576  23.812  0.00  0.00    +0.000 A 
ATOM     15  C   UNL     1      29.249  23.535  23.334  0.00  0.00    +0.000 A 
ATOM     16  S   UNL     1      28.371  23.049  24.720  0.00  0.00    +0.000 S 
BRANCH  15  17
ATOM     17  N   UNL     1      28.794  23.827  22.012  0.00  0.00    +0.000 N 
ATOM     18  O   UNL     1      27.622  23.576  21.715  0.00  0.00    +0.000 OA
ATOM     19  O   UNL     1      29.673  24.370  21.134  0.00  0.00    +0.000 OA
ENDBRANCH  15  17
ENDBRANCH   2  12
TORSDOF 3
ENDMDL
MODEL 8
REMARK VINA RESULT:      -6.0      3.947      5.624
REMARK  Name = 
REMARK  3 active torsions:
REMARK  status: ('A' for Active; 'I' for Inactive)
REMARK    1  A    between atoms: C_5  and  N_6
REMARK    2  A    between atoms: C_7  and  C_9
REMARK    3  A    between atoms: C_12  and  N_13
REMARK                            x       y       z     vdW  Elec       q    Type
REMARK                         _______ _______ _______ _____ _____    ______ ____
ROOT
ATOM      1  N   UNL     1      19.534  10.841  37.984  0.00  0.00    +0.000 NA
ATOM      2  C   UNL     1      20.228  10.066  37.044  0.00  0.00    +0.000 C 
ATOM      3  O   UNL     1      19.641   9.595  36.049  0.00  0.00    +0.000 OA
ENDROOT
BRANCH   1   8
ATOM      4  C   UNL     1      13.973  11.805  37.452  0.00  0.00    +0.000 C 
ATOM      5  C   UNL     1      15.430  11.594  37.558  0.00  0.00    +0.000 A 
ATOM      6  C   UNL     1      16.353  12.384  36.875  0.00  0.00    +0.000 A 
ATOM      7  C   UNL     1      17.688  12.129  37.022  0.00  0.00    +0.000 A 
ATOM      8  C   UNL     1      18.138  11.112  37.827  0.00  0.00    +0.000 A 
ATOM      9  C   UNL     1      17.236  10.322  38.509  0.00  0.00    +0.000 A 
ATOM     10  C   UNL     1      17.701   9.214  39.386  0.00  0.00    +0.000 C 
ATOM     11  C   UNL     1      15.893  10.579  38.360  0.00  0.00    +0.000 A 
ENDBRANCH   1   8
BRANCH   2  12
ATOM     12  C   UNL     1      21.665   9.768  37.174  0.00  0.00    +0.000 A 
ATOM     13  C   UNL     1      22.576   9.691  36.164  0.00  0.00    +0.000 A 
ATOM     14  C   UNL     1      23.836   9.411  36.475  0.00  0.00    +0.000 A 
ATOM     15  C   UNL     1      24.143   9.216  37.792  0.00  0.00    +0.000 A 
ATOM     16  S   UNL     1      22.622   9.441  38.544  0.00  0.00    +0.000 S 
BRANCH  15  17
ATOM     17  N   UNL     1      25.415   8.906  38.363  0.00  0.00    +0.000 N 
ATOM     18  O   UNL     1      25.560   7.830  38.951  0.00  0.00    +0.000 OA
ATOM     19  O   UNL     1      26.415   9.812  38.234  0.00  0.00    +0.000 OA
ENDBRANCH  15  17
ENDBRANCH   2  12
TORSDOF 3
ENDMDL
MODEL 9
REMARK VINA RESULT:      -5.9     18.770     20.841
REMARK  Name = 
REMARK  3 active torsions:
REMARK  status: ('A' for Active; 'I' for Inactive)
REMARK    1  A    between atoms: C_5  and  N_6
REMARK    2  A    between atoms: C_7  and  C_9
REMARK    3  A    between atoms: C_12  and  N_13
REMARK                            x       y       z     vdW  Elec       q    Type
REMARK                         _______ _______ _______ _____ _____    ______ ____
ROOT
ATOM      1  N   UNL     1      33.900   0.384  34.316  0.00  0.00    +0.000 NA
ATOM      2  C   UNL     1      32.777  -0.443  34.461  0.00  0.00    +0.000 C 
ATOM      3  O   UNL     1      31.658   0.043  34.721  0.00  0.00    +0.000 OA
ENDROOT
BRANCH   1   8
ATOM      4  C   UNL     1      33.509   5.993  35.039  0.00  0.00    +0.000 C 
ATOM      5  C   UNL     1      33.598   4.539  34.800  0.00  0.00    +0.000 A 
ATOM      6  C   UNL     1      33.373   3.970  33.548  0.00  0.00    +0.000 A 
ATOM      7  C   UNL     1      33.475   2.614  33.403  0.00  0.00    +0.000 A 
ATOM      8  C   UNL     1      33.793   1.803  34.463  0.00  0.00    +0.000 A 
ATOM      9  C   UNL     1      34.019   2.352  35.708  0.00  0.00    +0.000 A 
ATOM     10  C   UNL     1      34.364   1.492  36.871  0.00  0.00    +0.000 C 
ATOM     11  C   UNL     1      33.916   3.716  35.853  0.00  0.00    +0.000 A 
ENDBRANCH   1   8
BRANCH   2  12
ATOM     12  C   UNL     1      32.851  -1.907  34.315  0.00  0.00    +0.000 A 
ATOM     13  C   UNL     1      33.573  -2.599  33.390  0.00  0.00    +0.000 A 
ATOM     14  C   UNL     1      33.516  -3.925  33.413  0.00  0.00    +0.000 A 
ATOM     15  C   UNL     1      32.735  -4.517  34.365  0.00  0.00    +0.000 A 
ATOM     16  S   UNL     1      32.107  -3.159  35.198  0.00  0.00    +0.000 S 
BRANCH  15  17
ATOM     17  N   UNL     1      32.519  -5.911  34.584  0.00  0.00    +0.000 N 
ATOM     18  O   UNL     1      33.439  -6.701  34.351  0.00  0.00    +0.000 OA
ATOM     19  O   UNL     1      31.306  -6.310  35.040  0.00  0.00    +0.000 OA
ENDBRANCH  15  17
ENDBRANCH   2  12
TORSDOF 3
ENDMDL
MODEL 10
REMARK VINA RESULT:      -5.8     18.866     19.814
REMARK  Name = 
REMARK  3 active torsions:
REMARK  status: ('A' for Active; 'I' for Inactive)
REMARK    1  A    between atoms: C_5  and  N_6
REMARK    2  A    between atoms: C_7  and  C_9
REMARK    3  A    between atoms: C_12  and  N_13
REMARK                            x       y       z     vdW  Elec       q    Type
REMARK                         _______ _______ _______ _____ _____    ______ ____
ROOT
ATOM      1  N   UNL     1      29.540  22.135  26.790  0.00  0.00    +0.000 NA
ATOM      2  C   UNL     1      29.922  23.011  27.816  0.00  0.00    +0.000 C 
ATOM      3  O   UNL     1      29.716  24.237  27.716  0.00  0.00    +0.000 OA
ENDROOT
BRANCH   1   8
ATOM      4  C   UNL     1      27.150  24.075  22.030  0.00  0.00    +0.000 C 
ATOM      5  C   UNL     1      27.725  23.568  23.291  0.00  0.00    +0.000 A 
ATOM      6  C   UNL     1      26.942  23.267  24.405  0.00  0.00    +0.000 A 
ATOM      7  C   UNL     1      27.545  22.801  25.539  0.00  0.00    +0.000 A 
ATOM      8  C   UNL     1      28.905  22.623  25.605  0.00  0.00    +0.000 A 
ATOM      9  C   UNL     1      29.692  22.916  24.512  0.00  0.00    +0.000 A 
ATOM     10  C   UNL     1      31.167  22.731  24.561  0.00  0.00    +0.000 C 
ATOM     11  C   UNL     1      29.084  23.385  23.371  0.00  0.00    +0.000 A 
ENDBRANCH   1   8
BRANCH   2  12
ATOM     12  C   UNL     1      30.578  22.543  29.050  0.00  0.00    +0.000 A 
ATOM     13  C   UNL     1      31.817  21.988  29.155  0.00  0.00    +0.000 A 
ATOM     14  C   UNL     1      32.243  21.625  30.358  0.00  0.00    +0.000 A 
ATOM     15  C   UNL     1      31.410  21.831  31.422  0.00  0.00    +0.000 A 
ATOM     16  S   UNL     1      30.046  22.538  30.668  0.00  0.00    +0.000 S 
BRANCH  15  17
ATOM     17  N   UNL     1      31.647  21.525  32.797  0.00  0.00    +0.000 N 
ATOM     18  O   UNL     1      32.795  21.623  33.241  0.00  0.00    +0.000 OA
ATOM     19  O   UNL     1      30.595  21.139  33.560  0.00  0.00    +0.000 OA
ENDBRANCH  15  17
ENDBRANCH   2  12
TORSDOF 3
ENDMDL
