MODEL 1
REMARK VINA RESULT:      -7.6      0.000      0.000
REMARK  Name = 
REMARK  7 active torsions:
REMARK  status: ('A' for Active; 'I' for Inactive)
REMARK    1  A    between atoms: O_2  and  C_3
REMARK    2  A    between atoms: C_7  and  N_8
REMARK    3  A    between atoms: N_8  and  C_9
REMARK    4  A    between atoms: C_10  and  S_11
REMARK    5  A    between atoms: S_11  and  C_12
REMARK    6  A    between atoms: N_20  and  C_21
REMARK    7  A    between atoms: C_24  and  C_25
REMARK                            x       y       z     vdW  Elec       q    Type
REMARK                         _______ _______ _______ _____ _____    ______ ____
ROOT
ATOM      1  C   UNL     1      37.502   1.600  14.886  0.00  0.00    +0.000 C 
ATOM      2  C   UNL     1      38.540   2.033  14.134  0.00  0.00    +0.000 C 
ATOM      3  C   UNL     1      39.021   3.299  14.681  0.00  0.00    +0.000 C 
ATOM      4  O   UNL     1      39.974   4.010  14.253  0.00  0.00    +0.000 OA
ATOM      5  N   UNL     1      38.228   3.637  15.819  0.00  0.00    +0.000 N 
ATOM      6  C   UNL     1      37.296   2.581  15.933  0.00  0.00    +0.000 C 
ATOM      7  O   UNL     1      36.416   2.555  16.858  0.00  0.00    +0.000 OA
ENDROOT
BRANCH   5   8
ATOM      8  C   UNL     1      38.334   4.769  16.661  0.00  0.00    +0.000 A 
ATOM      9  C   UNL     1      37.967   6.035  16.256  0.00  0.00    +0.000 A 
ATOM     10  C   UNL     1      38.078   7.133  17.093  0.00  0.00    +0.000 A 
ATOM     11  C   UNL     1      38.563   7.014  18.379  0.00  0.00    +0.000 A 
ATOM     12  C   UNL     1      38.935   5.753  18.798  0.00  0.00    +0.000 A 
ATOM     13  C   UNL     1      38.824   4.661  17.964  0.00  0.00    +0.000 A 
BRANCH  11  14
ATOM     14  C   UNL     1      38.675   8.208  19.266  0.00  0.00    +0.000 C 
ATOM     15  C   UNL     1      37.265   8.752  19.437  0.00  0.00    +0.000 C 
ATOM     16  C   UNL     1      39.302   7.874  20.585  0.00  0.00    +0.000 C 
ENDBRANCH  11  14
ENDBRANCH   5   8
BRANCH   1  17
ATOM     17  N   UNL     1      36.732   0.434  14.739  0.00  0.00    +0.000 NA
BRANCH  17  22
ATOM     18  C   UNL     1      38.125  -2.568  16.482  0.00  0.00    +0.000 A 
ATOM     19  C   UNL     1      37.671  -3.552  15.608  0.00  0.00    +0.000 A 
ATOM     20  C   UNL     1      36.934  -3.218  14.492  0.00  0.00    +0.000 A 
ATOM     21  C   UNL     1      36.649  -1.893  14.246  0.00  0.00    +0.000 A 
ATOM     22  C   UNL     1      37.084  -0.869  15.096  0.00  0.00    +0.000 A 
ATOM     23  C   UNL     1      37.814  -1.255  16.194  0.00  0.00    +0.000 A 
BRANCH  18  25
ATOM     24  C   UNL     1      38.517  -2.798  18.913  0.00  0.00    +0.000 C 
ATOM     25  O   UNL     1      38.850  -2.976  17.568  0.00  0.00    +0.000 OA
ENDBRANCH  18  25
ENDBRANCH  17  22
ENDBRANCH   1  17
BRANCH   2  26
ATOM     26  S   UNL     1      39.089   1.087  12.751  0.00  0.00    +0.000 S 
BRANCH  26  27
ATOM     27  C   UNL     1      39.863  -0.445  13.137  0.00  0.00    +0.000 A 
ATOM     28  C   UNL     1      39.746  -1.608  12.438  0.00  0.00    +0.000 A 
ATOM     29  C   UNL     1      40.375  -2.773  12.787  0.00  0.00    +0.000 A 
ATOM     30  C   UNL     1      41.192  -2.860  13.895  0.00  0.00    +0.000 A 
ATOM     31  C   UNL     1      41.318  -1.673  14.618  0.00  0.00    +0.000 A 
ATOM     32  C   UNL     1      40.692  -0.511  14.271  0.00  0.00    +0.000 A 
ENDBRANCH  26  27
ENDBRANCH   2  26
TORSDOF 7
ENDMDL
MODEL 2
REMARK VINA RESULT:      -7.5      1.560      3.589
REMARK  Name = 
REMARK  7 active torsions:
REMARK  status: ('A' for Active; 'I' for Inactive)
REMARK    1  A    between atoms: O_2  and  C_3
REMARK    2  A    between atoms: C_7  and  N_8
REMARK    3  A    between atoms: N_8  and  C_9
REMARK    4  A    between atoms: C_10  and  S_11
REMARK    5  A    between atoms: S_11  and  C_12
REMARK    6  A    between atoms: N_20  and  C_21
REMARK    7  A    between atoms: C_24  and  C_25
REMARK                            x       y       z     vdW  Elec       q    Type
REMARK                         _______ _______ _______ _____ _____    ______ ____
ROOT
ATOM      1  C   UNL     1      38.401   2.340  14.358  0.00  0.00    +0.000 C 
ATOM      2  C   UNL     1      37.308   1.991  15.075  0.00  0.00    +0.000 C 
ATOM      3  C   UNL     1      37.130   2.953  16.160  0.00  0.00    +0.000 C 
ATOM      4  O   UNL     1      36.223   2.962  17.040  0.00  0.00    +0.000 OA
ATOM      5  N   UNL     1      38.173   3.926  16.085  0.00  0.00    +0.000 N 
ATOM      6  C   UNL     1      38.948   3.535  14.969  0.00  0.00    +0.000 C 
ATOM      7  O   UNL     1      39.981   4.192  14.602  0.00  0.00    +0.000 OA
ENDROOT
BRANCH   5   8
ATOM      8  C   UNL     1      38.398   5.041  16.925  0.00  0.00    +0.000 A 
ATOM      9  C   UNL     1      38.933   4.924  18.190  0.00  0.00    +0.000 A 
ATOM     10  C   UNL     1      39.147   6.026  19.001  0.00  0.00    +0.000 A 
ATOM     11  C   UNL     1      38.833   7.302  18.581  0.00  0.00    +0.000 A 
ATOM     12  C   UNL     1      38.296   7.435  17.317  0.00  0.00    +0.000 A 
ATOM     13  C   UNL     1      38.084   6.337  16.511  0.00  0.00    +0.000 A 
BRANCH  11  14
ATOM     14  C   UNL     1      39.071   8.477  19.468  0.00  0.00    +0.000 C 
ATOM     15  C   UNL     1      37.801   8.667  20.282  0.00  0.00    +0.000 C 
ATOM     16  C   UNL     1      40.269   8.288  20.348  0.00  0.00    +0.000 C 
ENDBRANCH  11  14
ENDBRANCH   5   8
BRANCH   1  17
ATOM     17  N   UNL     1      38.952   1.713  13.228  0.00  0.00    +0.000 NA
BRANCH  17  22
ATOM     18  C   UNL     1      39.992  -1.737  12.222  0.00  0.00    +0.000 A 
ATOM     19  C   UNL     1      40.905  -1.990  13.242  0.00  0.00    +0.000 A 
ATOM     20  C   UNL     1      41.155  -1.047  14.215  0.00  0.00    +0.000 A 
ATOM     21  C   UNL     1      40.488   0.158  14.170  0.00  0.00    +0.000 A 
ATOM     22  C   UNL     1      39.563   0.458  13.165  0.00  0.00    +0.000 A 
ATOM     23  C   UNL     1      39.350  -0.515  12.219  0.00  0.00    +0.000 A 
BRANCH  18  25
ATOM     24  C   UNL     1      40.516  -2.912  10.110  0.00  0.00    +0.000 C 
ATOM     25  O   UNL     1      39.797  -2.722  11.293  0.00  0.00    +0.000 OA
ENDBRANCH  18  25
ENDBRANCH  17  22
ENDBRANCH   1  17
BRANCH   2  26
ATOM     26  S   UNL     1      36.367   0.570  14.622  0.00  0.00    +0.000 S 
BRANCH  26  27
ATOM     27  C   UNL     1      37.069  -0.980  15.065  0.00  0.00    +0.000 A 
ATOM     28  C   UNL     1      36.931  -2.154  14.387  0.00  0.00    +0.000 A 
ATOM     29  C   UNL     1      37.503  -3.333  14.781  0.00  0.00    +0.000 A 
ATOM     30  C   UNL     1      38.280  -3.427  15.917  0.00  0.00    +0.000 A 
ATOM     31  C   UNL     1      38.428  -2.230  16.618  0.00  0.00    +0.000 A 
ATOM     32  C   UNL     1      37.858  -1.053  16.227  0.00  0.00    +0.000 A 
ENDBRANCH  26  27
ENDBRANCH   2  26
TORSDOF 7
ENDMDL
MODEL 3
REMARK VINA RESULT:      -7.3      3.739      6.777
REMARK  Name = 
REMARK  7 active torsions:
REMARK  status: ('A' for Active; 'I' for Inactive)
REMARK    1  A    between atoms: O_2  and  C_3
REMARK    2  A    between atoms: C_7  and  N_8
REMARK    3  A    between atoms: N_8  and  C_9
REMARK    4  A    between atoms: C_10  and  S_11
REMARK    5  A    between atoms: S_11  and  C_12
REMARK    6  A    between atoms: N_20  and  C_21
REMARK    7  A    between atoms: C_24  and  C_25
REMARK                            x       y       z     vdW  Elec       q    Type
REMARK                         _______ _______ _______ _____ _____    ______ ____
ROOT
ATOM      1  C   UNL     1      37.235   4.862  14.541  0.00  0.00    +0.000 C 
ATOM      2  C   UNL     1      36.879   3.858  15.374  0.00  0.00    +0.000 C 
ATOM      3  C   UNL     1      37.627   3.992  16.621  0.00  0.00    +0.000 C 
ATOM      4  O   UNL     1      37.569   3.246  17.639  0.00  0.00    +0.000 OA
ATOM      5  N   UNL     1      38.475   5.138  16.525  0.00  0.00    +0.000 N 
ATOM      6  C   UNL     1      38.222   5.663  15.238  0.00  0.00    +0.000 C 
ATOM      7  O   UNL     1      38.818   6.708  14.807  0.00  0.00    +0.000 OA
ENDROOT
BRANCH   5   8
ATOM      8  C   UNL     1      39.372   5.652  17.490  0.00  0.00    +0.000 A 
ATOM      9  C   UNL     1      38.996   5.917  18.790  0.00  0.00    +0.000 A 
ATOM     10  C   UNL     1      39.887   6.421  19.723  0.00  0.00    +0.000 A 
ATOM     11  C   UNL     1      41.201   6.684  19.397  0.00  0.00    +0.000 A 
ATOM     12  C   UNL     1      41.592   6.423  18.099  0.00  0.00    +0.000 A 
ATOM     13  C   UNL     1      40.704   5.922  17.171  0.00  0.00    +0.000 A 
BRANCH  11  14
ATOM     14  C   UNL     1      42.146   7.225  20.415  0.00  0.00    +0.000 C 
ATOM     15  C   UNL     1      42.861   6.028  21.021  0.00  0.00    +0.000 C 
ATOM     16  C   UNL     1      43.114   8.205  19.822  0.00  0.00    +0.000 C 
ENDBRANCH  11  14
ENDBRANCH   5   8
BRANCH   1  17
ATOM     17  N   UNL     1      36.776   5.136  13.242  0.00  0.00    +0.000 NA
BRANCH  17  22
ATOM     18  C   UNL     1      34.201   7.057  11.325  0.00  0.00    +0.000 A 
ATOM     19  C   UNL     1      33.354   7.388  12.378  0.00  0.00    +0.000 A 
ATOM     20  C   UNL     1      33.638   6.984  13.665  0.00  0.00    +0.000 A 
ATOM     21  C   UNL     1      34.776   6.244  13.902  0.00  0.00    +0.000 A 
ATOM     22  C   UNL     1      35.657   5.887  12.875  0.00  0.00    +0.000 A 
ATOM     23  C   UNL     1      35.329   6.313  11.612  0.00  0.00    +0.000 A 
BRANCH  18  25
ATOM     24  C   UNL     1      34.599   7.353   8.902  0.00  0.00    +0.000 C 
ATOM     25  O   UNL     1      33.854   7.494  10.076  0.00  0.00    +0.000 OA
ENDBRANCH  18  25
ENDBRANCH  17  22
ENDBRANCH   1  17
BRANCH   2  26
ATOM     26  S   UNL     1      35.681   2.667  14.867  0.00  0.00    +0.000 S 
BRANCH  26  27
ATOM     27  C   UNL     1      35.701   1.145  15.747  0.00  0.00    +0.000 A 
ATOM     28  C   UNL     1      34.929   0.822  16.823  0.00  0.00    +0.000 A 
ATOM     29  C   UNL     1      34.988  -0.383  17.469  0.00  0.00    +0.000 A 
ATOM     30  C   UNL     1      35.851  -1.384  17.074  0.00  0.00    +0.000 A 
ATOM     31  C   UNL     1      36.646  -1.063  15.974  0.00  0.00    +0.000 A 
ATOM     32  C   UNL     1      36.588   0.138  15.328  0.00  0.00    +0.000 A 
ENDBRANCH  26  27
ENDBRANCH   2  26
TORSDOF 7
ENDMDL
MODEL 4
REMARK VINA RESULT:      -7.3      3.746      8.701
REMARK  Name = 
REMARK  7 active torsions:
REMARK  status: ('A' for Active; 'I' for Inactive)
REMARK    1  A    between atoms: O_2  and  C_3
REMARK    2  A    between atoms: C_7  and  N_8
REMARK    3  A    between atoms: N_8  and  C_9
REMARK    4  A    between atoms: C_10  and  S_11
REMARK    5  A    between atoms: S_11  and  C_12
REMARK    6  A    between atoms: N_20  and  C_21
REMARK    7  A    between atoms: C_24  and  C_25
REMARK                            x       y       z     vdW  Elec       q    Type
REMARK                         _______ _______ _______ _____ _____    ______ ____
ROOT
ATOM      1  C   UNL     1      37.115   4.831  14.544  0.00  0.00    +0.000 C 
ATOM      2  C   UNL     1      37.605   5.004  15.793  0.00  0.00    +0.000 C 
ATOM      3  C   UNL     1      37.456   3.754  16.534  0.00  0.00    +0.000 C 
ATOM      4  O   UNL     1      37.795   3.521  17.729  0.00  0.00    +0.000 OA
ATOM      5  N   UNL     1      36.844   2.786  15.681  0.00  0.00    +0.000 N 
ATOM      6  C   UNL     1      36.640   3.465  14.458  0.00  0.00    +0.000 C 
ATOM      7  O   UNL     1      36.103   2.892  13.450  0.00  0.00    +0.000 OA
ENDROOT
BRANCH   5   8
ATOM      8  C   UNL     1      36.511   1.442  15.971  0.00  0.00    +0.000 A 
ATOM      9  C   UNL     1      35.398   1.094  16.706  0.00  0.00    +0.000 A 
ATOM     10  C   UNL     1      35.086  -0.227  16.982  0.00  0.00    +0.000 A 
ATOM     11  C   UNL     1      35.877  -1.265  16.533  0.00  0.00    +0.000 A 
ATOM     12  C   UNL     1      36.995  -0.930  15.796  0.00  0.00    +0.000 A 
ATOM     13  C   UNL     1      37.304   0.385  15.522  0.00  0.00    +0.000 A 
BRANCH  11  14
ATOM     14  C   UNL     1      35.525  -2.681  16.839  0.00  0.00    +0.000 C 
ATOM     15  C   UNL     1      34.703  -3.185  15.663  0.00  0.00    +0.000 C 
ATOM     16  C   UNL     1      36.740  -3.528  17.069  0.00  0.00    +0.000 C 
ENDBRANCH  11  14
ENDBRANCH   5   8
BRANCH   1  17
ATOM     17  N   UNL     1      37.050   5.754  13.487  0.00  0.00    +0.000 NA
BRANCH  17  22
ATOM     18  C   UNL     1      34.582   6.911  10.924  0.00  0.00    +0.000 A 
ATOM     19  C   UNL     1      33.513   7.192  11.769  0.00  0.00    +0.000 A 
ATOM     20  C   UNL     1      33.621   7.001  13.130  0.00  0.00    +0.000 A 
ATOM     21  C   UNL     1      34.805   6.526  13.651  0.00  0.00    +0.000 A 
ATOM     22  C   UNL     1      35.906   6.229  12.841  0.00  0.00    +0.000 A 
ATOM     23  C   UNL     1      35.747   6.436  11.492  0.00  0.00    +0.000 A 
BRANCH  18  25
ATOM     24  C   UNL     1      35.093   6.514   8.536  0.00  0.00    +0.000 C 
ATOM     25  O   UNL     1      34.401   7.126   9.585  0.00  0.00    +0.000 OA
ENDBRANCH  18  25
ENDBRANCH  17  22
ENDBRANCH   1  17
BRANCH   2  26
ATOM     26  S   UNL     1      38.281   6.560  16.274  0.00  0.00    +0.000 S 
BRANCH  26  27
ATOM     27  C   UNL     1      39.533   6.497  17.507  0.00  0.00    +0.000 A 
ATOM     28  C   UNL     1      40.877   6.444  17.294  0.00  0.00    +0.000 A 
ATOM     29  C   UNL     1      41.807   6.397  18.297  0.00  0.00    +0.000 A 
ATOM     30  C   UNL     1      41.448   6.400  19.629  0.00  0.00    +0.000 A 
ATOM     31  C   UNL     1      40.073   6.455  19.859  0.00  0.00    +0.000 A 
ATOM     32  C   UNL     1      39.145   6.502  18.859  0.00  0.00    +0.000 A 
ENDBRANCH  26  27
ENDBRANCH   2  26
TORSDOF 7
ENDMDL
MODEL 5
REMARK VINA RESULT:      -7.3      3.361      9.267
REMARK  Name = 
REMARK  7 active torsions:
REMARK  status: ('A' for Active; 'I' for Inactive)
REMARK    1  A    between atoms: O_2  and  C_3
REMARK    2  A    between atoms: C_7  and  N_8
REMARK    3  A    between atoms: N_8  and  C_9
REMARK    4  A    between atoms: C_10  and  S_11
REMARK    5  A    between atoms: S_11  and  C_12
REMARK    6  A    between atoms: N_20  and  C_21
REMARK    7  A    between atoms: C_24  and  C_25
REMARK                            x       y       z     vdW  Elec       q    Type
REMARK                         _______ _______ _______ _____ _____    ______ ____
ROOT
ATOM      1  C   UNL     1      37.002   5.585  14.792  0.00  0.00    +0.000 C 
ATOM      2  C   UNL     1      37.822   5.550  15.868  0.00  0.00    +0.000 C 
ATOM      3  C   UNL     1      37.716   4.237  16.498  0.00  0.00    +0.000 C 
ATOM      4  O   UNL     1      38.326   3.823  17.525  0.00  0.00    +0.000 OA
ATOM      5  N   UNL     1      36.784   3.448  15.758  0.00  0.00    +0.000 N 
ATOM      6  C   UNL     1      36.352   4.292  14.710  0.00  0.00    +0.000 C 
ATOM      7  O   UNL     1      35.501   3.906  13.840  0.00  0.00    +0.000 OA
ENDROOT
BRANCH   5   8
ATOM      8  C   UNL     1      36.371   2.117  15.999  0.00  0.00    +0.000 A 
ATOM      9  C   UNL     1      37.057   1.025  15.513  0.00  0.00    +0.000 A 
ATOM     10  C   UNL     1      36.640  -0.273  15.758  0.00  0.00    +0.000 A 
ATOM     11  C   UNL     1      35.510  -0.539  16.504  0.00  0.00    +0.000 A 
ATOM     12  C   UNL     1      34.812   0.545  16.997  0.00  0.00    +0.000 A 
ATOM     13  C   UNL     1      35.229   1.836  16.753  0.00  0.00    +0.000 A 
BRANCH  11  14
ATOM     14  C   UNL     1      35.076  -1.942  16.758  0.00  0.00    +0.000 C 
ATOM     15  C   UNL     1      33.650  -1.864  17.281  0.00  0.00    +0.000 C 
ATOM     16  C   UNL     1      35.168  -2.794  15.528  0.00  0.00    +0.000 C 
ENDBRANCH  11  14
ENDBRANCH   5   8
BRANCH   1  17
ATOM     17  N   UNL     1      36.779   6.636  13.887  0.00  0.00    +0.000 NA
BRANCH  17  22
ATOM     18  C   UNL     1      34.019   8.891  15.025  0.00  0.00    +0.000 A 
ATOM     19  C   UNL     1      34.157   9.895  14.071  0.00  0.00    +0.000 A 
ATOM     20  C   UNL     1      35.130   9.814  13.098  0.00  0.00    +0.000 A 
ATOM     21  C   UNL     1      35.970   8.722  13.076  0.00  0.00    +0.000 A 
ATOM     22  C   UNL     1      35.870   7.689  14.014  0.00  0.00    +0.000 A 
ATOM     23  C   UNL     1      34.885   7.818  14.963  0.00  0.00    +0.000 A 
BRANCH  18  25
ATOM     24  C   UNL     1      33.184   9.471  17.279  0.00  0.00    +0.000 C 
ATOM     25  O   UNL     1      33.030   9.041  15.958  0.00  0.00    +0.000 OA
ENDBRANCH  18  25
ENDBRANCH  17  22
ENDBRANCH   1  17
BRANCH   2  26
ATOM     26  S   UNL     1      38.793   6.960  16.290  0.00  0.00    +0.000 S 
BRANCH  26  27
ATOM     27  C   UNL     1      38.831   7.375  17.999  0.00  0.00    +0.000 A 
ATOM     28  C   UNL     1      39.667   6.853  18.939  0.00  0.00    +0.000 A 
ATOM     29  C   UNL     1      39.651   7.216  20.259  0.00  0.00    +0.000 A 
ATOM     30  C   UNL     1      38.768   8.156  20.749  0.00  0.00    +0.000 A 
ATOM     31  C   UNL     1      37.907   8.696  19.793  0.00  0.00    +0.000 A 
ATOM     32  C   UNL     1      37.923   8.335  18.477  0.00  0.00    +0.000 A 
ENDBRANCH  26  27
ENDBRANCH   2  26
TORSDOF 7
ENDMDL
MODEL 6
REMARK VINA RESULT:      -7.2      3.602      7.439
REMARK  Name = 
REMARK  7 active torsions:
REMARK  status: ('A' for Active; 'I' for Inactive)
REMARK    1  A    between atoms: O_2  and  C_3
REMARK    2  A    between atoms: C_7  and  N_8
REMARK    3  A    between atoms: N_8  and  C_9
REMARK    4  A    between atoms: C_10  and  S_11
REMARK    5  A    between atoms: S_11  and  C_12
REMARK    6  A    between atoms: N_20  and  C_21
REMARK    7  A    between atoms: C_24  and  C_25
REMARK                            x       y       z     vdW  Elec       q    Type
REMARK                         _______ _______ _______ _____ _____    ______ ____
ROOT
ATOM      1  C   UNL     1      37.213   6.137  14.885  0.00  0.00    +0.000 C 
ATOM      2  C   UNL     1      37.110   4.854  15.302  0.00  0.00    +0.000 C 
ATOM      3  C   UNL     1      37.989   4.660  16.452  0.00  0.00    +0.000 C 
ATOM      4  O   UNL     1      38.167   3.600  17.116  0.00  0.00    +0.000 OA
ATOM      5  N   UNL     1      38.653   5.893  16.734  0.00  0.00    +0.000 N 
ATOM      6  C   UNL     1      38.164   6.794  15.760  0.00  0.00    +0.000 C 
ATOM      7  O   UNL     1      38.550   8.010  15.712  0.00  0.00    +0.000 OA
ENDROOT
BRANCH   5   8
ATOM      8  C   UNL     1      39.590   6.175  17.755  0.00  0.00    +0.000 A 
ATOM      9  C   UNL     1      39.222   6.372  19.069  0.00  0.00    +0.000 A 
ATOM     10  C   UNL     1      40.152   6.648  20.057  0.00  0.00    +0.000 A 
ATOM     11  C   UNL     1      41.500   6.738  19.775  0.00  0.00    +0.000 A 
ATOM     12  C   UNL     1      41.883   6.542  18.463  0.00  0.00    +0.000 A 
ATOM     13  C   UNL     1      40.956   6.269  17.481  0.00  0.00    +0.000 A 
BRANCH  11  14
ATOM     14  C   UNL     1      42.487   7.034  20.852  0.00  0.00    +0.000 C 
ATOM     15  C   UNL     1      43.175   5.718  21.181  0.00  0.00    +0.000 C 
ATOM     16  C   UNL     1      43.473   8.086  20.441  0.00  0.00    +0.000 C 
ENDBRANCH  11  14
ENDBRANCH   5   8
BRANCH   1  17
ATOM     17  N   UNL     1      36.555   6.774  13.820  0.00  0.00    +0.000 NA
BRANCH  17  22
ATOM     18  C   UNL     1      34.329   9.553  14.970  0.00  0.00    +0.000 A 
ATOM     19  C   UNL     1      34.165  10.211  13.754  0.00  0.00    +0.000 A 
ATOM     20  C   UNL     1      34.772   9.741  12.610  0.00  0.00    +0.000 A 
ATOM     21  C   UNL     1      35.550   8.606  12.679  0.00  0.00    +0.000 A 
ATOM     22  C   UNL     1      35.745   7.911  13.878  0.00  0.00    +0.000 A 
ATOM     23  C   UNL     1      35.118   8.420  14.989  0.00  0.00    +0.000 A 
BRANCH  18  25
ATOM     24  C   UNL     1      33.165   9.371  17.144  0.00  0.00    +0.000 C 
ATOM     25  O   UNL     1      33.694  10.079  16.061  0.00  0.00    +0.000 OA
ENDBRANCH  18  25
ENDBRANCH  17  22
ENDBRANCH   1  17
BRANCH   2  26
ATOM     26  S   UNL     1      36.030   3.736  14.470  0.00  0.00    +0.000 S 
BRANCH  26  27
ATOM     27  C   UNL     1      35.732   2.211  15.294  0.00  0.00    +0.000 A 
ATOM     28  C   UNL     1      34.993   2.033  16.425  0.00  0.00    +0.000 A 
ATOM     29  C   UNL     1      34.795   0.817  17.022  0.00  0.00    +0.000 A 
ATOM     30  C   UNL     1      35.340  -0.345  16.516  0.00  0.00    +0.000 A 
ATOM     31  C   UNL     1      36.099  -0.173  15.358  0.00  0.00    +0.000 A 
ATOM     32  C   UNL     1      36.297   1.038  14.761  0.00  0.00    +0.000 A 
ENDBRANCH  26  27
ENDBRANCH   2  26
TORSDOF 7
ENDMDL
MODEL 7
REMARK VINA RESULT:      -7.2      1.357      3.220
REMARK  Name = 
REMARK  7 active torsions:
REMARK  status: ('A' for Active; 'I' for Inactive)
REMARK    1  A    between atoms: O_2  and  C_3
REMARK    2  A    between atoms: C_7  and  N_8
REMARK    3  A    between atoms: N_8  and  C_9
REMARK    4  A    between atoms: C_10  and  S_11
REMARK    5  A    between atoms: S_11  and  C_12
REMARK    6  A    between atoms: N_20  and  C_21
REMARK    7  A    between atoms: C_24  and  C_25
REMARK                            x       y       z     vdW  Elec       q    Type
REMARK                         _______ _______ _______ _____ _____    ______ ____
ROOT
ATOM      1  C   UNL     1      38.512   2.372  14.341  0.00  0.00    +0.000 C 
ATOM      2  C   UNL     1      37.396   2.012  15.016  0.00  0.00    +0.000 C 
ATOM      3  C   UNL     1      37.168   2.967  16.096  0.00  0.00    +0.000 C 
ATOM      4  O   UNL     1      36.229   2.966  16.941  0.00  0.00    +0.000 OA
ATOM      5  N   UNL     1      38.205   3.950  16.064  0.00  0.00    +0.000 N 
ATOM      6  C   UNL     1      39.025   3.569  14.977  0.00  0.00    +0.000 C 
ATOM      7  O   UNL     1      40.065   4.236  14.652  0.00  0.00    +0.000 OA
ENDROOT
BRANCH   5   8
ATOM      8  C   UNL     1      38.388   5.063  16.916  0.00  0.00    +0.000 A 
ATOM      9  C   UNL     1      38.963   4.959  18.165  0.00  0.00    +0.000 A 
ATOM     10  C   UNL     1      39.135   6.060  18.987  0.00  0.00    +0.000 A 
ATOM     11  C   UNL     1      38.738   7.322  18.596  0.00  0.00    +0.000 A 
ATOM     12  C   UNL     1      38.161   7.442  17.348  0.00  0.00    +0.000 A 
ATOM     13  C   UNL     1      37.990   6.345  16.531  0.00  0.00    +0.000 A 
BRANCH  11  14
ATOM     14  C   UNL     1      38.932   8.496  19.495  0.00  0.00    +0.000 C 
ATOM     15  C   UNL     1      37.601   8.731  20.190  0.00  0.00    +0.000 C 
ATOM     16  C   UNL     1      40.039   8.275  20.481  0.00  0.00    +0.000 C 
ENDBRANCH  11  14
ENDBRANCH   5   8
BRANCH   1  17
ATOM     17  N   UNL     1      39.111   1.754  13.232  0.00  0.00    +0.000 NA
BRANCH  17  22
ATOM     18  C   UNL     1      41.324  -1.175  13.953  0.00  0.00    +0.000 A 
ATOM     19  C   UNL     1      40.913  -2.012  12.920  0.00  0.00    +0.000 A 
ATOM     20  C   UNL     1      39.942  -1.609  12.029  0.00  0.00    +0.000 A 
ATOM     21  C   UNL     1      39.376  -0.360  12.171  0.00  0.00    +0.000 A 
ATOM     22  C   UNL     1      39.757   0.515  13.193  0.00  0.00    +0.000 A 
ATOM     23  C   UNL     1      40.728   0.066  14.054  0.00  0.00    +0.000 A 
BRANCH  18  25
ATOM     24  C   UNL     1      43.661  -1.745  14.528  0.00  0.00    +0.000 C 
ATOM     25  O   UNL     1      42.293  -1.645  14.796  0.00  0.00    +0.000 OA
ENDBRANCH  18  25
ENDBRANCH  17  22
ENDBRANCH   1  17
BRANCH   2  26
ATOM     26  S   UNL     1      36.484   0.585  14.523  0.00  0.00    +0.000 S 
BRANCH  26  27
ATOM     27  C   UNL     1      37.223  -0.963  14.914  0.00  0.00    +0.000 A 
ATOM     28  C   UNL     1      37.030  -2.140  14.257  0.00  0.00    +0.000 A 
ATOM     29  C   UNL     1      37.635  -3.317  14.609  0.00  0.00    +0.000 A 
ATOM     30  C   UNL     1      38.503  -3.403  15.677  0.00  0.00    +0.000 A 
ATOM     31  C   UNL     1      38.708  -2.202  16.357  0.00  0.00    +0.000 A 
ATOM     32  C   UNL     1      38.106  -1.028  16.007  0.00  0.00    +0.000 A 
ENDBRANCH  26  27
ENDBRANCH   2  26
TORSDOF 7
ENDMDL
MODEL 8
REMARK VINA RESULT:      -7.1      3.312      9.167
REMARK  Name = 
REMARK  7 active torsions:
REMARK  status: ('A' for Active; 'I' for Inactive)
REMARK    1  A    between atoms: O_2  and  C_3
REMARK    2  A    between atoms: C_7  and  N_8
REMARK    3  A    between atoms: N_8  and  C_9
REMARK    4  A    between atoms: C_10  and  S_11
REMARK    5  A    between atoms: S_11  and  C_12
REMARK    6  A    between atoms: N_20  and  C_21
REMARK    7  A    between atoms: C_24  and  C_25
REMARK                            x       y       z     vdW  Elec       q    Type
REMARK                         _______ _______ _______ _____ _____    ______ ____
ROOT
ATOM      1  C   UNL     1      38.050   5.565  15.846  0.00  0.00    +0.000 C 
ATOM      2  C   UNL     1      37.294   5.674  14.729  0.00  0.00    +0.000 C 
ATOM      3  C   UNL     1      36.522   4.445  14.561  0.00  0.00    +0.000 C 
ATOM      4  O   UNL     1      35.704   4.169  13.639  0.00  0.00    +0.000 OA
ATOM      5  N   UNL     1      36.837   3.557  15.635  0.00  0.00    +0.000 N 
ATOM      6  C   UNL     1      37.780   4.261  16.418  0.00  0.00    +0.000 C 
ATOM      7  O   UNL     1      38.287   3.759  17.477  0.00  0.00    +0.000 OA
ENDROOT
BRANCH   5   8
ATOM      8  C   UNL     1      36.329   2.260  15.882  0.00  0.00    +0.000 A 
ATOM      9  C   UNL     1      35.225   2.032  16.675  0.00  0.00    +0.000 A 
ATOM     10  C   UNL     1      34.741   0.755  16.907  0.00  0.00    +0.000 A 
ATOM     11  C   UNL     1      35.341  -0.356  16.353  0.00  0.00    +0.000 A 
ATOM     12  C   UNL     1      36.448  -0.143  15.556  0.00  0.00    +0.000 A 
ATOM     13  C   UNL     1      36.929   1.128  15.326  0.00  0.00    +0.000 A 
BRANCH  11  14
ATOM     14  C   UNL     1      34.805  -1.723  16.613  0.00  0.00    +0.000 C 
ATOM     15  C   UNL     1      35.921  -2.502  17.292  0.00  0.00    +0.000 C 
ATOM     16  C   UNL     1      33.563  -1.693  17.450  0.00  0.00    +0.000 C 
ENDBRANCH  11  14
ENDBRANCH   5   8
BRANCH   1  17
ATOM     17  N   UNL     1      38.944   6.497  16.400  0.00  0.00    +0.000 NA
BRANCH  17  22
ATOM     18  C   UNL     1      38.499   8.100  19.751  0.00  0.00    +0.000 A 
ATOM     19  C   UNL     1      39.503   7.429  20.443  0.00  0.00    +0.000 A 
ATOM     20  C   UNL     1      40.286   6.487  19.812  0.00  0.00    +0.000 A 
ATOM     21  C   UNL     1      40.066   6.213  18.479  0.00  0.00    +0.000 A 
ATOM     22  C   UNL     1      39.069   6.861  17.743  0.00  0.00    +0.000 A 
ATOM     23  C   UNL     1      38.316   7.791  18.418  0.00  0.00    +0.000 A 
BRANCH  18  25
ATOM     24  C   UNL     1      38.207  10.257  20.925  0.00  0.00    +0.000 C 
ATOM     25  O   UNL     1      37.763   9.022  20.445  0.00  0.00    +0.000 OA
ENDBRANCH  18  25
ENDBRANCH  17  22
ENDBRANCH   1  17
BRANCH   2  26
ATOM     26  S   UNL     1      37.355   7.143  13.756  0.00  0.00    +0.000 S 
BRANCH  26  27
ATOM     27  C   UNL     1      36.027   8.271  13.995  0.00  0.00    +0.000 A 
ATOM     28  C   UNL     1      34.905   8.054  14.736  0.00  0.00    +0.000 A 
ATOM     29  C   UNL     1      33.902   8.972  14.886  0.00  0.00    +0.000 A 
ATOM     30  C   UNL     1      33.949  10.213  14.286  0.00  0.00    +0.000 A 
ATOM     31  C   UNL     1      35.095  10.446  13.524  0.00  0.00    +0.000 A 
ATOM     32  C   UNL     1      36.096   9.531  13.374  0.00  0.00    +0.000 A 
ENDBRANCH  26  27
ENDBRANCH   2  26
TORSDOF 7
ENDMDL
MODEL 9
REMARK VINA RESULT:      -6.8     25.887     27.672
REMARK  Name = 
REMARK  7 active torsions:
REMARK  status: ('A' for Active; 'I' for Inactive)
REMARK    1  A    between atoms: O_2  and  C_3
REMARK    2  A    between atoms: C_7  and  N_8
REMARK    3  A    between atoms: N_8  and  C_9
REMARK    4  A    between atoms: C_10  and  S_11
REMARK    5  A    between atoms: S_11  and  C_12
REMARK    6  A    between atoms: N_20  and  C_21
REMARK    7  A    between atoms: C_24  and  C_25
REMARK                            x       y       z     vdW  Elec       q    Type
REMARK                         _______ _______ _______ _____ _____    ______ ____
ROOT
ATOM      1  C   UNL     1      14.143   0.163  28.825  0.00  0.00    +0.000 C 
ATOM      2  C   UNL     1      13.355  -0.181  27.780  0.00  0.00    +0.000 C 
ATOM      3  C   UNL     1      14.195  -0.379  26.602  0.00  0.00    +0.000 C 
ATOM      4  O   UNL     1      13.826  -0.706  25.439  0.00  0.00    +0.000 OA
ATOM      5  N   UNL     1      15.556  -0.138  26.964  0.00  0.00    +0.000 N 
ATOM      6  C   UNL     1      15.508   0.195  28.337  0.00  0.00    +0.000 C 
ATOM      7  O   UNL     1      16.563   0.476  29.000  0.00  0.00    +0.000 OA
ENDROOT
BRANCH   5   8
ATOM      8  C   UNL     1      16.710  -0.213  26.149  0.00  0.00    +0.000 A 
ATOM      9  C   UNL     1      17.344  -1.404  25.865  0.00  0.00    +0.000 A 
ATOM     10  C   UNL     1      18.473  -1.460  25.065  0.00  0.00    +0.000 A 
ATOM     11  C   UNL     1      19.022  -0.322  24.511  0.00  0.00    +0.000 A 
ATOM     12  C   UNL     1      18.398   0.878  24.788  0.00  0.00    +0.000 A 
ATOM     13  C   UNL     1      17.274   0.932  25.584  0.00  0.00    +0.000 A 
BRANCH  11  14
ATOM     14  C   UNL     1      20.239  -0.402  23.652  0.00  0.00    +0.000 C 
ATOM     15  C   UNL     1      20.120  -1.692  22.855  0.00  0.00    +0.000 C 
ATOM     16  C   UNL     1      20.377   0.791  22.755  0.00  0.00    +0.000 C 
ENDBRANCH  11  14
ENDBRANCH   5   8
BRANCH   1  17
ATOM     17  N   UNL     1      13.776   0.447  30.151  0.00  0.00    +0.000 NA
BRANCH  17  22
ATOM     18  C   UNL     1      14.798  -1.092  33.404  0.00  0.00    +0.000 A 
ATOM     19  C   UNL     1      13.958  -2.202  33.388  0.00  0.00    +0.000 A 
ATOM     20  C   UNL     1      13.095  -2.417  32.336  0.00  0.00    +0.000 A 
ATOM     21  C   UNL     1      13.069  -1.518  31.292  0.00  0.00    +0.000 A 
ATOM     22  C   UNL     1      13.894  -0.389  31.264  0.00  0.00    +0.000 A 
ATOM     23  C   UNL     1      14.736  -0.219  32.336  0.00  0.00    +0.000 A 
BRANCH  18  25
ATOM     24  C   UNL     1      15.363  -0.229  35.652  0.00  0.00    +0.000 C 
ATOM     25  O   UNL     1      15.628  -0.946  34.481  0.00  0.00    +0.000 OA
ENDBRANCH  18  25
ENDBRANCH  17  22
ENDBRANCH   1  17
BRANCH   2  26
ATOM     26  S   UNL     1      11.611  -0.325  27.995  0.00  0.00    +0.000 S 
BRANCH  26  27
ATOM     27  C   UNL     1      10.626   0.472  26.775  0.00  0.00    +0.000 A 
ATOM     28  C   UNL     1       9.849  -0.138  25.837  0.00  0.00    +0.000 A 
ATOM     29  C   UNL     1       9.102   0.537  24.910  0.00  0.00    +0.000 A 
ATOM     30  C   UNL     1       9.077   1.915  24.853  0.00  0.00    +0.000 A 
ATOM     31  C   UNL     1       9.869   2.550  25.810  0.00  0.00    +0.000 A 
ATOM     32  C   UNL     1      10.615   1.878  26.734  0.00  0.00    +0.000 A 
ENDBRANCH  26  27
ENDBRANCH   2  26
TORSDOF 7
ENDMDL
MODEL 10
REMARK VINA RESULT:      -6.8     24.602     28.811
REMARK  Name = 
REMARK  7 active torsions:
REMARK  status: ('A' for Active; 'I' for Inactive)
REMARK    1  A    between atoms: O_2  and  C_3
REMARK    2  A    between atoms: C_7  and  N_8
REMARK    3  A    between atoms: N_8  and  C_9
REMARK    4  A    between atoms: C_10  and  S_11
REMARK    5  A    between atoms: S_11  and  C_12
REMARK    6  A    between atoms: N_20  and  C_21
REMARK    7  A    between atoms: C_24  and  C_25
REMARK                            x       y       z     vdW  Elec       q    Type
REMARK                         _______ _______ _______ _____ _____    ______ ____
ROOT
ATOM      1  C   UNL     1      27.455  15.688  38.522  0.00  0.00    +0.000 C 
ATOM      2  C   UNL     1      26.127  15.681  38.260  0.00  0.00    +0.000 C 
ATOM      3  C   UNL     1      25.491  14.654  39.079  0.00  0.00    +0.000 C 
ATOM      4  O   UNL     1      24.266  14.346  39.115  0.00  0.00    +0.000 OA
ATOM      5  N   UNL     1      26.492  14.014  39.872  0.00  0.00    +0.000 N 
ATOM      6  C   UNL     1      27.697  14.663  39.517  0.00  0.00    +0.000 C 
ATOM      7  O   UNL     1      28.816  14.340  40.042  0.00  0.00    +0.000 OA
ENDROOT
BRANCH   5   8
ATOM      8  C   UNL     1      26.337  12.967  40.809  0.00  0.00    +0.000 A 
ATOM      9  C   UNL     1      25.673  13.132  42.006  0.00  0.00    +0.000 A 
ATOM     10  C   UNL     1      25.529  12.096  42.914  0.00  0.00    +0.000 A 
ATOM     11  C   UNL     1      26.046  10.841  42.665  0.00  0.00    +0.000 A 
ATOM     12  C   UNL     1      26.714  10.661  41.470  0.00  0.00    +0.000 A 
ATOM     13  C   UNL     1      26.856  11.693  40.567  0.00  0.00    +0.000 A 
BRANCH  11  14
ATOM     14  C   UNL     1      25.881   9.738  43.654  0.00  0.00    +0.000 C 
ATOM     15  C   UNL     1      24.395   9.419  43.701  0.00  0.00    +0.000 C 
ATOM     16  C   UNL     1      26.693   8.531  43.294  0.00  0.00    +0.000 C 
ENDBRANCH  11  14
ENDBRANCH   5   8
BRANCH   1  17
ATOM     17  N   UNL     1      28.458  16.505  37.975  0.00  0.00    +0.000 NA
BRANCH  17  22
ATOM     18  C   UNL     1      30.597  15.176  35.208  0.00  0.00    +0.000 A 
ATOM     19  C   UNL     1      30.387  16.185  34.273  0.00  0.00    +0.000 A 
ATOM     20  C   UNL     1      29.567  17.255  34.562  0.00  0.00    +0.000 A 
ATOM     21  C   UNL     1      28.953  17.318  35.794  0.00  0.00    +0.000 A 
ATOM     22  C   UNL     1      29.134  16.328  36.765  0.00  0.00    +0.000 A 
ATOM     23  C   UNL     1      29.959  15.283  36.428  0.00  0.00    +0.000 A 
BRANCH  18  25
ATOM     24  C   UNL     1      32.774  14.003  35.179  0.00  0.00    +0.000 C 
ATOM     25  O   UNL     1      31.423  14.147  34.850  0.00  0.00    +0.000 OA
ENDBRANCH  18  25
ENDBRANCH  17  22
ENDBRANCH   1  17
BRANCH   2  26
ATOM     26  S   UNL     1      25.450  16.809  37.086  0.00  0.00    +0.000 S 
BRANCH  26  27
ATOM     27  C   UNL     1      25.466  16.268  35.413  0.00  0.00    +0.000 A 
ATOM     28  C   UNL     1      25.056  16.982  34.327  0.00  0.00    +0.000 A 
ATOM     29  C   UNL     1      25.093  16.506  33.045  0.00  0.00    +0.000 A 
ATOM     30  C   UNL     1      25.556  15.242  32.745  0.00  0.00    +0.000 A 
ATOM     31  C   UNL     1      25.978  14.502  33.850  0.00  0.00    +0.000 A 
ATOM     32  C   UNL     1      25.942  14.976  35.130  0.00  0.00    +0.000 A 
ENDBRANCH  26  27
ENDBRANCH   2  26
TORSDOF 7
ENDMDL
