MODEL 1
REMARK VINA RESULT:      -6.2      0.000      0.000
REMARK  Name = 
REMARK  3 active torsions:
REMARK  status: ('A' for Active; 'I' for Inactive)
REMARK    1  A    between atoms: O_2  and  C_3
REMARK    2  A    between atoms: C_8  and  C_9
REMARK    3  A    between atoms: C_9  and  C_11
REMARK                            x       y       z     vdW  Elec       q    Type
REMARK                         _______ _______ _______ _____ _____    ______ ____
ROOT
ATOM      1  C   UNL     1      27.693  23.761  23.104  0.00  0.00    +0.000 C 
ATOM      2  O   UNL     1      26.835  23.021  22.558  0.00  0.00    +0.000 OA
ENDROOT
BRANCH   1   3
ATOM      3  C   UNL     1      27.886  25.153  22.614  0.00  0.00    +0.000 A 
ATOM      4  C   UNL     1      28.782  25.401  21.597  0.00  0.00    +0.000 A 
ATOM      5  N   UNL     1      29.583  24.475  20.871  0.00  0.00    +0.000 NA
ATOM      6  S   UNL     1      28.713  27.076  21.401  0.00  0.00    +0.000 S 
ATOM      7  C   UNL     1      27.561  27.460  22.595  0.00  0.00    +0.000 A 
ATOM      8  C   UNL     1      27.249  26.243  23.132  0.00  0.00    +0.000 A 
ATOM      9  C   UNL     1      26.222  26.508  24.230  0.00  0.00    +0.000 C 
ATOM     10  C   UNL     1      26.412  27.936  24.579  0.00  0.00    +0.000 C 
ATOM     11  C   UNL     1      26.795  28.588  23.258  0.00  0.00    +0.000 C 
ENDBRANCH   1   3
BRANCH   1  17
ATOM     12  C   UNL     1      27.822  22.980  25.424  0.00  0.00    +0.000 A 
ATOM     13  C   UNL     1      28.565  22.491  26.457  0.00  0.00    +0.000 A 
ATOM     14  C   UNL     1      29.912  22.205  26.342  0.00  0.00    +0.000 A 
ATOM     15  C   UNL     1      30.548  22.421  25.137  0.00  0.00    +0.000 A 
ATOM     16  C   UNL     1      29.800  22.907  24.123  0.00  0.00    +0.000 A 
ATOM     17  C   UNL     1      28.449  23.206  24.192  0.00  0.00    +0.000 A 
BRANCH  12  19
ATOM     18  C   UNL     1      26.004  23.759  26.780  0.00  0.00    +0.000 C 
ATOM     19  O   UNL     1      26.471  23.274  25.512  0.00  0.00    +0.000 OA
ENDBRANCH  12  19
ENDBRANCH   1  17
TORSDOF 3
ENDMDL
MODEL 2
REMARK VINA RESULT:      -6.0      1.712      2.510
REMARK  Name = 
REMARK  3 active torsions:
REMARK  status: ('A' for Active; 'I' for Inactive)
REMARK    1  A    between atoms: O_2  and  C_3
REMARK    2  A    between atoms: C_8  and  C_9
REMARK    3  A    between atoms: C_9  and  C_11
REMARK                            x       y       z     vdW  Elec       q    Type
REMARK                         _______ _______ _______ _____ _____    ______ ____
ROOT
ATOM      1  C   UNL     1      27.338  23.772  23.648  0.00  0.00    +0.000 C 
ATOM      2  O   UNL     1      26.441  23.037  23.161  0.00  0.00    +0.000 OA
ENDROOT
BRANCH   1   3
ATOM      3  C   UNL     1      27.413  25.204  23.250  0.00  0.00    +0.000 A 
ATOM      4  C   UNL     1      26.557  26.118  23.824  0.00  0.00    +0.000 A 
ATOM      5  N   UNL     1      25.567  25.905  24.825  0.00  0.00    +0.000 NA
ATOM      6  S   UNL     1      26.954  27.572  23.063  0.00  0.00    +0.000 S 
ATOM      7  C   UNL     1      28.192  27.029  22.028  0.00  0.00    +0.000 A 
ATOM      8  C   UNL     1      28.270  25.693  22.307  0.00  0.00    +0.000 A 
ATOM      9  C   UNL     1      29.358  25.127  21.399  0.00  0.00    +0.000 C 
ATOM     10  C   UNL     1      29.468  26.108  20.293  0.00  0.00    +0.000 C 
ATOM     11  C   UNL     1      29.186  27.446  20.962  0.00  0.00    +0.000 C 
ENDBRANCH   1   3
BRANCH   1  17
ATOM     12  C   UNL     1      27.824  22.887  25.881  0.00  0.00    +0.000 A 
ATOM     13  C   UNL     1      28.717  22.355  26.762  0.00  0.00    +0.000 A 
ATOM     14  C   UNL     1      30.030  22.084  26.428  0.00  0.00    +0.000 A 
ATOM     15  C   UNL     1      30.472  22.358  25.150  0.00  0.00    +0.000 A 
ATOM     16  C   UNL     1      29.576  22.886  24.288  0.00  0.00    +0.000 A 
ATOM     17  C   UNL     1      28.253  23.173  24.578  0.00  0.00    +0.000 A 
BRANCH  12  19
ATOM     18  C   UNL     1      26.245  23.638  27.522  0.00  0.00    +0.000 C 
ATOM     19  O   UNL     1      26.503  23.167  26.191  0.00  0.00    +0.000 OA
ENDBRANCH  12  19
ENDBRANCH   1  17
TORSDOF 3
ENDMDL
MODEL 3
REMARK VINA RESULT:      -6.0      2.744      4.695
REMARK  Name = 
REMARK  3 active torsions:
REMARK  status: ('A' for Active; 'I' for Inactive)
REMARK    1  A    between atoms: O_2  and  C_3
REMARK    2  A    between atoms: C_8  and  C_9
REMARK    3  A    between atoms: C_9  and  C_11
REMARK                            x       y       z     vdW  Elec       q    Type
REMARK                         _______ _______ _______ _____ _____    ______ ____
ROOT
ATOM      1  C   UNL     1      26.504  23.343  25.698  0.00  0.00    +0.000 C 
ATOM      2  O   UNL     1      25.676  22.636  25.069  0.00  0.00    +0.000 OA
ENDROOT
BRANCH   1   3
ATOM      3  C   UNL     1      26.019  24.431  26.590  0.00  0.00    +0.000 A 
ATOM      4  C   UNL     1      25.683  25.654  26.054  0.00  0.00    +0.000 A 
ATOM      5  N   UNL     1      25.697  26.063  24.690  0.00  0.00    +0.000 NA
ATOM      6  S   UNL     1      25.241  26.574  27.398  0.00  0.00    +0.000 S 
ATOM      7  C   UNL     1      25.479  25.421  28.629  0.00  0.00    +0.000 A 
ATOM      8  C   UNL     1      25.908  24.318  27.946  0.00  0.00    +0.000 A 
ATOM      9  C   UNL     1      26.159  23.235  28.992  0.00  0.00    +0.000 C 
ATOM     10  C   UNL     1      26.341  23.979  30.261  0.00  0.00    +0.000 C 
ATOM     11  C   UNL     1      25.405  25.172  30.123  0.00  0.00    +0.000 C 
ENDBRANCH   1   3
BRANCH   1  17
ATOM     12  C   UNL     1      28.494  23.282  24.268  0.00  0.00    +0.000 A 
ATOM     13  C   UNL     1      29.808  22.961  24.100  0.00  0.00    +0.000 A 
ATOM     14  C   UNL     1      30.581  22.417  25.107  0.00  0.00    +0.000 A 
ATOM     15  C   UNL     1      30.014  22.181  26.342  0.00  0.00    +0.000 A 
ATOM     16  C   UNL     1      28.711  22.503  26.494  0.00  0.00    +0.000 A 
ATOM     17  C   UNL     1      27.899  23.050  25.515  0.00  0.00    +0.000 A 
BRANCH  12  19
ATOM     18  C   UNL     1      28.245  23.838  21.948  0.00  0.00    +0.000 C 
ATOM     19  O   UNL     1      27.696  23.829  23.275  0.00  0.00    +0.000 OA
ENDBRANCH  12  19
ENDBRANCH   1  17
TORSDOF 3
ENDMDL
MODEL 4
REMARK VINA RESULT:      -5.9      2.435      5.124
REMARK  Name = 
REMARK  3 active torsions:
REMARK  status: ('A' for Active; 'I' for Inactive)
REMARK    1  A    between atoms: O_2  and  C_3
REMARK    2  A    between atoms: C_8  and  C_9
REMARK    3  A    between atoms: C_9  and  C_11
REMARK                            x       y       z     vdW  Elec       q    Type
REMARK                         _______ _______ _______ _____ _____    ______ ____
ROOT
ATOM      1  C   UNL     1      27.449  23.758  22.935  0.00  0.00    +0.000 C 
ATOM      2  O   UNL     1      26.609  23.115  22.255  0.00  0.00    +0.000 OA
ENDROOT
BRANCH   1   3
ATOM      3  C   UNL     1      27.820  23.277  24.294  0.00  0.00    +0.000 A 
ATOM      4  C   UNL     1      26.837  23.068  25.237  0.00  0.00    +0.000 A 
ATOM      5  N   UNL     1      25.428  23.219  25.102  0.00  0.00    +0.000 NA
ATOM      6  S   UNL     1      27.693  22.584  26.609  0.00  0.00    +0.000 S 
ATOM      7  C   UNL     1      29.281  22.644  25.996  0.00  0.00    +0.000 A 
ATOM      8  C   UNL     1      29.102  23.051  24.703  0.00  0.00    +0.000 A 
ATOM      9  C   UNL     1      30.495  23.144  24.086  0.00  0.00    +0.000 C 
ATOM     10  C   UNL     1      31.408  23.273  25.246  0.00  0.00    +0.000 C 
ATOM     11  C   UNL     1      30.745  22.435  26.329  0.00  0.00    +0.000 C 
ENDBRANCH   1   3
BRANCH   1  17
ATOM     12  C   UNL     1      27.558  26.200  22.763  0.00  0.00    +0.000 A 
ATOM     13  C   UNL     1      28.074  27.312  22.166  0.00  0.00    +0.000 A 
ATOM     14  C   UNL     1      29.027  27.253  21.168  0.00  0.00    +0.000 A 
ATOM     15  C   UNL     1      29.486  26.022  20.744  0.00  0.00    +0.000 A 
ATOM     16  C   UNL     1      28.965  24.930  21.344  0.00  0.00    +0.000 A 
ATOM     17  C   UNL     1      28.011  24.942  22.347  0.00  0.00    +0.000 A 
BRANCH  12  19
ATOM     18  C   UNL     1      26.945  26.971  24.949  0.00  0.00    +0.000 C 
ATOM     19  O   UNL     1      26.603  26.232  23.767  0.00  0.00    +0.000 OA
ENDBRANCH  12  19
ENDBRANCH   1  17
TORSDOF 3
ENDMDL
MODEL 5
REMARK VINA RESULT:      -5.8     20.563     22.261
REMARK  Name = 
REMARK  3 active torsions:
REMARK  status: ('A' for Active; 'I' for Inactive)
REMARK    1  A    between atoms: O_2  and  C_3
REMARK    2  A    between atoms: C_8  and  C_9
REMARK    3  A    between atoms: C_9  and  C_11
REMARK                            x       y       z     vdW  Elec       q    Type
REMARK                         _______ _______ _______ _____ _____    ______ ____
ROOT
ATOM      1  C   UNL     1      17.661  10.169  37.175  0.00  0.00    +0.000 C 
ATOM      2  O   UNL     1      17.879   9.280  36.312  0.00  0.00    +0.000 OA
ENDROOT
BRANCH   1   3
ATOM      3  C   UNL     1      18.700  10.475  38.196  0.00  0.00    +0.000 A 
ATOM      4  C   UNL     1      19.058   9.514  39.115  0.00  0.00    +0.000 A 
ATOM      5  N   UNL     1      18.586   8.176  39.235  0.00  0.00    +0.000 NA
ATOM      6  S   UNL     1      20.203  10.290  40.082  0.00  0.00    +0.000 S 
ATOM      7  C   UNL     1      20.229  11.818  39.330  0.00  0.00    +0.000 A 
ATOM      8  C   UNL     1      19.322  11.684  38.317  0.00  0.00    +0.000 A 
ATOM      9  C   UNL     1      19.278  13.030  37.599  0.00  0.00    +0.000 C 
ATOM     10  C   UNL     1      19.801  13.998  38.592  0.00  0.00    +0.000 C 
ATOM     11  C   UNL     1      20.844  13.203  39.364  0.00  0.00    +0.000 C 
ENDBRANCH   1   3
BRANCH   1  17
ATOM     12  C   UNL     1      16.115  11.695  36.040  0.00  0.00    +0.000 A 
ATOM     13  C   UNL     1      14.927  12.363  36.025  0.00  0.00    +0.000 A 
ATOM     14  C   UNL     1      13.987  12.244  37.030  0.00  0.00    +0.000 A 
ATOM     15  C   UNL     1      14.247  11.416  38.103  0.00  0.00    +0.000 A 
ATOM     16  C   UNL     1      15.427  10.761  38.105  0.00  0.00    +0.000 A 
ATOM     17  C   UNL     1      16.398  10.849  37.121  0.00  0.00    +0.000 A 
BRANCH  12  19
ATOM     18  C   UNL     1      16.656  11.447  33.717  0.00  0.00    +0.000 C 
ATOM     19  O   UNL     1      17.074  11.796  35.045  0.00  0.00    +0.000 OA
ENDBRANCH  12  19
ENDBRANCH   1  17
TORSDOF 3
ENDMDL
MODEL 6
REMARK VINA RESULT:      -5.8     32.232     33.964
REMARK  Name = 
REMARK  3 active torsions:
REMARK  status: ('A' for Active; 'I' for Inactive)
REMARK    1  A    between atoms: O_2  and  C_3
REMARK    2  A    between atoms: C_8  and  C_9
REMARK    3  A    between atoms: C_9  and  C_11
REMARK                            x       y       z     vdW  Elec       q    Type
REMARK                         _______ _______ _______ _____ _____    ______ ____
ROOT
ATOM      1  C   UNL     1      20.021  -8.570  24.995  0.00  0.00    +0.000 C 
ATOM      2  O   UNL     1      19.238  -9.139  24.192  0.00  0.00    +0.000 OA
ENDROOT
BRANCH   1   3
ATOM      3  C   UNL     1      21.421  -9.058  25.132  0.00  0.00    +0.000 A 
ATOM      4  C   UNL     1      21.709 -10.061  26.031  0.00  0.00    +0.000 A 
ATOM      5  N   UNL     1      20.821 -10.775  26.885  0.00  0.00    +0.000 NA
ATOM      6  S   UNL     1      23.379 -10.260  25.888  0.00  0.00    +0.000 S 
ATOM      7  C   UNL     1      23.711  -9.084  24.702  0.00  0.00    +0.000 A 
ATOM      8  C   UNL     1      22.481  -8.551  24.437  0.00  0.00    +0.000 A 
ATOM      9  C   UNL     1      22.699  -7.469  23.383  0.00  0.00    +0.000 C 
ATOM     10  C   UNL     1      24.134  -7.118  23.502  0.00  0.00    +0.000 C 
ATOM     11  C   UNL     1      24.803  -8.434  23.875  0.00  0.00    +0.000 C 
ENDBRANCH   1   3
BRANCH   1  17
ATOM     12  C   UNL     1      18.473  -7.668  26.667  0.00  0.00    +0.000 A 
ATOM     13  C   UNL     1      17.970  -6.596  27.342  0.00  0.00    +0.000 A 
ATOM     14  C   UNL     1      18.437  -5.309  27.159  0.00  0.00    +0.000 A 
ATOM     15  C   UNL     1      19.456  -5.082  26.257  0.00  0.00    +0.000 A 
ATOM     16  C   UNL     1      19.944  -6.153  25.595  0.00  0.00    +0.000 A 
ATOM     17  C   UNL     1      19.508  -7.458  25.746  0.00  0.00    +0.000 A 
BRANCH  12  19
ATOM     18  C   UNL     1      17.584  -9.329  28.151  0.00  0.00    +0.000 C 
ATOM     19  O   UNL     1      18.023  -8.968  26.833  0.00  0.00    +0.000 OA
ENDBRANCH  12  19
ENDBRANCH   1  17
TORSDOF 3
ENDMDL
MODEL 7
REMARK VINA RESULT:      -5.5      1.954      3.219
REMARK  Name = 
REMARK  3 active torsions:
REMARK  status: ('A' for Active; 'I' for Inactive)
REMARK    1  A    between atoms: O_2  and  C_3
REMARK    2  A    between atoms: C_8  and  C_9
REMARK    3  A    between atoms: C_9  and  C_11
REMARK                            x       y       z     vdW  Elec       q    Type
REMARK                         _______ _______ _______ _____ _____    ______ ____
ROOT
ATOM      1  C   UNL     1      27.638  23.740  23.558  0.00  0.00    +0.000 C 
ATOM      2  O   UNL     1      27.180  22.934  22.709  0.00  0.00    +0.000 OA
ENDROOT
BRANCH   1   3
ATOM      3  C   UNL     1      27.635  25.200  23.266  0.00  0.00    +0.000 A 
ATOM      4  C   UNL     1      26.775  26.030  23.950  0.00  0.00    +0.000 A 
ATOM      5  N   UNL     1      25.849  25.702  24.980  0.00  0.00    +0.000 NA
ATOM      6  S   UNL     1      27.071  27.552  23.282  0.00  0.00    +0.000 S 
ATOM      7  C   UNL     1      28.274  27.141  22.147  0.00  0.00    +0.000 A 
ATOM      8  C   UNL     1      28.419  25.793  22.320  0.00  0.00    +0.000 A 
ATOM      9  C   UNL     1      29.480  25.344  21.319  0.00  0.00    +0.000 C 
ATOM     10  C   UNL     1      29.491  26.407  20.286  0.00  0.00    +0.000 C 
ATOM     11  C   UNL     1      29.191  27.679  21.067  0.00  0.00    +0.000 C 
ENDBRANCH   1   3
BRANCH   1  17
ATOM     12  C   UNL     1      29.522  22.956  24.917  0.00  0.00    +0.000 A 
ATOM     13  C   UNL     1      29.982  22.399  26.073  0.00  0.00    +0.000 A 
ATOM     14  C   UNL     1      29.152  22.057  27.123  0.00  0.00    +0.000 A 
ATOM     15  C   UNL     1      27.795  22.283  27.012  0.00  0.00    +0.000 A 
ATOM     16  C   UNL     1      27.353  22.834  25.861  0.00  0.00    +0.000 A 
ATOM     17  C   UNL     1      28.147  23.193  24.785  0.00  0.00    +0.000 A 
BRANCH  12  19
ATOM     18  C   UNL     1      31.533  24.027  24.170  0.00  0.00    +0.000 C 
ATOM     19  O   UNL     1      30.332  23.308  23.850  0.00  0.00    +0.000 OA
ENDBRANCH  12  19
ENDBRANCH   1  17
TORSDOF 3
ENDMDL
MODEL 8
REMARK VINA RESULT:      -5.5      1.608      2.571
REMARK  Name = 
REMARK  3 active torsions:
REMARK  status: ('A' for Active; 'I' for Inactive)
REMARK    1  A    between atoms: O_2  and  C_3
REMARK    2  A    between atoms: C_8  and  C_9
REMARK    3  A    between atoms: C_9  and  C_11
REMARK                            x       y       z     vdW  Elec       q    Type
REMARK                         _______ _______ _______ _____ _____    ______ ____
ROOT
ATOM      1  C   UNL     1      27.995  23.715  23.734  0.00  0.00    +0.000 C 
ATOM      2  O   UNL     1      27.902  22.967  22.727  0.00  0.00    +0.000 OA
ENDROOT
BRANCH   1   3
ATOM      3  C   UNL     1      27.584  25.142  23.633  0.00  0.00    +0.000 A 
ATOM      4  C   UNL     1      28.401  26.043  22.985  0.00  0.00    +0.000 A 
ATOM      5  N   UNL     1      29.642  25.809  22.327  0.00  0.00    +0.000 NA
ATOM      6  S   UNL     1      27.585  27.512  23.148  0.00  0.00    +0.000 S 
ATOM      7  C   UNL     1      26.223  26.991  24.027  0.00  0.00    +0.000 A 
ATOM      8  C   UNL     1      26.441  25.651  24.177  0.00  0.00    +0.000 A 
ATOM      9  C   UNL     1      25.258  25.110  24.976  0.00  0.00    +0.000 C 
ATOM     10  C   UNL     1      24.702  26.297  25.666  0.00  0.00    +0.000 C 
ATOM     11  C   UNL     1      24.928  27.434  24.680  0.00  0.00    +0.000 C 
ENDBRANCH   1   3
BRANCH   1  17
ATOM     12  C   UNL     1      29.877  22.904  25.078  0.00  0.00    +0.000 A 
ATOM     13  C   UNL     1      30.336  22.316  26.219  0.00  0.00    +0.000 A 
ATOM     14  C   UNL     1      29.504  21.937  27.254  0.00  0.00    +0.000 A 
ATOM     15  C   UNL     1      28.146  22.155  27.143  0.00  0.00    +0.000 A 
ATOM     16  C   UNL     1      27.705  22.738  26.007  0.00  0.00    +0.000 A 
ATOM     17  C   UNL     1      28.502  23.135  24.946  0.00  0.00    +0.000 A 
BRANCH  12  19
ATOM     18  C   UNL     1      31.990  23.796  24.375  0.00  0.00    +0.000 C 
ATOM     19  O   UNL     1      30.691  23.294  24.026  0.00  0.00    +0.000 OA
ENDBRANCH  12  19
ENDBRANCH   1  17
TORSDOF 3
ENDMDL
MODEL 9
REMARK VINA RESULT:      -5.4      3.069      5.648
REMARK  Name = 
REMARK  3 active torsions:
REMARK  status: ('A' for Active; 'I' for Inactive)
REMARK    1  A    between atoms: O_2  and  C_3
REMARK    2  A    between atoms: C_8  and  C_9
REMARK    3  A    between atoms: C_9  and  C_11
REMARK                            x       y       z     vdW  Elec       q    Type
REMARK                         _______ _______ _______ _____ _____    ______ ____
ROOT
ATOM      1  C   UNL     1      30.378  23.023  24.879  0.00  0.00    +0.000 C 
ATOM      2  O   UNL     1      31.083  22.252  24.179  0.00  0.00    +0.000 OA
ENDROOT
BRANCH   1   3
ATOM      3  C   UNL     1      31.012  23.821  25.963  0.00  0.00    +0.000 A 
ATOM      4  C   UNL     1      31.340  25.140  25.737  0.00  0.00    +0.000 A 
ATOM      5  N   UNL     1      31.128  25.923  24.567  0.00  0.00    +0.000 NA
ATOM      6  S   UNL     1      32.059  25.628  27.184  0.00  0.00    +0.000 S 
ATOM      7  C   UNL     1      31.946  24.176  28.068  0.00  0.00    +0.000 A 
ATOM      8  C   UNL     1      31.335  23.324  27.192  0.00  0.00    +0.000 A 
ATOM      9  C   UNL     1      31.210  21.984  27.913  0.00  0.00    +0.000 C 
ATOM     10  C   UNL     1      32.236  22.040  28.981  0.00  0.00    +0.000 C 
ATOM     11  C   UNL     1      32.259  23.506  29.391  0.00  0.00    +0.000 C 
ENDBRANCH   1   3
BRANCH   1  17
ATOM     12  C   UNL     1      28.556  23.521  23.317  0.00  0.00    +0.000 A 
ATOM     13  C   UNL     1      27.219  23.616  23.067  0.00  0.00    +0.000 A 
ATOM     14  C   UNL     1      26.256  23.302  24.006  0.00  0.00    +0.000 A 
ATOM     15  C   UNL     1      26.648  22.874  25.258  0.00  0.00    +0.000 A 
ATOM     16  C   UNL     1      27.975  22.786  25.493  0.00  0.00    +0.000 A 
ATOM     17  C   UNL     1      28.974  23.089  24.582  0.00  0.00    +0.000 A 
BRANCH  12  19
ATOM     18  C   UNL     1      29.221  24.847  21.433  0.00  0.00    +0.000 C 
ATOM     19  O   UNL     1      29.541  23.828  22.393  0.00  0.00    +0.000 OA
ENDBRANCH  12  19
ENDBRANCH   1  17
TORSDOF 3
ENDMDL
MODEL 10
REMARK VINA RESULT:      -5.4     27.410     30.258
REMARK  Name = 
REMARK  3 active torsions:
REMARK  status: ('A' for Active; 'I' for Inactive)
REMARK    1  A    between atoms: O_2  and  C_3
REMARK    2  A    between atoms: C_8  and  C_9
REMARK    3  A    between atoms: C_9  and  C_11
REMARK                            x       y       z     vdW  Elec       q    Type
REMARK                         _______ _______ _______ _____ _____    ______ ____
ROOT
ATOM      1  C   UNL     1      32.981  -2.681  34.585  0.00  0.00    +0.000 C 
ATOM      2  O   UNL     1      31.792  -2.915  34.921  0.00  0.00    +0.000 OA
ENDROOT
BRANCH   1   3
ATOM      3  C   UNL     1      33.971  -3.792  34.550  0.00  0.00    +0.000 A 
ATOM      4  C   UNL     1      34.796  -4.005  35.632  0.00  0.00    +0.000 A 
ATOM      5  N   UNL     1      34.838  -3.307  36.872  0.00  0.00    +0.000 NA
ATOM      6  S   UNL     1      35.762  -5.303  35.150  0.00  0.00    +0.000 S 
ATOM      7  C   UNL     1      35.127  -5.574  33.593  0.00  0.00    +0.000 A 
ATOM      8  C   UNL     1      34.152  -4.623  33.483  0.00  0.00    +0.000 A 
ATOM      9  C   UNL     1      33.540  -4.794  32.095  0.00  0.00    +0.000 C 
ATOM     10  C   UNL     1      34.576  -5.514  31.318  0.00  0.00    +0.000 C 
ATOM     11  C   UNL     1      35.235  -6.426  32.344  0.00  0.00    +0.000 C 
ENDBRANCH   1   3
BRANCH   1  17
ATOM     12  C   UNL     1      33.051  -0.300  35.163  0.00  0.00    +0.000 A 
ATOM     13  C   UNL     1      33.342   0.984  34.811  0.00  0.00    +0.000 A 
ATOM     14  C   UNL     1      33.892   1.320  33.589  0.00  0.00    +0.000 A 
ATOM     15  C   UNL     1      34.163   0.324  32.674  0.00  0.00    +0.000 A 
ATOM     16  C   UNL     1      33.869  -0.944  33.036  0.00  0.00    +0.000 A 
ATOM     17  C   UNL     1      33.319  -1.326  34.248  0.00  0.00    +0.000 A 
BRANCH  12  19
ATOM     18  C   UNL     1      33.212  -0.240  37.555  0.00  0.00    +0.000 C 
ATOM     19  O   UNL     1      32.501  -0.663  36.382  0.00  0.00    +0.000 OA
ENDBRANCH  12  19
ENDBRANCH   1  17
TORSDOF 3
ENDMDL
