MODEL 1
REMARK VINA RESULT:      -6.0      0.000      0.000
REMARK  Name = 
REMARK  4 active torsions:
REMARK  status: ('A' for Active; 'I' for Inactive)
REMARK    1  A    between atoms: C_3  and  C_4
REMARK    2  A    between atoms: C_4  and  C_5
REMARK    3  A    between atoms: C_9  and  C_10
REMARK    4  A    between atoms: C_14  and  C_15
REMARK                            x       y       z     vdW  Elec       q    Type
REMARK                         _______ _______ _______ _____ _____    ______ ____
ROOT
ATOM      1  C   UNL     1      33.757   3.360  33.754  0.00  0.00    +0.000 C 
ATOM      2  C   UNL     1      33.882   2.744  35.093  0.00  0.00    +0.000 A 
ATOM      3  C   UNL     1      33.536   1.429  35.279  0.00  0.00    +0.000 A 
ATOM      4  N   UNL     1      33.655   0.881  36.508  0.00  0.00    +0.000 NA
ATOM      5  C   UNL     1      34.101   1.574  37.575  0.00  0.00    +0.000 A 
ATOM      6  C   UNL     1      34.442   2.885  37.368  0.00  0.00    +0.000 A 
ATOM      7  N   UNL     1      34.924   3.650  38.483  0.00  0.00    +0.000 NA
ATOM      8  C   UNL     1      34.347   3.511  36.139  0.00  0.00    +0.000 A 
ENDROOT
BRANCH   8   9
ATOM      9  C   UNL     1      34.733   4.902  35.942  0.00  0.00    +0.000 A 
ATOM     10  C   UNL     1      33.836   5.962  36.120  0.00  0.00    +0.000 A 
ATOM     11  C   UNL     1      34.242   7.266  35.936  0.00  0.00    +0.000 A 
ATOM     12  C   UNL     1      35.521   7.535  35.580  0.00  0.00    +0.000 A 
ATOM     13  C   UNL     1      36.435   6.533  35.395  0.00  0.00    +0.000 A 
ATOM     14  C   UNL     1      36.031   5.215  35.578  0.00  0.00    +0.000 A 
ENDBRANCH   8   9
BRANCH   5  15
ATOM     15  C   UNL     1      34.225   0.939  38.878  0.00  0.00    +0.000 C 
ATOM     16  N   UNL     1      34.324   0.417  39.898  0.00  0.00    +0.000 NA
ENDBRANCH   5  15
BRANCH   3  17
ATOM     17  C   UNL     1      33.025   0.636  34.116  0.00  0.00    +0.000 C 
BRANCH  17  18
ATOM     18  C   UNL     1      34.163  -0.260  33.608  0.00  0.00    +0.000 C 
ATOM     19  C   UNL     1      34.519   0.166  32.175  0.00  0.00    +0.000 C 
ATOM     20  C   UNL     1      33.633  -1.704  33.536  0.00  0.00    +0.000 C 
ENDBRANCH  17  18
ENDBRANCH   3  17
TORSDOF 4
ENDMDL
MODEL 2
REMARK VINA RESULT:      -5.8      1.663      5.792
REMARK  Name = 
REMARK  4 active torsions:
REMARK  status: ('A' for Active; 'I' for Inactive)
REMARK    1  A    between atoms: C_3  and  C_4
REMARK    2  A    between atoms: C_4  and  C_5
REMARK    3  A    between atoms: C_9  and  C_10
REMARK    4  A    between atoms: C_14  and  C_15
REMARK                            x       y       z     vdW  Elec       q    Type
REMARK                         _______ _______ _______ _____ _____    ______ ____
ROOT
ATOM      1  C   UNL     1      33.484   1.258  33.475  0.00  0.00    +0.000 C 
ATOM      2  C   UNL     1      33.705   1.541  34.910  0.00  0.00    +0.000 A 
ATOM      3  C   UNL     1      33.950   2.825  35.328  0.00  0.00    +0.000 A 
ATOM      4  N   UNL     1      34.150   3.066  36.642  0.00  0.00    +0.000 NA
ATOM      5  C   UNL     1      34.122   2.094  37.575  0.00  0.00    +0.000 A 
ATOM      6  C   UNL     1      33.876   0.819  37.137  0.00  0.00    +0.000 A 
ATOM      7  N   UNL     1      33.837  -0.241  38.105  0.00  0.00    +0.000 NA
ATOM      8  C   UNL     1      33.661   0.497  35.810  0.00  0.00    +0.000 A 
ENDROOT
BRANCH   8   9
ATOM      9  C   UNL     1      33.383  -0.865  35.373  0.00  0.00    +0.000 A 
ATOM     10  C   UNL     1      32.087  -1.392  35.338  0.00  0.00    +0.000 A 
ATOM     11  C   UNL     1      31.863  -2.681  34.907  0.00  0.00    +0.000 A 
ATOM     12  C   UNL     1      32.902  -3.455  34.509  0.00  0.00    +0.000 A 
ATOM     13  C   UNL     1      34.187  -2.983  34.525  0.00  0.00    +0.000 A 
ATOM     14  C   UNL     1      34.420  -1.683  34.960  0.00  0.00    +0.000 A 
ENDBRANCH   8   9
BRANCH   5  15
ATOM     15  C   UNL     1      34.331   2.402  38.981  0.00  0.00    +0.000 C 
ATOM     16  N   UNL     1      34.476   2.657  40.093  0.00  0.00    +0.000 NA
ENDBRANCH   5  15
BRANCH   3  17
ATOM     17  C   UNL     1      33.999   3.926  34.315  0.00  0.00    +0.000 C 
BRANCH  17  18
ATOM     18  C   UNL     1      33.083   5.061  34.793  0.00  0.00    +0.000 C 
ATOM     19  C   UNL     1      32.177   5.485  33.627  0.00  0.00    +0.000 C 
ATOM     20  C   UNL     1      33.970   6.270  35.143  0.00  0.00    +0.000 C 
ENDBRANCH  17  18
ENDBRANCH   3  17
TORSDOF 4
ENDMDL
MODEL 3
REMARK VINA RESULT:      -5.7     21.898     25.215
REMARK  Name = 
REMARK  4 active torsions:
REMARK  status: ('A' for Active; 'I' for Inactive)
REMARK    1  A    between atoms: C_3  and  C_4
REMARK    2  A    between atoms: C_4  and  C_5
REMARK    3  A    between atoms: C_9  and  C_10
REMARK    4  A    between atoms: C_14  and  C_15
REMARK                            x       y       z     vdW  Elec       q    Type
REMARK                         _______ _______ _______ _____ _____    ______ ____
ROOT
ATOM      1  C   UNL     1      25.148  25.568  29.085  0.00  0.00    +0.000 C 
ATOM      2  C   UNL     1      25.324  25.019  27.723  0.00  0.00    +0.000 A 
ATOM      3  C   UNL     1      24.604  25.535  26.675  0.00  0.00    +0.000 A 
ATOM      4  N   UNL     1      24.775  25.022  25.438  0.00  0.00    +0.000 NA
ATOM      5  C   UNL     1      25.629  24.012  25.179  0.00  0.00    +0.000 A 
ATOM      6  C   UNL     1      26.338  23.510  26.238  0.00  0.00    +0.000 A 
ATOM      7  N   UNL     1      27.259  22.435  25.997  0.00  0.00    +0.000 NA
ATOM      8  C   UNL     1      26.216  23.986  27.531  0.00  0.00    +0.000 A 
ENDROOT
BRANCH   8   9
ATOM      9  C   UNL     1      26.996  23.446  28.637  0.00  0.00    +0.000 A 
ATOM     10  C   UNL     1      26.513  22.431  29.471  0.00  0.00    +0.000 A 
ATOM     11  C   UNL     1      27.285  21.938  30.499  0.00  0.00    +0.000 A 
ATOM     12  C   UNL     1      28.527  22.434  30.714  0.00  0.00    +0.000 A 
ATOM     13  C   UNL     1      29.044  23.426  29.925  0.00  0.00    +0.000 A 
ATOM     14  C   UNL     1      28.269  23.929  28.886  0.00  0.00    +0.000 A 
ENDBRANCH   8   9
BRANCH   5  15
ATOM     15  C   UNL     1      25.790  23.498  23.827  0.00  0.00    +0.000 C 
ATOM     16  N   UNL     1      25.896  23.085  22.759  0.00  0.00    +0.000 NA
ENDBRANCH   5  15
BRANCH   3  17
ATOM     17  C   UNL     1      23.638  26.651  26.932  0.00  0.00    +0.000 C 
BRANCH  17  18
ATOM     18  C   UNL     1      22.215  26.079  26.872  0.00  0.00    +0.000 C 
ATOM     19  C   UNL     1      21.489  26.695  25.666  0.00  0.00    +0.000 C 
ATOM     20  C   UNL     1      21.467  26.537  28.138  0.00  0.00    +0.000 C 
ENDBRANCH  17  18
ENDBRANCH   3  17
TORSDOF 4
ENDMDL
MODEL 4
REMARK VINA RESULT:      -5.7     20.240     22.449
REMARK  Name = 
REMARK  4 active torsions:
REMARK  status: ('A' for Active; 'I' for Inactive)
REMARK    1  A    between atoms: C_3  and  C_4
REMARK    2  A    between atoms: C_4  and  C_5
REMARK    3  A    between atoms: C_9  and  C_10
REMARK    4  A    between atoms: C_14  and  C_15
REMARK                            x       y       z     vdW  Elec       q    Type
REMARK                         _______ _______ _______ _____ _____    ______ ____
ROOT
ATOM      1  C   UNL     1      30.848  22.765  25.906  0.00  0.00    +0.000 C 
ATOM      2  C   UNL     1      29.791  22.769  26.940  0.00  0.00    +0.000 A 
ATOM      3  C   UNL     1      28.469  22.759  26.572  0.00  0.00    +0.000 A 
ATOM      4  N   UNL     1      27.515  22.765  27.529  0.00  0.00    +0.000 NA
ATOM      5  C   UNL     1      27.803  22.782  28.845  0.00  0.00    +0.000 A 
ATOM      6  C   UNL     1      29.129  22.792  29.192  0.00  0.00    +0.000 A 
ATOM      7  N   UNL     1      29.471  22.807  30.586  0.00  0.00    +0.000 NA
ATOM      8  C   UNL     1      30.158  22.786  28.269  0.00  0.00    +0.000 A 
ENDROOT
BRANCH   8   9
ATOM      9  C   UNL     1      31.560  22.779  28.665  0.00  0.00    +0.000 A 
ATOM     10  C   UNL     1      32.343  23.939  28.673  0.00  0.00    +0.000 A 
ATOM     11  C   UNL     1      33.663  23.894  29.066  0.00  0.00    +0.000 A 
ATOM     12  C   UNL     1      34.218  22.719  29.450  0.00  0.00    +0.000 A 
ATOM     13  C   UNL     1      33.492  21.558  29.459  0.00  0.00    +0.000 A 
ATOM     14  C   UNL     1      32.160  21.597  29.063  0.00  0.00    +0.000 A 
ENDBRANCH   8   9
BRANCH   5  15
ATOM     15  C   UNL     1      26.743  22.774  29.842  0.00  0.00    +0.000 C 
ATOM     16  N   UNL     1      25.909  22.790  30.633  0.00  0.00    +0.000 NA
ENDBRANCH   5  15
BRANCH   3  17
ATOM     17  C   UNL     1      28.115  22.752  25.117  0.00  0.00    +0.000 C 
BRANCH  17  18
ATOM     18  C   UNL     1      27.063  23.841  24.871  0.00  0.00    +0.000 C 
ATOM     19  C   UNL     1      25.800  23.183  24.294  0.00  0.00    +0.000 C 
ATOM     20  C   UNL     1      27.612  24.796  23.795  0.00  0.00    +0.000 C 
ENDBRANCH  17  18
ENDBRANCH   3  17
TORSDOF 4
ENDMDL
MODEL 5
REMARK VINA RESULT:      -5.6     20.475     23.073
REMARK  Name = 
REMARK  4 active torsions:
REMARK  status: ('A' for Active; 'I' for Inactive)
REMARK    1  A    between atoms: C_3  and  C_4
REMARK    2  A    between atoms: C_4  and  C_5
REMARK    3  A    between atoms: C_9  and  C_10
REMARK    4  A    between atoms: C_14  and  C_15
REMARK                            x       y       z     vdW  Elec       q    Type
REMARK                         _______ _______ _______ _____ _____    ______ ____
ROOT
ATOM      1  C   UNL     1      18.661  -9.180  28.899  0.00  0.00    +0.000 C 
ATOM      2  C   UNL     1      17.453  -9.443  28.087  0.00  0.00    +0.000 A 
ATOM      3  C   UNL     1      16.626 -10.491  28.405  0.00  0.00    +0.000 A 
ATOM      4  N   UNL     1      15.528 -10.718  27.653  0.00  0.00    +0.000 NA
ATOM      5  C   UNL     1      15.201  -9.956  26.590  0.00  0.00    +0.000 A 
ATOM      6  C   UNL     1      16.039  -8.915  26.289  0.00  0.00    +0.000 A 
ATOM      7  N   UNL     1      15.719  -8.082  25.165  0.00  0.00    +0.000 NA
ATOM      8  C   UNL     1      17.180  -8.622  27.014  0.00  0.00    +0.000 A 
ENDROOT
BRANCH   8   9
ATOM      9  C   UNL     1      18.045  -7.497  26.684  0.00  0.00    +0.000 A 
ATOM     10  C   UNL     1      17.789  -6.196  27.134  0.00  0.00    +0.000 A 
ATOM     11  C   UNL     1      18.638  -5.161  26.811  0.00  0.00    +0.000 A 
ATOM     12  C   UNL     1      19.736  -5.393  26.051  0.00  0.00    +0.000 A 
ATOM     13  C   UNL     1      20.028  -6.648  25.588  0.00  0.00    +0.000 A 
ATOM     14  C   UNL     1      19.175  -7.698  25.910  0.00  0.00    +0.000 A 
ENDBRANCH   8   9
BRANCH   5  15
ATOM     15  C   UNL     1      14.000 -10.231  25.815  0.00  0.00    +0.000 C 
ATOM     16  N   UNL     1      13.042 -10.427  25.210  0.00  0.00    +0.000 NA
ENDBRANCH   5  15
BRANCH   3  17
ATOM     17  C   UNL     1      16.968 -11.364  29.573  0.00  0.00    +0.000 C 
BRANCH  17  18
ATOM     18  C   UNL     1      15.905 -11.151  30.659  0.00  0.00    +0.000 C 
ATOM     19  C   UNL     1      16.525 -10.324  31.796  0.00  0.00    +0.000 C 
ATOM     20  C   UNL     1      15.542 -12.529  31.243  0.00  0.00    +0.000 C 
ENDBRANCH  17  18
ENDBRANCH   3  17
TORSDOF 4
ENDMDL
MODEL 6
REMARK VINA RESULT:      -5.6     20.391     23.595
REMARK  Name = 
REMARK  4 active torsions:
REMARK  status: ('A' for Active; 'I' for Inactive)
REMARK    1  A    between atoms: C_3  and  C_4
REMARK    2  A    between atoms: C_4  and  C_5
REMARK    3  A    between atoms: C_9  and  C_10
REMARK    4  A    between atoms: C_14  and  C_15
REMARK                            x       y       z     vdW  Elec       q    Type
REMARK                         _______ _______ _______ _____ _____    ______ ____
ROOT
ATOM      1  C   UNL     1      30.447  22.824  25.164  0.00  0.00    +0.000 C 
ATOM      2  C   UNL     1      29.458  22.886  26.262  0.00  0.00    +0.000 A 
ATOM      3  C   UNL     1      29.772  22.382  27.499  0.00  0.00    +0.000 A 
ATOM      4  N   UNL     1      28.858  22.446  28.491  0.00  0.00    +0.000 NA
ATOM      5  C   UNL     1      27.634  22.985  28.322  0.00  0.00    +0.000 A 
ATOM      6  C   UNL     1      27.339  23.482  27.080  0.00  0.00    +0.000 A 
ATOM      7  N   UNL     1      26.046  24.067  26.866  0.00  0.00    +0.000 NA
ATOM      8  C   UNL     1      28.225  23.453  26.018  0.00  0.00    +0.000 A 
ENDROOT
BRANCH   8   9
ATOM      9  C   UNL     1      27.894  24.006  24.711  0.00  0.00    +0.000 A 
ATOM     10  C   UNL     1      27.246  23.256  23.722  0.00  0.00    +0.000 A 
ATOM     11  C   UNL     1      26.938  23.817  22.502  0.00  0.00    +0.000 A 
ATOM     12  C   UNL     1      27.261  25.108  22.248  0.00  0.00    +0.000 A 
ATOM     13  C   UNL     1      27.894  25.882  23.183  0.00  0.00    +0.000 A 
ATOM     14  C   UNL     1      28.208  25.320  24.416  0.00  0.00    +0.000 A 
ENDBRANCH   8   9
BRANCH   5  15
ATOM     15  C   UNL     1      26.685  23.044  29.423  0.00  0.00    +0.000 C 
ATOM     16  N   UNL     1      25.946  23.108  30.302  0.00  0.00    +0.000 NA
ENDBRANCH   5  15
BRANCH   3  17
ATOM     17  C   UNL     1      31.119  21.766  27.716  0.00  0.00    +0.000 C 
BRANCH  17  18
ATOM     18  C   UNL     1      31.814  22.518  28.859  0.00  0.00    +0.000 C 
ATOM     19  C   UNL     1      32.556  23.728  28.270  0.00  0.00    +0.000 C 
ATOM     20  C   UNL     1      32.877  21.583  29.464  0.00  0.00    +0.000 C 
ENDBRANCH  17  18
ENDBRANCH   3  17
TORSDOF 4
ENDMDL
MODEL 7
REMARK VINA RESULT:      -5.6     22.324     24.234
REMARK  Name = 
REMARK  4 active torsions:
REMARK  status: ('A' for Active; 'I' for Inactive)
REMARK    1  A    between atoms: C_3  and  C_4
REMARK    2  A    between atoms: C_4  and  C_5
REMARK    3  A    between atoms: C_9  and  C_10
REMARK    4  A    between atoms: C_14  and  C_15
REMARK                            x       y       z     vdW  Elec       q    Type
REMARK                         _______ _______ _______ _____ _____    ______ ____
ROOT
ATOM      1  C   UNL     1      31.062  23.417  27.518  0.00  0.00    +0.000 C 
ATOM      2  C   UNL     1      30.136  23.411  26.364  0.00  0.00    +0.000 A 
ATOM      3  C   UNL     1      28.881  22.871  26.493  0.00  0.00    +0.000 A 
ATOM      4  N   UNL     1      28.048  22.871  25.430  0.00  0.00    +0.000 NA
ATOM      5  C   UNL     1      28.396  23.381  24.231  0.00  0.00    +0.000 A 
ATOM      6  C   UNL     1      29.653  23.915  24.123  0.00  0.00    +0.000 A 
ATOM      7  N   UNL     1      30.055  24.470  22.861  0.00  0.00    +0.000 NA
ATOM      8  C   UNL     1      30.558  23.951  25.168  0.00  0.00    +0.000 A 
ENDROOT
BRANCH   8   9
ATOM      9  C   UNL     1      31.883  24.541  25.032  0.00  0.00    +0.000 A 
ATOM     10  C   UNL     1      32.132  25.894  25.289  0.00  0.00    +0.000 A 
ATOM     11  C   UNL     1      33.402  26.413  25.161  0.00  0.00    +0.000 A 
ATOM     12  C   UNL     1      34.428  25.613  24.783  0.00  0.00    +0.000 A 
ATOM     13  C   UNL     1      34.234  24.283  24.521  0.00  0.00    +0.000 A 
ATOM     14  C   UNL     1      32.954  23.754  24.648  0.00  0.00    +0.000 A 
ENDBRANCH   8   9
BRANCH   5  15
ATOM     15  C   UNL     1      27.461  23.372  23.116  0.00  0.00    +0.000 C 
ATOM     16  N   UNL     1      26.740  23.362  22.221  0.00  0.00    +0.000 NA
ENDBRANCH   5  15
BRANCH   3  17
ATOM     17  C   UNL     1      28.468  22.286  27.808  0.00  0.00    +0.000 C 
BRANCH  17  18
ATOM     18  C   UNL     1      27.215  23.026  28.292  0.00  0.00    +0.000 C 
ATOM     19  C   UNL     1      27.605  24.468  28.652  0.00  0.00    +0.000 C 
ATOM     20  C   UNL     1      26.734  22.347  29.589  0.00  0.00    +0.000 C 
ENDBRANCH  17  18
ENDBRANCH   3  17
TORSDOF 4
ENDMDL
MODEL 8
REMARK VINA RESULT:      -5.5     21.049     23.783
REMARK  Name = 
REMARK  4 active torsions:
REMARK  status: ('A' for Active; 'I' for Inactive)
REMARK    1  A    between atoms: C_3  and  C_4
REMARK    2  A    between atoms: C_4  and  C_5
REMARK    3  A    between atoms: C_9  and  C_10
REMARK    4  A    between atoms: C_14  and  C_15
REMARK                            x       y       z     vdW  Elec       q    Type
REMARK                         _______ _______ _______ _____ _____    ______ ____
ROOT
ATOM      1  C   UNL     1      26.601  24.186  25.738  0.00  0.00    +0.000 C 
ATOM      2  C   UNL     1      27.831  23.642  26.353  0.00  0.00    +0.000 A 
ATOM      3  C   UNL     1      27.804  23.167  27.640  0.00  0.00    +0.000 A 
ATOM      4  N   UNL     1      28.936  22.674  28.188  0.00  0.00    +0.000 NA
ATOM      5  C   UNL     1      30.107  22.627  27.523  0.00  0.00    +0.000 A 
ATOM      6  C   UNL     1      30.114  23.107  26.240  0.00  0.00    +0.000 A 
ATOM      7  N   UNL     1      31.345  23.069  25.502  0.00  0.00    +0.000 NA
ATOM      8  C   UNL     1      28.995  23.624  25.614  0.00  0.00    +0.000 A 
ENDROOT
BRANCH   8   9
ATOM      9  C   UNL     1      29.024  24.111  24.241  0.00  0.00    +0.000 A 
ATOM     10  C   UNL     1      29.468  25.397  23.910  0.00  0.00    +0.000 A 
ATOM     11  C   UNL     1      29.493  25.817  22.599  0.00  0.00    +0.000 A 
ATOM     12  C   UNL     1      29.086  24.984  21.611  0.00  0.00    +0.000 A 
ATOM     13  C   UNL     1      28.644  23.717  21.884  0.00  0.00    +0.000 A 
ATOM     14  C   UNL     1      28.616  23.288  23.207  0.00  0.00    +0.000 A 
ENDBRANCH   8   9
BRANCH   5  15
ATOM     15  C   UNL     1      31.300  22.076  28.149  0.00  0.00    +0.000 C 
ATOM     16  N   UNL     1      32.229  21.626  28.656  0.00  0.00    +0.000 NA
ENDBRANCH   5  15
BRANCH   3  17
ATOM     17  C   UNL     1      26.520  23.215  28.410  0.00  0.00    +0.000 C 
BRANCH  17  18
ATOM     18  C   UNL     1      26.851  23.111  29.905  0.00  0.00    +0.000 C 
ATOM     19  C   UNL     1      26.275  21.793  30.445  0.00  0.00    +0.000 C 
ATOM     20  C   UNL     1      26.124  24.258  30.632  0.00  0.00    +0.000 C 
ENDBRANCH  17  18
ENDBRANCH   3  17
TORSDOF 4
ENDMDL
MODEL 9
REMARK VINA RESULT:      -5.5     22.228     23.949
REMARK  Name = 
REMARK  4 active torsions:
REMARK  status: ('A' for Active; 'I' for Inactive)
REMARK    1  A    between atoms: C_3  and  C_4
REMARK    2  A    between atoms: C_4  and  C_5
REMARK    3  A    between atoms: C_9  and  C_10
REMARK    4  A    between atoms: C_14  and  C_15
REMARK                            x       y       z     vdW  Elec       q    Type
REMARK                         _______ _______ _______ _____ _____    ______ ____
ROOT
ATOM      1  C   UNL     1      30.233  22.977  27.775  0.00  0.00    +0.000 C 
ATOM      2  C   UNL     1      29.377  23.073  26.573  0.00  0.00    +0.000 A 
ATOM      3  C   UNL     1      29.941  23.042  25.323  0.00  0.00    +0.000 A 
ATOM      4  N   UNL     1      29.146  23.131  24.235  0.00  0.00    +0.000 NA
ATOM      5  C   UNL     1      27.806  23.252  24.319  0.00  0.00    +0.000 A 
ATOM      6  C   UNL     1      27.262  23.282  25.576  0.00  0.00    +0.000 A 
ATOM      7  N   UNL     1      25.837  23.407  25.702  0.00  0.00    +0.000 NA
ATOM      8  C   UNL     1      28.013  23.194  26.734  0.00  0.00    +0.000 A 
ENDROOT
BRANCH   8   9
ATOM      9  C   UNL     1      27.408  23.209  28.059  0.00  0.00    +0.000 A 
ATOM     10  C   UNL     1      27.228  22.045  28.815  0.00  0.00    +0.000 A 
ATOM     11  C   UNL     1      26.662  22.101  30.070  0.00  0.00    +0.000 A 
ATOM     12  C   UNL     1      26.273  23.292  30.587  0.00  0.00    +0.000 A 
ATOM     13  C   UNL     1      26.429  24.457  29.886  0.00  0.00    +0.000 A 
ATOM     14  C   UNL     1      26.999  24.407  28.619  0.00  0.00    +0.000 A 
ENDBRANCH   8   9
BRANCH   5  15
ATOM     15  C   UNL     1      26.987  23.332  23.119  0.00  0.00    +0.000 C 
ATOM     16  N   UNL     1      26.321  23.388  22.183  0.00  0.00    +0.000 NA
ENDBRANCH   5  15
BRANCH   3  17
ATOM     17  C   UNL     1      31.428  22.919  25.195  0.00  0.00    +0.000 C 
BRANCH  17  18
ATOM     18  C   UNL     1      31.956  24.176  24.489  0.00  0.00    +0.000 C 
ATOM     19  C   UNL     1      33.490  24.178  24.575  0.00  0.00    +0.000 C 
ATOM     20  C   UNL     1      31.454  25.404  25.271  0.00  0.00    +0.000 C 
ENDBRANCH  17  18
ENDBRANCH   3  17
TORSDOF 4
ENDMDL
MODEL 10
REMARK VINA RESULT:      -5.3     19.149     21.017
REMARK  Name = 
REMARK  4 active torsions:
REMARK  status: ('A' for Active; 'I' for Inactive)
REMARK    1  A    between atoms: C_3  and  C_4
REMARK    2  A    between atoms: C_4  and  C_5
REMARK    3  A    between atoms: C_9  and  C_10
REMARK    4  A    between atoms: C_14  and  C_15
REMARK                            x       y       z     vdW  Elec       q    Type
REMARK                         _______ _______ _______ _____ _____    ______ ____
ROOT
ATOM      1  C   UNL     1      23.597   4.290  18.500  0.00  0.00    +0.000 C 
ATOM      2  C   UNL     1      24.349   3.183  17.870  0.00  0.00    +0.000 A 
ATOM      3  C   UNL     1      23.758   1.954  17.712  0.00  0.00    +0.000 A 
ATOM      4  N   UNL     1      24.458   0.953  17.136  0.00  0.00    +0.000 NA
ATOM      5  C   UNL     1      25.726   1.103  16.705  0.00  0.00    +0.000 A 
ATOM      6  C   UNL     1      26.298   2.337  16.872  0.00  0.00    +0.000 A 
ATOM      7  N   UNL     1      27.647   2.533  16.422  0.00  0.00    +0.000 NA
ATOM      8  C   UNL     1      25.643   3.408  17.451  0.00  0.00    +0.000 A 
ENDROOT
BRANCH   8   9
ATOM      9  C   UNL     1      26.268   4.716  17.601  0.00  0.00    +0.000 A 
ATOM     10  C   UNL     1      26.159   5.715  16.627  0.00  0.00    +0.000 A 
ATOM     11  C   UNL     1      26.754   6.944  16.811  0.00  0.00    +0.000 A 
ATOM     12  C   UNL     1      27.454   7.198  17.943  0.00  0.00    +0.000 A 
ATOM     13  C   UNL     1      27.588   6.252  18.924  0.00  0.00    +0.000 A 
ATOM     14  C   UNL     1      26.990   5.010  18.744  0.00  0.00    +0.000 A 
ENDBRANCH   8   9
BRANCH   5  15
ATOM     15  C   UNL     1      26.438  -0.001  16.078  0.00  0.00    +0.000 C 
ATOM     16  N   UNL     1      26.981  -0.884  15.580  0.00  0.00    +0.000 NA
ENDBRANCH   5  15
BRANCH   3  17
ATOM     17  C   UNL     1      22.354   1.751  18.190  0.00  0.00    +0.000 C 
BRANCH  17  18
ATOM     18  C   UNL     1      21.397   2.179  17.070  0.00  0.00    +0.000 C 
ATOM     19  C   UNL     1      20.110   2.727  17.707  0.00  0.00    +0.000 C 
ATOM     20  C   UNL     1      21.009   0.921  16.271  0.00  0.00    +0.000 C 
ENDBRANCH  17  18
ENDBRANCH   3  17
TORSDOF 4
ENDMDL
