
     RDKit          3D

 32 35  0  0  0  0  0  0  0  0999 V2000
    6.8538    3.2524   -2.5512 C   0  0  0  0  0  0  0  0  0  0  0  0
    7.3859    3.2963   -1.1286 C   0  0  0  0  0  0  0  0  0  0  0  0
    7.1940    2.0282   -0.5444 O   0  0  0  0  0  0  0  0  0  0  0  0
    5.9329    1.4566   -0.4008 C   0  0  0  0  0  0  0  0  0  0  0  0
    5.8407    0.2108    0.1832 C   0  0  0  0  0  0  0  0  0  0  0  0
    4.5921   -0.3622    0.3289 C   0  0  0  0  0  0  0  0  0  0  0  0
    3.4375    0.2595   -0.0850 C   0  0  0  0  0  0  0  0  0  0  0  0
    2.1677   -0.4178    0.1079 C   0  0  0  0  0  0  0  0  0  0  0  0
    0.9653    0.1751   -0.2970 C   0  0  0  0  0  0  0  0  0  0  0  0
   -0.2277   -0.4849   -0.1047 C   0  0  0  0  0  0  0  0  0  0  0  0
   -1.5083    0.0844   -0.5063 C   0  0  0  0  0  0  0  0  0  0  0  0
   -1.4929    1.2197   -1.0441 O   0  0  0  0  0  0  0  0  0  0  0  0
   -2.7339   -0.5694   -0.3210 N   0  0  0  0  0  0  0  0  0  0  0  0
   -3.9993   -0.0417   -0.6966 C   0  0  0  0  0  0  0  0  0  0  0  0
   -4.4035   -0.2821   -2.0027 C   0  0  0  0  0  0  0  0  0  0  0  0
   -3.5237   -1.0436   -2.9139 C   0  0  0  0  0  0  0  0  0  0  0  0
   -5.6221    0.1956   -2.4263 C   0  0  0  0  0  0  0  0  0  0  0  0
   -6.4299    0.9031   -1.5645 C   0  0  0  0  0  0  0  0  0  0  0  0
   -6.0441    1.1500   -0.2663 C   0  0  0  0  0  0  0  0  0  0  0  0
   -4.8069    0.6661    0.1676 C   0  0  0  0  0  0  0  0  0  0  0  0
   -4.3861    0.9134    1.5602 C   0  0  0  0  0  0  0  0  0  0  0  0
   -5.4672    1.6328    2.3499 C   0  0  0  0  0  0  0  0  0  0  0  0
   -3.1007    1.6609    1.7039 C   0  0  0  0  0  0  0  0  0  0  0  0
   -0.1946   -1.7254    0.4892 C   0  0  0  0  0  0  0  0  0  0  0  0
   -1.3748   -2.3898    0.6849 C   0  0  0  0  0  0  0  0  0  0  0  0
   -1.3436   -3.6322    1.2795 C   0  0  0  0  0  0  0  0  0  0  0  0
   -0.1728   -4.2314    1.6843 C   0  0  0  0  0  0  0  0  0  0  0  0
    1.0195   -3.5748    1.4934 C   0  0  0  0  0  0  0  0  0  0  0  0
    0.9893   -2.3305    0.8980 C   0  0  0  0  0  0  0  0  0  0  0  0
    2.1368   -1.6285    0.6811 N   0  0  0  0  0  0  0  0  0  0  0  0
    3.5330    1.5050   -0.6685 C   0  0  0  0  0  0  0  0  0  0  0  0
    4.7836    2.1042   -0.8264 C   0  0  0  0  0  0  0  0  0  0  0  0
  1  2  1  0
  2  3  1  0
  3  4  1  0
  4  5  2  0
  5  6  1  0
  6  7  2  0
  7  8  1  0
  8  9  2  0
  9 10  1  0
 10 11  1  0
 11 12  2  0
 11 13  1  0
 13 14  1  0
 14 15  2  0
 15 16  1  0
 15 17  1  0
 17 18  2  0
 18 19  1  0
 19 20  2  0
 20 21  1  0
 21 22  1  0
 21 23  1  0
 10 24  2  0
 24 25  1  0
 25 26  2  0
 26 27  1  0
 27 28  2  0
 28 29  1  0
 29 30  2  0
  7 31  1  0
 31 32  2  0
 32  4  1  0
 30  8  1  0
 20 14  1  0
 29 24  1  0
M  END
>  <zinc_id>  (1) 
ZINC000002753343

>  <smiles>  (1) 
CCOc1ccc(-c2cc(C(=O)Nc3c(C)cccc3C(C)C)c3ccccc3n2)cc1

$$$$
