
     RDKit          3D

 29 31  0  0  0  0  0  0  0  0999 V2000
   -7.5240   -0.5921    3.7168 C   0  0  0  0  0  0  0  0  0  0  0  0
   -6.5389   -0.4165    2.6163 C   0  0  0  0  0  0  0  0  0  0  0  0
   -6.6761    0.6058    1.6933 C   0  0  0  0  0  0  0  0  0  0  0  0
   -5.7627    0.7793    0.6630 C   0  0  0  0  0  0  0  0  0  0  0  0
   -4.6790   -0.0590    0.5138 C   0  0  0  0  0  0  0  0  0  0  0  0
   -3.7111    0.1156   -0.5688 C   0  0  0  0  0  0  0  0  0  0  0  0
   -3.8685    1.1350   -1.4679 C   0  0  0  0  0  0  0  0  0  0  0  0
   -2.9449    1.2861   -2.4875 C   0  0  0  0  0  0  0  0  0  0  0  0
   -1.8767    0.4243   -2.6026 C   0  0  0  0  0  0  0  0  0  0  0  0
   -0.6619    0.5909   -3.9142 S   0  0  0  0  0  0  0  0  0  0  0  0
    0.6066   -0.6928   -3.7829 C   0  0  0  0  0  0  0  0  0  0  0  0
    1.4169   -0.5162   -2.5563 C   0  0  0  0  0  0  0  0  0  0  0  0
    1.0144   -1.1349   -1.3968 C   0  0  0  0  0  0  0  0  0  0  0  0
    1.7701   -0.9668   -0.2664 C   0  0  0  0  0  0  0  0  0  0  0  0
    2.9017   -0.2084   -0.2612 C   0  0  0  0  0  0  0  0  0  0  0  0
    3.6924   -0.0450    0.9559 C   0  0  0  0  0  0  0  0  0  0  0  0
    3.3658   -0.6007    2.0267 O   0  0  0  0  0  0  0  0  0  0  0  0
    4.8525    0.7506    0.9493 N   0  0  0  0  0  0  0  0  0  0  0  0
    5.7193    0.9985    2.0576 C   0  0  0  0  0  0  0  0  0  0  0  0
    6.3337   -0.2727    2.6142 C   0  0  0  0  0  0  0  0  0  0  0  0
    7.1449   -0.9567    1.5343 C   0  0  0  0  0  0  0  0  0  0  0  0
    7.7635   -2.2183    2.0631 C   0  0  0  0  0  0  0  0  0  0  0  0
    6.2336   -1.2962    0.3891 C   0  0  0  0  0  0  0  0  0  0  0  0
    3.3102    0.4159   -1.4254 C   0  0  0  0  0  0  0  0  0  0  0  0
    2.5469    0.2416   -2.5521 C   0  0  0  0  0  0  0  0  0  0  0  0
   -1.7706   -0.5588   -1.6928 N   0  0  0  0  0  0  0  0  0  0  0  0
   -2.6551   -0.6982   -0.7218 N   0  0  0  0  0  0  0  0  0  0  0  0
   -4.5495   -1.0759    1.4385 C   0  0  0  0  0  0  0  0  0  0  0  0
   -5.4535   -1.2541    2.4650 C   0  0  0  0  0  0  0  0  0  0  0  0
  1  2  1  0
  2  3  2  0
  3  4  1  0
  4  5  2  0
  5  6  1  0
  6  7  2  0
  7  8  1  0
  8  9  2  0
  9 10  1  0
 10 11  1  0
 11 12  1  0
 12 13  2  0
 13 14  1  0
 14 15  2  0
 15 16  1  0
 16 17  2  0
 16 18  1  0
 18 19  1  0
 19 20  1  0
 20 21  1  0
 21 22  1  0
 21 23  1  0
 15 24  1  0
 24 25  2  0
  9 26  1  0
 26 27  2  0
  5 28  1  0
 28 29  2  0
 29  2  1  0
 27  6  1  0
 25 12  1  0
M  END
>  <zinc_id>  (1) 
ZINC000000737802

>  <smiles>  (1) 
Cc1ccc(-c2ccc(SCc3ccc(C(=O)NCCC(C)C)cc3)nn2)cc1

$$$$
