
     RDKit          3D

 31 34  0  0  0  0  0  0  0  0999 V2000
   -7.5568    1.3336   -1.2349 C   0  0  0  0  0  0  0  0  0  0  0  0
   -7.1554    1.2633    0.2052 C   0  0  0  0  0  0  0  0  0  0  0  0
   -5.5510    1.5680    0.2709 C   0  0  1  0  0  0  0  0  0  0  0  0
   -5.4926    1.4089    1.9253 C   0  0  0  0  0  0  0  0  0  0  0  0
   -5.0536    0.1230   -0.0364 C   0  0  0  0  0  0  0  0  0  0  0  0
   -5.8995   -0.8910   -0.3213 C   0  0  0  0  0  0  0  0  0  0  0  0
   -5.4396   -2.1873   -0.6014 C   0  0  0  0  0  0  0  0  0  0  0  0
   -4.0848   -2.3949   -0.5761 C   0  0  0  0  0  0  0  0  0  0  0  0
   -3.1888   -1.3923   -0.2911 C   0  0  0  0  0  0  0  0  0  0  0  0
   -3.7076   -0.1247   -0.0210 C   0  0  0  0  0  0  0  0  0  0  0  0
   -2.8632    0.9775    0.2860 N   0  0  0  0  0  0  0  0  0  0  0  0
   -1.4580    0.7597    0.3174 C   0  0  0  0  0  0  0  0  0  0  0  0
   -1.0456   -0.3877    0.0734 O   0  0  0  0  0  0  0  0  0  0  0  0
   -0.4863    1.8324    0.6253 C   0  0  0  0  0  0  0  0  0  0  0  0
    0.7955    1.3070    0.5858 O   0  0  0  0  0  0  0  0  0  0  0  0
    1.3809    0.7208   -0.5055 C   0  0  0  0  0  0  0  0  0  0  0  0
    0.7605    0.6227   -1.5737 O   0  0  0  0  0  0  0  0  0  0  0  0
    2.7247    0.2135   -0.4205 C   0  0  0  0  0  0  0  0  0  0  0  0
    2.9143   -1.0991   -0.0336 C   0  0  0  0  0  0  0  0  0  0  0  0
    1.8231   -1.8783    0.2565 C   0  0  0  0  0  0  0  0  0  0  0  0
    1.9764   -3.1777    0.6410 C   0  0  0  0  0  0  0  0  0  0  0  0
    3.2141   -3.7278    0.7449 C   0  0  0  0  0  0  0  0  0  0  0  0
    4.3112   -2.9542    0.4562 C   0  0  0  0  0  0  0  0  0  0  0  0
    4.1925   -1.6521    0.0690 C   0  0  0  0  0  0  0  0  0  0  0  0
    5.2744   -0.8444   -0.2294 C   0  0  0  0  0  0  0  0  0  0  0  0
    5.1301    0.4643   -0.6174 C   0  0  0  0  0  0  0  0  0  0  0  0
    6.2288    1.2441   -0.9077 C   0  0  0  0  0  0  0  0  0  0  0  0
    6.0005    2.5475   -1.2893 C   0  0  0  0  0  0  0  0  0  0  0  0
    4.7520    3.0831   -1.3883 C   0  0  0  0  0  0  0  0  0  0  0  0
    3.6548    2.2750   -1.0895 C   0  0  0  0  0  0  0  0  0  0  0  0
    3.8490    0.9672   -0.7047 C   0  0  0  0  0  0  0  0  0  0  0  0
  1  2  1  0
  2  3  1  0
  3  4  1  1
  3  5  1  0
  5  6  2  0
  6  7  1  0
  7  8  2  0
  8  9  1  0
  9 10  2  0
 10 11  1  0
 11 12  1  0
 12 13  2  0
 12 14  1  0
 14 15  1  0
 15 16  1  0
 16 17  2  0
 16 18  1  0
 18 19  1  0
 19 20  2  0
 20 21  1  0
 21 22  2  0
 22 23  1  0
 23 24  2  0
 24 25  1  0
 25 26  2  0
 26 27  1  0
 27 28  2  0
 28 29  1  0
 29 30  2  0
 30 31  1  0
 10  5  1  0
 31 18  2  0
 24 19  1  0
 31 26  1  0
M  END
>  <zinc_id>  (1) 
ZINC000002655413

>  <smiles>  (1) 
CC[C@@H](C)c1ccccc1NC(=O)COC(=O)c1c2ccccc2cc2ccccc12

$$$$
