
     RDKit          3D

 32 35  0  0  0  0  0  0  0  0999 V2000
    6.8892    0.3247    0.9803 C   0  0  0  0  0  0  0  0  0  0  0  0
    6.2066   -0.8637    1.6197 C   0  0  0  0  0  0  0  0  0  0  0  0
    4.8220   -0.7360    1.3466 O   0  0  0  0  0  0  0  0  0  0  0  0
    4.4261   -0.7129   -0.0032 C   0  0  0  0  0  0  0  0  0  0  0  0
    5.3523   -0.8112   -1.0303 C   0  0  0  0  0  0  0  0  0  0  0  0
    4.9356   -0.7857   -2.3436 C   0  0  0  0  0  0  0  0  0  0  0  0
    3.6001   -0.6631   -2.6671 C   0  0  0  0  0  0  0  0  0  0  0  0
    2.6689   -0.5645   -1.6546 C   0  0  0  0  0  0  0  0  0  0  0  0
    3.0887   -0.5903   -0.3410 C   0  0  0  0  0  0  0  0  0  0  0  0
    2.1754   -0.4926    0.7475 N   0  0  0  0  0  0  0  0  0  0  0  0
    0.7721   -0.3606    0.5644 C   0  0  0  0  0  0  0  0  0  0  0  0
    0.1225    0.7676    0.3525 C   0  0  0  0  0  0  0  0  0  0  0  0
    0.9360    2.3748    0.2581 S   0  0  0  0  0  0  0  0  0  0  0  0
   -0.3228    3.5972   -0.0344 C   0  0  0  0  0  0  0  0  0  0  0  0
   -0.7162    3.9742   -1.3001 C   0  0  0  0  0  0  0  0  0  0  0  0
   -1.7146    4.9442   -1.4701 C   0  0  0  0  0  0  0  0  0  0  0  0
   -2.3158    5.5336   -0.3818 C   0  0  0  0  0  0  0  0  0  0  0  0
   -1.9294    5.1637    0.8838 C   0  0  0  0  0  0  0  0  0  0  0  0
   -0.9474    4.2094    1.0274 C   0  0  0  0  0  0  0  0  0  0  0  0
   -1.3008    0.4795    0.2175 C   0  0  0  0  0  0  0  0  0  0  0  0
   -2.1966    1.3437    0.0079 O   0  0  0  0  0  0  0  0  0  0  0  0
   -1.4527   -0.9289    0.3674 N   0  0  0  0  0  0  0  0  0  0  0  0
   -2.6654   -1.6647    0.3111 C   0  0  0  0  0  0  0  0  0  0  0  0
   -3.7925   -1.3522    1.0385 C   0  0  0  0  0  0  0  0  0  0  0  0
   -4.9598   -2.0864    0.9645 C   0  0  0  0  0  0  0  0  0  0  0  0
   -6.1663   -1.7109    1.7753 C   0  0  0  0  0  0  0  0  0  0  0  0
   -4.9889   -3.1924    0.1121 C   0  0  0  0  0  0  0  0  0  0  0  0
   -3.8788   -3.5312   -0.6287 C   0  0  0  0  0  0  0  0  0  0  0  0
   -3.8849   -4.7000   -1.5400 C   0  0  0  0  0  0  0  0  0  0  0  0
   -2.7251   -2.7775   -0.5336 C   0  0  0  0  0  0  0  0  0  0  0  0
   -0.1592   -1.4759    0.5866 C   0  0  0  0  0  0  0  0  0  0  0  0
    0.1218   -2.7118    0.7673 O   0  0  0  0  0  0  0  0  0  0  0  0
  1  2  1  0
  2  3  1  0
  3  4  1  0
  4  5  2  0
  5  6  1  0
  6  7  2  0
  7  8  1  0
  8  9  2  0
  9 10  1  0
 10 11  1  0
 11 12  2  0
 12 13  1  0
 13 14  1  0
 14 15  2  0
 15 16  1  0
 16 17  2  0
 17 18  1  0
 18 19  2  0
 12 20  1  0
 20 21  2  0
 20 22  1  0
 22 23  1  0
 23 24  2  0
 24 25  1  0
 25 26  1  0
 25 27  2  0
 27 28  1  0
 28 29  1  0
 28 30  2  0
 22 31  1  0
 31 32  2  0
  9  4  1  0
 31 11  1  0
 19 14  1  0
 30 23  1  0
M  END
>  <zinc_id>  (1) 
ZINC000001931023

>  <smiles>  (1) 
CCOc1ccccc1NC1=C(Sc2ccccc2)C(=O)N(c2cc(C)cc(C)c2)C1=O

$$$$
