
     RDKit          3D

 30 33  0  0  0  0  0  0  0  0999 V2000
    9.4337   -0.5658   -2.7521 C   0  0  0  0  0  0  0  0  0  0  0  0
    8.9608    0.5428   -2.0093 O   0  0  0  0  0  0  0  0  0  0  0  0
    7.7386    0.4321   -1.3571 C   0  0  0  0  0  0  0  0  0  0  0  0
    7.2290    1.4804   -0.6190 C   0  0  0  0  0  0  0  0  0  0  0  0
    6.0170    1.3826    0.0328 C   0  0  0  0  0  0  0  0  0  0  0  0
    5.2607    0.2276   -0.0264 C   0  0  0  0  0  0  0  0  0  0  0  0
    3.9532    0.0972    0.6663 C   0  0  0  0  0  0  0  0  0  0  0  0
    2.8319    0.5550   -0.2763 C   0  0  0  0  0  0  0  0  0  0  0  0
    1.5532    0.4291    0.3968 N   0  0  0  0  0  0  0  0  0  0  0  0
    1.0368   -0.7874    0.8891 C   0  0  0  0  0  0  0  0  0  0  0  0
    1.6956   -1.8349    0.7529 O   0  0  0  0  0  0  0  0  0  0  0  0
   -0.2532   -0.8127    1.5490 C   0  0  0  0  0  0  0  0  0  0  0  0
   -0.7844   -2.0000    2.0431 C   0  0  0  0  0  0  0  0  0  0  0  0
   -2.0066   -2.0636    2.6757 C   0  0  0  0  0  0  0  0  0  0  0  0
   -2.7467   -0.9230    2.8360 C   0  0  0  0  0  0  0  0  0  0  0  0
   -2.2763    0.2695    2.3718 C   0  0  0  0  0  0  0  0  0  0  0  0
   -3.0167    1.5521    2.5055 C   0  0  0  0  0  0  0  0  0  0  0  0
   -3.5199    1.8960    1.2410 O   0  0  0  0  0  0  0  0  0  0  0  0
   -4.3997    1.0842    0.5724 C   0  0  0  0  0  0  0  0  0  0  0  0
   -4.8419   -0.0980    1.0881 C   0  0  0  0  0  0  0  0  0  0  0  0
   -5.7349   -0.9253    0.4131 C   0  0  0  0  0  0  0  0  0  0  0  0
   -6.1813   -0.5026   -0.8444 C   0  0  0  0  0  0  0  0  0  0  0  0
   -5.7537    0.6789   -1.3851 C   0  0  0  0  0  0  0  0  0  0  0  0
   -4.8695    1.4547   -0.6690 C   0  0  0  0  0  0  0  0  0  0  0  0
   -6.3841    0.8838   -2.7263 C   0  0  0  0  0  0  0  0  0  0  0  0
   -7.5686   -0.0585   -2.6834 C   0  0  0  0  0  0  0  0  0  0  0  0
   -7.1156   -1.1638   -1.7786 C   0  0  0  0  0  0  0  0  0  0  0  0
   -1.0301    0.3114    1.7311 C   0  0  0  0  0  0  0  0  0  0  0  0
    5.7811   -0.8204   -0.7706 C   0  0  0  0  0  0  0  0  0  0  0  0
    6.9914   -0.7216   -1.4209 C   0  0  0  0  0  0  0  0  0  0  0  0
  1  2  1  0
  2  3  1  0
  3  4  2  0
  4  5  1  0
  5  6  2  0
  6  7  1  0
  7  8  1  0
  8  9  1  0
  9 10  1  0
 10 11  2  0
 10 12  1  0
 12 13  2  0
 13 14  1  0
 14 15  2  0
 15 16  1  0
 16 17  1  0
 17 18  1  0
 18 19  1  0
 19 20  2  0
 20 21  1  0
 21 22  2  0
 22 23  1  0
 23 24  2  0
 23 25  1  0
 25 26  1  0
 26 27  1  0
 16 28  2  0
  6 29  1  0
 29 30  2  0
 30  3  1  0
 28 12  1  0
 24 19  1  0
 27 22  1  0
M  END
>  <zinc_id>  (1) 
ZINC000001144478

>  <smiles>  (1) 
COc1ccc(CCNC(=O)c2cccc(COc3ccc4c(c3)CCC4)c2)cc1

$$$$
