
     RDKit          3D

 32 36  0  0  0  0  0  0  0  0999 V2000
    6.7453    4.3090    0.0207 C   0  0  0  0  0  0  0  0  0  0  0  0
    7.2565    2.9032   -0.2152 C   0  0  0  0  0  0  0  0  0  0  0  0
    6.6129    2.0273    0.8388 C   0  0  0  0  0  0  0  0  0  0  0  0
    5.1134    2.0977    0.6788 C   0  0  0  0  0  0  0  0  0  0  0  0
    4.7884    1.5975   -0.7130 C   0  0  0  0  0  0  0  0  0  0  0  0
    5.2909    0.1718   -0.8164 C   0  0  0  0  0  0  0  0  0  0  0  0
    4.6908   -0.6840    0.1269 O   0  0  0  0  0  0  0  0  0  0  0  0
    3.2744   -0.8138    0.0582 C   0  0  0  0  0  0  0  0  0  0  0  0
    2.6286   -1.6265    0.9418 C   0  0  0  0  0  0  0  0  0  0  0  0
    1.2670   -1.7343    0.8551 C   0  0  0  0  0  0  0  0  0  0  0  0
    0.5138   -1.1013   -0.0340 C   0  0  0  0  0  0  0  0  0  0  0  0
   -1.0528   -1.2012   -0.1631 C   0  0  1  0  0  0  0  0  0  0  0  0
   -1.0926   -2.7811   -0.0194 O   0  0  0  0  0  0  0  0  0  0  0  0
   -2.3871   -3.1976   -0.0266 C   0  0  0  0  0  0  0  0  0  0  0  0
   -2.8440   -4.3118   -0.7236 C   0  0  0  0  0  0  0  0  0  0  0  0
   -4.2055   -4.6497   -0.6602 C   0  0  0  0  0  0  0  0  0  0  0  0
   -5.0809   -3.8855    0.0847 C   0  0  0  0  0  0  0  0  0  0  0  0
   -4.6005   -2.7675    0.7791 C   0  0  0  0  0  0  0  0  0  0  0  0
   -3.2314   -2.4731    0.6831 C   0  0  0  0  0  0  0  0  0  0  0  0
   -2.8626   -1.2197    1.5152 C   0  0  2  0  0  0  0  0  0  0  0  0
   -3.3272   -0.1034    0.5203 C   0  0  0  0  0  0  0  0  0  0  0  0
   -2.4523    0.8391    0.5933 C   0  0  0  0  0  0  0  0  0  0  0  0
   -2.5329    2.1002   -0.2032 C   0  0  0  0  0  0  0  0  0  0  0  0
   -3.5768    2.3195   -1.0780 C   0  0  0  0  0  0  0  0  0  0  0  0
   -3.7402    3.4365   -1.8493 C   0  0  0  0  0  0  0  0  0  0  0  0
   -2.7944    4.4204   -1.7496 C   0  0  0  0  0  0  0  0  0  0  0  0
   -1.7356    4.2510   -0.8934 C   0  0  0  0  0  0  0  0  0  0  0  0
   -1.6044    3.0891   -0.1188 C   0  0  0  0  0  0  0  0  0  0  0  0
   -1.4595    0.4272    1.4943 N   0  0  0  0  0  0  0  0  0  0  0  0
   -1.3562   -1.0154    1.3837 N   0  0  0  0  0  0  0  0  0  0  0  0
    1.1937   -0.2914   -0.9088 C   0  0  0  0  0  0  0  0  0  0  0  0
    2.5612   -0.1323   -0.8835 C   0  0  0  0  0  0  0  0  0  0  0  0
  1  2  1  0
  2  3  1  0
  3  4  1  0
  4  5  1  0
  5  6  1  0
  6  7  1  0
  7  8  1  0
  8  9  2  0
  9 10  1  0
 10 11  2  0
 12 11  1  1
 12 13  1  0
 13 14  1  0
 14 15  2  0
 15 16  1  0
 16 17  2  0
 17 18  1  0
 18 19  2  0
 19 20  1  0
 20 21  1  6
 21 22  2  0
 22 23  1  0
 23 24  2  0
 24 25  1  0
 25 26  2  0
 26 27  1  0
 27 28  2  0
 22 29  1  0
 29 30  1  0
 11 31  1  0
 31 32  2  0
 32  8  1  0
 30 12  1  0
 19 14  1  0
 30 20  1  0
 28 23  1  0
M  END
>  <zinc_id>  (1) 
ZINC000002298461

>  <smiles>  (1) 
CCCCCCOc1ccc([C@H]2Oc3ccccc3[C@@H]3C=C(c4ccccc4)NN32)cc1

$$$$
