
     RDKit          3D

 33 36  0  0  0  0  0  0  0  0999 V2000
    7.6509    3.2433   -0.6405 C   0  0  0  0  0  0  0  0  0  0  0  0
    7.6876    2.6915   -2.0658 C   0  0  0  0  0  0  0  0  0  0  0  0
    7.3984    1.3002   -2.0710 O   0  0  0  0  0  0  0  0  0  0  0  0
    6.2164    0.7847   -1.6044 C   0  0  0  0  0  0  0  0  0  0  0  0
    5.2551    1.6579   -1.1031 C   0  0  0  0  0  0  0  0  0  0  0  0
    4.0778    1.1195   -0.6407 C   0  0  0  0  0  0  0  0  0  0  0  0
    3.8022   -0.2350   -0.6477 C   0  0  0  0  0  0  0  0  0  0  0  0
    2.5260   -0.7326   -0.1430 C   0  0  0  0  0  0  0  0  0  0  0  0
    1.5477    0.1000    0.3426 C   0  0  0  0  0  0  0  0  0  0  0  0
    0.3464   -0.3837    0.8123 C   0  0  0  0  0  0  0  0  0  0  0  0
   -0.7041    0.4604    1.3014 C   0  0  0  0  0  0  0  0  0  0  0  0
   -0.3804    1.6641    1.5779 O   0  0  0  0  0  0  0  0  0  0  0  0
   -2.0739    0.0503    1.4974 N   0  0  0  0  0  0  0  0  0  0  0  0
   -2.9185    1.0047    1.9873 N   0  0  0  0  0  0  0  0  0  0  0  0
   -3.9214    1.3751    1.4505 C   0  0  0  0  0  0  0  0  0  0  0  0
   -4.6117    1.0790    0.2724 C   0  0  0  0  0  0  0  0  0  0  0  0
   -4.3403    0.1970   -0.7346 C   0  0  0  0  0  0  0  0  0  0  0  0
   -3.1295   -0.6552   -0.7118 C   0  0  0  0  0  0  0  0  0  0  0  0
   -5.1878    0.0408   -1.8604 C   0  0  0  0  0  0  0  0  0  0  0  0
   -6.3207    0.7697   -1.9898 C   0  0  0  0  0  0  0  0  0  0  0  0
   -7.2479    0.6543   -3.1381 C   0  0  0  0  0  0  0  0  0  0  0  0
   -6.6227    1.6691   -0.9902 C   0  0  0  0  0  0  0  0  0  0  0  0
   -5.8087    1.8103    0.0783 C   0  0  0  0  0  0  0  0  0  0  0  0
   -6.1753    2.7994    1.1412 C   0  0  0  0  0  0  0  0  0  0  0  0
    0.1574   -1.7518    0.7785 C   0  0  0  0  0  0  0  0  0  0  0  0
   -1.0267   -2.3148    1.2474 C   0  0  0  0  0  0  0  0  0  0  0  0
   -1.1768   -3.6799    1.2084 C   0  0  0  0  0  0  0  0  0  0  0  0
   -0.1833   -4.5040    0.7162 C   0  0  0  0  0  0  0  0  0  0  0  0
    0.9782   -3.9494    0.2567 C   0  0  0  0  0  0  0  0  0  0  0  0
    1.1466   -2.5787    0.2887 C   0  0  0  0  0  0  0  0  0  0  0  0
    2.3152   -2.0564   -0.1645 N   0  0  0  0  0  0  0  0  0  0  0  0
    4.7638   -1.0687   -1.1449 C   0  0  0  0  0  0  0  0  0  0  0  0
    5.9601   -0.5608   -1.6189 C   0  0  0  0  0  0  0  0  0  0  0  0
  1  2  1  0
  2  3  1  0
  3  4  1  0
  4  5  2  0
  5  6  1  0
  6  7  2  0
  7  8  1  0
  8  9  2  0
  9 10  1  0
 10 11  1  0
 11 12  2  0
 11 13  1  0
 13 14  1  0
 14 15  2  0
 15 16  1  0
 16 17  2  0
 17 18  1  0
 17 19  1  0
 19 20  2  0
 20 21  1  0
 20 22  1  0
 22 23  2  0
 23 24  1  0
 10 25  2  0
 25 26  1  0
 26 27  2  0
 27 28  1  0
 28 29  2  0
 29 30  1  0
 30 31  2  0
  7 32  1  0
 32 33  2  0
 33  4  1  0
 31  8  1  0
 23 16  1  0
 30 25  1  0
M  END
>  <zinc_id>  (1) 
ZINC000004470439

>  <smiles>  (1) 
CCOc1ccc(-c2cc(C(=O)N/N=C\c3c(C)cc(C)cc3C)c3ccccc3n2)cc1

$$$$
