
     RDKit          3D

 32 35  0  0  0  0  0  0  0  0999 V2000
    5.8555    1.1331   -0.8886 C   0  0  0  0  0  0  0  0  0  0  0  0
    5.0206    1.9423    0.0653 C   0  0  0  0  0  0  0  0  0  0  0  0
    4.5381    1.1650    1.1712 N   0  0  0  0  0  0  0  0  0  0  0  0
    5.6442    0.7921    2.0072 C   0  0  0  0  0  0  0  0  0  0  0  0
    6.5564   -0.1975    1.2936 C   0  0  0  0  0  0  0  0  0  0  0  0
    3.9173   -0.0820    0.7675 C   0  0  0  0  0  0  0  0  0  0  0  0
    2.5233    0.4506   -0.0170 C   0  0  2  0  0  0  0  0  0  0  0  0
    2.0256    1.1518    1.2669 O   0  0  0  0  0  0  0  0  0  0  0  0
    1.7213   -0.9751    0.3934 C   0  0  0  0  0  0  0  0  0  0  0  0
    0.4023   -0.7960   -0.1938 N   0  0  0  0  0  0  0  0  0  0  0  0
   -0.6784   -0.2500    0.3951 C   0  0  0  0  0  0  0  0  0  0  0  0
   -0.7879    0.2866    1.7531 C   0  0  0  0  0  0  0  0  0  0  0  0
   -1.0926    1.6034    2.0235 C   0  0  0  0  0  0  0  0  0  0  0  0
   -1.1930    2.0941    3.3106 C   0  0  0  0  0  0  0  0  0  0  0  0
   -0.9876    1.2659    4.3899 C   0  0  0  0  0  0  0  0  0  0  0  0
   -0.6794   -0.0647    4.1559 C   0  0  0  0  0  0  0  0  0  0  0  0
   -0.5864   -0.5241    2.8712 C   0  0  0  0  0  0  0  0  0  0  0  0
   -1.7494   -0.2485   -0.4681 C   0  0  0  0  0  0  0  0  0  0  0  0
   -3.1169    0.2324   -0.2873 C   0  0  0  0  0  0  0  0  0  0  0  0
   -3.4302    1.5415   -0.0385 C   0  0  0  0  0  0  0  0  0  0  0  0
   -4.7509    1.9072    0.1168 C   0  0  0  0  0  0  0  0  0  0  0  0
   -5.7937    1.0107    0.0338 C   0  0  0  0  0  0  0  0  0  0  0  0
   -5.4851   -0.3065   -0.2163 C   0  0  0  0  0  0  0  0  0  0  0  0
   -4.1639   -0.6667   -0.3706 C   0  0  0  0  0  0  0  0  0  0  0  0
   -1.3211   -0.8210   -1.6567 C   0  0  0  0  0  0  0  0  0  0  0  0
   -1.9556   -1.0774   -2.8592 C   0  0  0  0  0  0  0  0  0  0  0  0
   -1.2759   -1.6710   -3.9025 C   0  0  0  0  0  0  0  0  0  0  0  0
   -1.9645   -1.9512   -5.2146 C   0  0  0  0  0  0  0  0  0  0  0  0
    0.0400   -1.9919   -3.6978 C   0  0  0  0  0  0  0  0  0  0  0  0
    0.6741   -1.7367   -2.4984 C   0  0  0  0  0  0  0  0  0  0  0  0
    2.0903   -2.0784   -2.2707 C   0  0  0  0  0  0  0  0  0  0  0  0
    0.0033   -1.1382   -1.4349 C   0  0  0  0  0  0  0  0  0  0  0  0
  1  2  1  0
  2  3  1  0
  3  4  1  0
  4  5  1  0
  3  6  1  0
  6  7  1  0
  7  8  1  1
  7  9  1  0
  9 10  1  0
 10 11  1  0
 11 12  1  0
 12 13  2  0
 13 14  1  0
 14 15  2  0
 15 16  1  0
 16 17  2  0
 11 18  2  0
 18 19  1  0
 19 20  2  0
 20 21  1  0
 21 22  2  0
 22 23  1  0
 23 24  2  0
 18 25  1  0
 25 26  2  0
 26 27  1  0
 27 28  1  0
 27 29  2  0
 29 30  1  0
 30 31  1  0
 30 32  2  0
 32 10  1  0
 17 12  1  0
 24 19  1  0
 32 25  1  0
M  END
>  <zinc_id>  (1) 
ZINC000001894937

>  <smiles>  (1) 
CCN(CC)C[C@H](O)Cn1c(-c2ccccc2)c(-c2ccccc2)c2cc(C)cc(C)c21

$$$$
