
     RDKit          3D

 32 35  0  0  0  0  0  0  0  0999 V2000
   -6.7741    2.5434    1.1490 C   0  0  0  0  0  0  0  0  0  0  0  0
   -6.2417    1.6877    0.0291 C   0  0  0  0  0  0  0  0  0  0  0  0
   -6.1846    2.5341   -1.2282 C   0  0  0  0  0  0  0  0  0  0  0  0
   -7.1628    0.4854   -0.2152 C   0  0  0  0  0  0  0  0  0  0  0  0
   -4.9088    1.1077    0.3466 C   0  0  0  0  0  0  0  0  0  0  0  0
   -4.7451    0.0029    1.1453 C   0  0  0  0  0  0  0  0  0  0  0  0
   -3.4839   -0.4966    1.4054 C   0  0  0  0  0  0  0  0  0  0  0  0
   -2.3413    0.0762    0.8888 C   0  0  0  0  0  0  0  0  0  0  0  0
   -1.0249   -0.4800    1.1736 C   0  0  0  0  0  0  0  0  0  0  0  0
   -0.8706   -1.5004    1.8869 O   0  0  0  0  0  0  0  0  0  0  0  0
    0.1828    0.1635    0.6123 C   0  0  0  0  0  0  0  0  0  0  0  0
    0.4511   -0.3828   -0.7541 C   0  0  1  0  0  0  0  0  0  0  0  0
   -0.6238   -0.1350   -1.6180 O   0  0  0  0  0  0  0  0  0  0  0  0
    1.6601    0.2186   -1.3686 C   0  0  0  0  0  0  0  0  0  0  0  0
    1.8348    1.4471   -1.5590 O   0  0  0  0  0  0  0  0  0  0  0  0
    2.5966   -0.7955   -1.7129 N   0  0  0  0  0  0  0  0  0  0  0  0
    3.9001   -0.6008   -2.3225 C   0  0  0  0  0  0  0  0  0  0  0  0
    4.9692   -0.4327   -1.3027 C   0  0  0  0  0  0  0  0  0  0  0  0
    4.8048    0.7074   -0.3886 C   0  0  0  0  0  0  0  0  0  0  0  0
    4.1074    0.4904    0.7738 C   0  0  0  0  0  0  0  0  0  0  0  0
    3.8775    1.4589    1.7261 C   0  0  0  0  0  0  0  0  0  0  0  0
    4.3936    2.7165    1.4678 C   0  0  0  0  0  0  0  0  0  0  0  0
    5.0956    2.9549    0.3091 C   0  0  0  0  0  0  0  0  0  0  0  0
    5.3061    1.9614   -0.6235 C   0  0  0  0  0  0  0  0  0  0  0  0
    2.0141   -2.0299   -1.3392 C   0  0  0  0  0  0  0  0  0  0  0  0
    2.4794   -3.3159   -1.4479 C   0  0  0  0  0  0  0  0  0  0  0  0
    1.7331   -4.3946   -1.0153 C   0  0  0  0  0  0  0  0  0  0  0  0
    0.4789   -4.1494   -0.4577 C   0  0  0  0  0  0  0  0  0  0  0  0
   -0.0166   -2.8798   -0.3339 C   0  0  0  0  0  0  0  0  0  0  0  0
    0.7669   -1.8299   -0.7813 C   0  0  0  0  0  0  0  0  0  0  0  0
   -2.5027    1.1854    0.0871 C   0  0  0  0  0  0  0  0  0  0  0  0
   -3.7714    1.6818   -0.1710 C   0  0  0  0  0  0  0  0  0  0  0  0
  1  2  1  0
  2  3  1  0
  2  4  1  0
  2  5  1  0
  5  6  2  0
  6  7  1  0
  7  8  2  0
  8  9  1  0
  9 10  2  0
  9 11  1  0
 11 12  1  0
 12 13  1  6
 12 14  1  0
 14 15  2  0
 14 16  1  0
 16 17  1  0
 17 18  1  0
 18 19  1  0
 19 20  2  0
 20 21  1  0
 21 22  2  0
 22 23  1  0
 23 24  2  0
 16 25  1  0
 25 26  2  0
 26 27  1  0
 27 28  2  0
 28 29  1  0
 29 30  2  0
  8 31  1  0
 31 32  2  0
 32  5  1  0
 30 12  1  0
 24 19  1  0
 30 25  1  0
M  END
>  <zinc_id>  (1) 
ZINC000000990080

>  <smiles>  (1) 
CC(C)(C)c1ccc(C(=O)C[C@@]2(O)C(=O)N(CCc3ccccc3)c3ccccc32)cc1

$$$$
