
     RDKit          3D

 32 35  0  0  0  0  0  0  0  0999 V2000
   -5.2511    2.7278    3.2211 C   0  0  0  0  0  0  0  0  0  0  0  0
   -5.0678    1.3583    2.9820 O   0  0  0  0  0  0  0  0  0  0  0  0
   -3.9424    0.8058    2.4059 C   0  0  0  0  0  0  0  0  0  0  0  0
   -2.8782    1.5786    2.0081 C   0  0  0  0  0  0  0  0  0  0  0  0
   -1.7503    0.9801    1.4256 C   0  0  0  0  0  0  0  0  0  0  0  0
   -1.6936   -0.3668    1.2469 C   0  0  0  0  0  0  0  0  0  0  0  0
   -0.5239   -0.9843    0.6431 C   0  0  0  0  0  0  0  0  0  0  0  0
   -0.6314   -1.0853   -0.8307 C   0  0  0  0  0  0  0  0  0  0  0  0
   -1.1618   -2.1355   -1.5147 N   0  0  0  0  0  0  0  0  0  0  0  0
   -1.1071   -1.8867   -2.8363 C   0  0  0  0  0  0  0  0  0  0  0  0
   -1.4946   -2.5908   -3.9552 C   0  0  0  0  0  0  0  0  0  0  0  0
   -1.2775   -2.0101   -5.1703 C   0  0  0  0  0  0  0  0  0  0  0  0
   -0.7022   -0.7785   -5.3481 C   0  0  0  0  0  0  0  0  0  0  0  0
   -0.3150   -0.0771   -4.2080 C   0  0  0  0  0  0  0  0  0  0  0  0
   -0.5275   -0.6495   -2.9811 C   0  0  0  0  0  0  0  0  0  0  0  0
   -0.2457   -0.1807   -1.7411 N   0  0  0  0  0  0  0  0  0  0  0  0
    0.3587    1.0902   -1.3809 C   0  0  0  0  0  0  0  0  0  0  0  0
    1.9946    0.7747   -1.4152 C   0  0  2  0  0  0  0  0  0  0  0  0
    1.9128   -0.3033   -0.3458 O   0  0  0  0  0  0  0  0  0  0  0  0
    2.3900    2.0562   -0.4600 C   0  0  0  0  0  0  0  0  0  0  0  0
    3.5151    1.9609    0.1839 O   0  0  0  0  0  0  0  0  0  0  0  0
    4.1624    1.2185    1.1177 C   0  0  0  0  0  0  0  0  0  0  0  0
    3.5441    0.1419    1.7004 C   0  0  0  0  0  0  0  0  0  0  0  0
    4.1689   -0.6111    2.6342 C   0  0  0  0  0  0  0  0  0  0  0  0
    5.4601   -0.3045    3.0233 C   0  0  0  0  0  0  0  0  0  0  0  0
    6.1015    0.7737    2.4507 C   0  0  0  0  0  0  0  0  0  0  0  0
    5.4784    1.5364    1.5098 C   0  0  0  0  0  0  0  0  0  0  0  0
    6.0850    2.7039    0.8460 C   0  0  0  0  0  0  0  0  0  0  0  0
   -2.7479   -1.1314    1.6411 C   0  0  0  0  0  0  0  0  0  0  0  0
   -3.8910   -0.5550    2.2280 C   0  0  0  0  0  0  0  0  0  0  0  0
   -4.9448   -1.3321    2.6206 O   0  0  0  0  0  0  0  0  0  0  0  0
   -5.0179   -2.7241    2.4959 C   0  0  0  0  0  0  0  0  0  0  0  0
  1  2  1  0
  2  3  1  0
  3  4  2  0
  4  5  1  0
  5  6  2  0
  6  7  1  0
  7  8  1  0
  8  9  2  0
  9 10  1  0
 10 11  2  0
 11 12  1  0
 12 13  2  0
 13 14  1  0
 14 15  2  0
 15 16  1  0
 16 17  1  0
 17 18  1  0
 18 19  1  1
 18 20  1  0
 20 21  1  0
 21 22  1  0
 22 23  2  0
 23 24  1  0
 24 25  2  0
 25 26  1  0
 26 27  2  0
 27 28  1  0
  6 29  1  0
 29 30  2  0
 30 31  1  0
 31 32  1  0
 30  3  1  0
 16  8  1  0
 27 22  1  0
 15 10  1  0
M  END
>  <zinc_id>  (1) 
ZINC000000645030

>  <smiles>  (1) 
COc1ccc(Cc2nc3ccccc3n2C[C@H](O)COc2ccccc2C)cc1OC

$$$$
