
     RDKit          3D

 32 35  0  0  0  0  0  0  0  0999 V2000
    5.8403   -1.8633    1.1642 C   0  0  0  0  0  0  0  0  0  0  0  0
    6.0724   -0.8148    0.0834 C   0  0  0  0  0  0  0  0  0  0  0  0
    4.7654   -0.5276   -0.5294 N   0  0  0  0  0  0  0  0  0  0  0  0
    5.0181    0.4722   -1.5523 C   0  0  0  0  0  0  0  0  0  0  0  0
    3.7370    0.8195   -2.2326 C   0  0  0  0  0  0  0  0  0  0  0  0
    4.0058    0.1314    0.5311 C   0  0  0  0  0  0  0  0  0  0  0  0
    2.5434    0.4163   -0.2243 C   0  0  1  0  0  0  0  0  0  0  0  0
    2.3075   -1.0807   -0.4785 O   0  0  0  0  0  0  0  0  0  0  0  0
    1.7092    0.3877    1.2207 C   0  0  0  0  0  0  0  0  0  0  0  0
    0.3371    0.6255    0.8441 N   0  0  0  0  0  0  0  0  0  0  0  0
   -0.5627   -0.3171    0.5402 C   0  0  0  0  0  0  0  0  0  0  0  0
   -0.3802   -1.7585    0.5230 C   0  0  0  0  0  0  0  0  0  0  0  0
    0.0147   -2.3961    1.6770 C   0  0  0  0  0  0  0  0  0  0  0  0
    0.2012   -3.7687    1.7243 C   0  0  0  0  0  0  0  0  0  0  0  0
   -0.0259   -4.4677    0.5653 C   0  0  0  0  0  0  0  0  0  0  0  0
   -0.4147   -3.8509   -0.5764 C   0  0  0  0  0  0  0  0  0  0  0  0
   -0.5976   -2.4920   -0.6165 C   0  0  0  0  0  0  0  0  0  0  0  0
   -1.7683    0.3024    0.2302 C   0  0  0  0  0  0  0  0  0  0  0  0
   -3.0150   -0.3672   -0.1587 C   0  0  0  0  0  0  0  0  0  0  0  0
   -4.1242   -0.2381    0.6161 C   0  0  0  0  0  0  0  0  0  0  0  0
   -5.2815   -0.8612    0.2501 C   0  0  0  0  0  0  0  0  0  0  0  0
   -5.3366   -1.6183   -0.8949 C   0  0  0  0  0  0  0  0  0  0  0  0
   -4.2175   -1.7361   -1.6573 C   0  0  0  0  0  0  0  0  0  0  0  0
   -3.0392   -1.1167   -1.3078 C   0  0  0  0  0  0  0  0  0  0  0  0
   -1.5799    1.6708    0.3543 C   0  0  0  0  0  0  0  0  0  0  0  0
   -2.4191    2.7601    0.1720 C   0  0  0  0  0  0  0  0  0  0  0  0
   -1.9357    4.0424    0.3749 C   0  0  0  0  0  0  0  0  0  0  0  0
   -2.7991    5.2356    0.1911 C   0  0  0  0  0  0  0  0  0  0  0  0
   -0.6133    4.1892    0.7577 C   0  0  0  0  0  0  0  0  0  0  0  0
    0.2033    3.1013    0.9337 C   0  0  0  0  0  0  0  0  0  0  0  0
    1.6124    3.3023    1.3441 C   0  0  0  0  0  0  0  0  0  0  0  0
   -0.2571    1.8185    0.7372 C   0  0  0  0  0  0  0  0  0  0  0  0
  1  2  1  0
  2  3  1  0
  3  4  1  0
  4  5  1  0
  3  6  1  0
  6  7  1  0
  7  8  1  6
  7  9  1  0
  9 10  1  0
 10 11  1  0
 11 12  1  0
 12 13  2  0
 13 14  1  0
 14 15  2  0
 15 16  1  0
 16 17  2  0
 11 18  2  0
 18 19  1  0
 19 20  2  0
 20 21  1  0
 21 22  2  0
 22 23  1  0
 23 24  2  0
 18 25  1  0
 25 26  2  0
 26 27  1  0
 27 28  1  0
 27 29  2  0
 29 30  1  0
 30 31  1  0
 30 32  2  0
 32 10  1  0
 17 12  1  0
 24 19  1  0
 32 25  1  0
M  END
>  <zinc_id>  (1) 
ZINC000001894940

>  <smiles>  (1) 
CCN(CC)C[C@@H](O)Cn1c(-c2ccccc2)c(-c2ccccc2)c2cc(C)cc(C)c21

$$$$
