
     RDKit          3D

 30 33  0  0  0  0  0  0  0  0999 V2000
   -6.0124    0.6948   -0.6416 C   0  0  0  0  0  0  0  0  0  0  0  0
   -5.5739    0.9709    0.6829 C   0  0  0  0  0  0  0  0  0  0  0  0
   -5.5450    2.4217    1.1613 C   0  0  0  0  0  0  0  0  0  0  0  0
   -6.2710    0.1723    1.8693 C   0  0  1  0  0  0  0  0  0  0  0  0
   -6.5554   -1.1905    1.0296 C   0  0  0  0  0  0  0  0  0  0  0  0
   -5.3764   -1.5643    0.3026 C   0  0  0  0  0  0  0  0  0  0  0  0
   -4.2154   -0.9550    0.2395 C   0  0  0  0  0  0  0  0  0  0  0  0
   -3.1692   -1.4349   -0.5046 C   0  0  0  0  0  0  0  0  0  0  0  0
   -2.1002   -1.5287   -1.0000 N   0  0  0  0  0  0  0  0  0  0  0  0
   -0.8822   -0.8652   -1.0500 N   0  0  0  0  0  0  0  0  0  0  0  0
   -0.6279    0.3534   -1.6857 C   0  0  0  0  0  0  0  0  0  0  0  0
   -1.6712    0.8152   -2.2391 O   0  0  0  0  0  0  0  0  0  0  0  0
    0.6523    1.0458   -1.7354 C   0  0  0  0  0  0  0  0  0  0  0  0
    0.8727    2.2333   -2.3623 C   0  0  0  0  0  0  0  0  0  0  0  0
    2.0607    2.9183   -2.4331 C   0  0  0  0  0  0  0  0  0  0  0  0
    3.1349    2.3351   -1.8009 C   0  0  0  0  0  0  0  0  0  0  0  0
    2.9929    1.1445   -1.1507 C   0  0  0  0  0  0  0  0  0  0  0  0
    1.7704    0.4705   -1.0958 C   0  0  0  0  0  0  0  0  0  0  0  0
    1.5985   -0.6773   -0.4781 O   0  0  0  0  0  0  0  0  0  0  0  0
    2.1525   -1.6403    0.2304 C   0  0  0  0  0  0  0  0  0  0  0  0
    3.2696   -2.3730   -0.4047 C   0  0  0  0  0  0  0  0  0  0  0  0
    4.3630   -1.5599   -0.7054 O   0  0  0  0  0  0  0  0  0  0  0  0
    5.0390   -0.9259    0.3234 C   0  0  0  0  0  0  0  0  0  0  0  0
    6.1357   -0.1037    0.0831 C   0  0  0  0  0  0  0  0  0  0  0  0
    6.7454    0.4831    1.1492 C   0  0  0  0  0  0  0  0  0  0  0  0
    6.3356    0.3067    2.4500 C   0  0  0  0  0  0  0  0  0  0  0  0
    5.2407   -0.5170    2.6631 C   0  0  0  0  0  0  0  0  0  0  0  0
    4.6122   -1.1169    1.6107 C   0  0  0  0  0  0  0  0  0  0  0  0
   -4.1529    0.3850    1.1084 C   0  0  2  0  0  0  0  0  0  0  0  0
   -4.8230   -0.2980    2.3970 C   0  0  0  0  0  0  0  0  0  0  0  0
  1  2  1  0
  2  3  1  0
  2  4  1  0
  4  5  1  6
  5  6  1  0
  6  7  2  0
  7  8  1  0
  8  9  2  0
  9 10  1  0
 10 11  1  0
 11 12  2  0
 11 13  1  0
 13 14  2  0
 14 15  1  0
 15 16  2  0
 16 17  1  0
 17 18  2  0
 18 19  1  0
 19 20  1  0
 20 21  1  0
 21 22  1  0
 22 23  1  0
 23 24  2  0
 24 25  1  0
 25 26  2  0
 26 27  1  0
 27 28  2  0
  7 29  1  0
 29 30  1  1
 29  2  1  0
 30  4  1  0
 18 13  1  0
 28 23  1  0
M  END
>  <zinc_id>  (1) 
ZINC000003271407

>  <smiles>  (1) 
CC1(C)[C@H]2CC=C(/C=N/NC(=O)c3ccccc3OCCOc3ccccc3)[C@@H]1C2

$$$$
