
     RDKit          3D

 33 36  0  0  0  0  0  0  0  0999 V2000
    6.1285    1.7170    0.4152 C   0  0  0  0  0  0  0  0  0  0  0  0
    7.2125    0.7367    0.7739 C   0  0  0  0  0  0  0  0  0  0  0  0
    7.8912    1.1397    2.0765 C   0  0  0  0  0  0  0  0  0  0  0  0
    8.3159    0.6974   -0.2728 C   0  0  0  0  0  0  0  0  0  0  0  0
    6.5995   -0.5910    0.9417 N   0  0  0  0  0  0  0  0  0  0  0  0
    6.0318   -0.9409   -0.3688 C   0  0  0  0  0  0  0  0  0  0  0  0
    4.8642   -0.0316   -0.6574 C   0  0  0  0  0  0  0  0  0  0  0  0
    4.2505   -0.3352   -1.9844 C   0  0  0  0  0  0  0  0  0  0  0  0
    3.1408    0.5224   -2.2574 O   0  0  0  0  0  0  0  0  0  0  0  0
    2.0478    0.4920   -1.3868 C   0  0  0  0  0  0  0  0  0  0  0  0
    2.0187   -0.3390   -0.2903 C   0  0  0  0  0  0  0  0  0  0  0  0
    0.9095   -0.3283    0.5385 C   0  0  0  0  0  0  0  0  0  0  0  0
   -0.1176    0.5163    0.2277 C   0  0  0  0  0  0  0  0  0  0  0  0
   -1.5436    0.5694    1.2261 S   0  0  0  0  0  0  0  0  0  0  0  0
   -1.0991    0.1138    2.6189 O   0  0  0  0  0  0  0  0  0  0  0  0
   -2.1181    1.9336    1.3579 O   0  0  0  0  0  0  0  0  0  0  0  0
   -2.7704   -0.5336    0.6273 C   0  0  0  0  0  0  0  0  0  0  0  0
   -3.6962   -0.2550   -0.3463 C   0  0  0  0  0  0  0  0  0  0  0  0
   -3.9074    0.9690   -1.1181 C   0  0  0  0  0  0  0  0  0  0  0  0
   -4.0363    0.8215   -2.4877 C   0  0  0  0  0  0  0  0  0  0  0  0
   -4.2489    1.8929   -3.3176 C   0  0  0  0  0  0  0  0  0  0  0  0
   -4.3335    3.1463   -2.7543 C   0  0  0  0  0  0  0  0  0  0  0  0
   -4.2047    3.2888   -1.3909 C   0  0  0  0  0  0  0  0  0  0  0  0
   -3.9922    2.2156   -0.5603 C   0  0  0  0  0  0  0  0  0  0  0  0
   -4.4456   -1.4369   -0.4689 C   0  0  0  0  0  0  0  0  0  0  0  0
   -3.9718   -2.3509    0.3939 N   0  0  0  0  0  0  0  0  0  0  0  0
   -4.3285   -3.6251    0.6693 C   0  0  0  0  0  0  0  0  0  0  0  0
   -3.6955   -4.4090    1.6138 C   0  0  0  0  0  0  0  0  0  0  0  0
   -2.6396   -3.8759    2.3221 C   0  0  0  0  0  0  0  0  0  0  0  0
   -2.2637   -2.5730    2.0503 C   0  0  0  0  0  0  0  0  0  0  0  0
   -2.9384   -1.8406    1.0925 C   0  0  0  0  0  0  0  0  0  0  0  0
   -0.0679    1.3367   -0.8698 C   0  0  0  0  0  0  0  0  0  0  0  0
    1.0082    1.3570   -1.7138 C   0  0  0  0  0  0  0  0  0  0  0  0
  1  2  1  0
  2  3  1  0
  2  4  1  0
  2  5  1  0
  5  6  1  0
  6  7  1  0
  7  8  1  0
  8  9  1  0
  9 10  1  0
 10 11  2  0
 11 12  1  0
 12 13  2  0
 13 14  1  0
 14 15  2  0
 14 16  2  0
 14 17  1  0
 17 18  1  0
 18 19  1  0
 19 20  2  0
 20 21  1  0
 21 22  2  0
 22 23  1  0
 23 24  2  0
 18 25  2  0
 25 26  1  0
 26 27  1  0
 27 28  2  0
 28 29  1  0
 29 30  2  0
 30 31  1  0
 13 32  1  0
 32 33  2  0
 33 10  1  0
 31 17  2  0
 24 19  1  0
 31 26  1  0
M  END
>  <zinc_id>  (1) 
ZINC000001540638

>  <smiles>  (1) 
CC(C)(C)NCCCOc1ccc(S(=O)(=O)c2c(-c3ccccc3)cn3ccccc23)cc1

$$$$
