
     RDKit          3D

 33 37  0  0  0  0  0  0  0  0999 V2000
   -2.6306    5.0171    0.0136 C   0  0  0  0  0  0  0  0  0  0  0  0
   -1.8407    3.7737    0.1315 C   0  0  0  0  0  0  0  0  0  0  0  0
   -0.4975    3.8074    0.3440 C   0  0  0  0  0  0  0  0  0  0  0  0
    0.2477    2.6666    0.4551 C   0  0  0  0  0  0  0  0  0  0  0  0
    1.6668    2.8279    0.7312 C   0  0  0  0  0  0  0  0  0  0  0  0
   -0.2991    1.3968    0.3598 C   0  0  0  0  0  0  0  0  0  0  0  0
   -1.6657    1.3688    0.1454 C   0  0  0  0  0  0  0  0  0  0  0  0
   -2.4160    2.5228    0.0338 C   0  0  0  0  0  0  0  0  0  0  0  0
   -2.0463    0.0436    0.0976 C   0  0  0  0  0  0  0  0  0  0  0  0
   -3.4063   -0.4489   -0.1098 C   0  0  0  0  0  0  0  0  0  0  0  0
   -4.1186   -0.1614   -1.2507 C   0  0  0  0  0  0  0  0  0  0  0  0
   -5.4248   -0.6498   -1.4210 C   0  0  0  0  0  0  0  0  0  0  0  0
   -6.0180   -1.4244   -0.4513 C   0  0  0  0  0  0  0  0  0  0  0  0
   -5.3091   -1.7124    0.6878 C   0  0  0  0  0  0  0  0  0  0  0  0
   -4.0097   -1.2218    0.8480 C   0  0  0  0  0  0  0  0  0  0  0  0
   -0.9236   -0.6920    0.2790 C   0  0  0  0  0  0  0  0  0  0  0  0
   -0.8212   -2.1377    0.3100 C   0  0  0  0  0  0  0  0  0  0  0  0
   -0.0397   -2.7541   -0.6429 C   0  0  0  0  0  0  0  0  0  0  0  0
    0.1050   -4.1351   -0.6736 C   0  0  0  0  0  0  0  0  0  0  0  0
   -0.5359   -4.9272    0.2574 C   0  0  0  0  0  0  0  0  0  0  0  0
   -1.3133   -4.2946    1.2033 C   0  0  0  0  0  0  0  0  0  0  0  0
   -1.4609   -2.9139    1.2380 C   0  0  0  0  0  0  0  0  0  0  0  0
    0.1460    0.1450    0.4374 N   0  0  0  0  0  0  0  0  0  0  0  0
    1.4998   -0.2772    0.6847 C   0  0  0  0  0  0  0  0  0  0  0  0
    2.1713   -0.7111   -0.7006 C   0  0  1  0  0  0  0  0  0  0  0  0
    2.1100    0.5526   -1.4103 O   0  0  0  0  0  0  0  0  0  0  0  0
    3.6832   -0.8061   -0.3357 C   0  0  0  0  0  0  0  0  0  0  0  0
    4.2571    0.1870    0.3942 N   0  0  0  0  0  0  0  0  0  0  0  0
    4.4392    1.4339   -0.2804 C   0  0  0  0  0  0  0  0  0  0  0  0
    5.6434    1.4784   -1.1702 C   0  0  0  0  0  0  0  0  0  0  0  0
    6.8405    1.4399   -0.2458 C   0  0  0  0  0  0  0  0  0  0  0  0
    6.5439    0.7903    1.0511 C   0  0  0  0  0  0  0  0  0  0  0  0
    5.4230   -0.1842    1.0683 C   0  0  0  0  0  0  0  0  0  0  0  0
  1  2  1  0
  2  3  2  0
  3  4  1  0
  4  5  1  0
  4  6  2  0
  6  7  1  0
  7  8  2  0
  7  9  1  0
  9 10  1  0
 10 11  2  0
 11 12  1  0
 12 13  2  0
 13 14  1  0
 14 15  2  0
  9 16  2  0
 16 17  1  0
 17 18  2  0
 18 19  1  0
 19 20  2  0
 20 21  1  0
 21 22  2  0
 16 23  1  0
 23 24  1  0
 24 25  1  0
 25 26  1  6
 25 27  1  0
 27 28  1  0
 28 29  1  0
 29 30  1  0
 30 31  1  0
 31 32  1  0
 32 33  1  0
  8  2  1  0
 15 10  1  0
 22 17  1  0
 33 28  1  0
 23  6  1  0
M  END
>  <zinc_id>  (1) 
ZINC000002083389

>  <smiles>  (1) 
Cc1cc(C)c2c(c1)c(-c1ccccc1)c(-c1ccccc1)n2C[C@@H](O)CN1CCCCC1

$$$$
