
     RDKit          3D

 32 35  0  0  0  0  0  0  0  0999 V2000
    7.5107    2.7528    2.0463 C   0  0  0  0  0  0  0  0  0  0  0  0
    6.8068    1.4760    1.7909 C   0  0  0  0  0  0  0  0  0  0  0  0
    7.4091    0.2659    2.1008 C   0  0  0  0  0  0  0  0  0  0  0  0
    6.7975   -0.9511    1.8832 C   0  0  0  0  0  0  0  0  0  0  0  0
    5.5328   -0.9487    1.3332 C   0  0  0  0  0  0  0  0  0  0  0  0
    4.8991    0.2295    1.0109 C   0  0  0  0  0  0  0  0  0  0  0  0
    3.5798    0.1584    0.4401 N   0  0  0  0  0  0  0  0  0  0  0  0
    2.8544   -0.8685    0.5926 N   0  0  0  0  0  0  0  0  0  0  0  0
    1.5627   -0.8725    0.0027 C   0  0  0  0  0  0  0  0  0  0  0  0
    0.4946   -0.1990    0.5820 C   0  0  0  0  0  0  0  0  0  0  0  0
   -0.7427   -0.2198   -0.0098 C   0  0  0  0  0  0  0  0  0  0  0  0
   -1.8903    0.4715    0.5617 C   0  0  0  0  0  0  0  0  0  0  0  0
   -1.7175    1.1030    1.6353 O   0  0  0  0  0  0  0  0  0  0  0  0
   -3.1545    0.4500   -0.0435 N   0  0  0  0  0  0  0  0  0  0  0  0
   -4.2533    1.1278    0.5288 C   0  0  0  0  0  0  0  0  0  0  0  0
   -4.1070    1.8260    1.6956 C   0  0  0  0  0  0  0  0  0  0  0  0
   -5.1883    2.4945    2.2610 C   0  0  0  0  0  0  0  0  0  0  0  0
   -6.4137    2.4616    1.6556 C   0  0  0  0  0  0  0  0  0  0  0  0
   -6.5560    1.7557    0.4783 C   0  0  0  0  0  0  0  0  0  0  0  0
   -5.4716    1.0809   -0.0956 C   0  0  0  0  0  0  0  0  0  0  0  0
   -5.7064    0.3874   -1.2950 N   0  0  0  0  0  0  0  0  0  0  0  0
   -5.0051    0.6972   -2.5126 C   0  0  0  0  0  0  0  0  0  0  0  0
   -6.6956   -0.6793   -1.2937 C   0  0  0  0  0  0  0  0  0  0  0  0
   -0.9219   -0.9148   -1.1864 C   0  0  0  0  0  0  0  0  0  0  0  0
   -2.1579   -0.9364   -1.7790 O   0  0  0  0  0  0  0  0  0  0  0  0
    0.1204   -1.6091   -1.8101 C   0  0  0  0  0  0  0  0  0  0  0  0
   -0.0773   -2.2952   -2.9811 C   0  0  0  0  0  0  0  0  0  0  0  0
    0.9859   -2.9599   -3.5488 C   0  0  0  0  0  0  0  0  0  0  0  0
    2.2055   -2.9065   -2.9136 C   0  0  0  0  0  0  0  0  0  0  0  0
    2.4124   -2.2191   -1.7363 C   0  0  0  0  0  0  0  0  0  0  0  0
    1.3474   -1.5623   -1.1820 C   0  0  0  0  0  0  0  0  0  0  0  0
    5.5403    1.4040    1.2431 C   0  0  0  0  0  0  0  0  0  0  0  0
  1  2  1  0
  2  3  2  0
  3  4  1  0
  4  5  2  0
  5  6  1  0
  6  7  1  0
  7  8  2  0
  8  9  1  0
  9 10  2  0
 10 11  1  0
 11 12  1  0
 12 13  2  0
 12 14  1  0
 14 15  1  0
 15 16  2  0
 16 17  1  0
 17 18  2  0
 18 19  1  0
 19 20  2  0
 20 21  1  0
 21 22  1  0
 21 23  1  0
 11 24  2  0
 24 25  1  0
 24 26  1  0
 26 27  2  0
 27 28  1  0
 28 29  2  0
 29 30  1  0
 30 31  2  0
  6 32  2  0
 32  2  1  0
 31  9  1  0
 20 15  1  0
 31 26  1  0
M  END
>  <zinc_id>  (1) 
ZINC000004044749

>  <smiles>  (1) 
Cc1cccc(/N=N/c2cc(C(=O)Nc3ccccc3N(C)C)c(O)c3ccccc23)c1

$$$$
