
     RDKit          3D

 32 35  0  0  0  0  0  0  0  0999 V2000
   -6.6622   -2.0304   -0.0697 C   0  0  0  0  0  0  0  0  0  0  0  0
   -5.2977   -2.3950   -0.1049 O   0  0  0  0  0  0  0  0  0  0  0  0
   -4.3676   -1.4938    0.3781 C   0  0  0  0  0  0  0  0  0  0  0  0
   -4.7274   -0.2643    0.8800 C   0  0  0  0  0  0  0  0  0  0  0  0
   -3.7675    0.6037    1.3514 C   0  0  0  0  0  0  0  0  0  0  0  0
   -2.4060    0.3067    1.3533 C   0  0  0  0  0  0  0  0  0  0  0  0
   -1.4443    1.3086    1.8823 C   0  0  0  0  0  0  0  0  0  0  0  0
   -0.9591    2.1829    0.7498 C   0  0  0  0  0  0  0  0  0  0  0  0
   -1.5837    3.2734    0.2694 N   0  0  0  0  0  0  0  0  0  0  0  0
   -0.8700    3.8190   -0.7318 C   0  0  0  0  0  0  0  0  0  0  0  0
   -1.0662    4.9353   -1.5531 C   0  0  0  0  0  0  0  0  0  0  0  0
   -0.1038    5.2040   -2.5003 C   0  0  0  0  0  0  0  0  0  0  0  0
    1.0129    4.4325   -2.6612 C   0  0  0  0  0  0  0  0  0  0  0  0
    1.2018    3.3466   -1.8608 C   0  0  0  0  0  0  0  0  0  0  0  0
    0.2419    3.0418   -0.8840 C   0  0  0  0  0  0  0  0  0  0  0  0
    0.1603    2.0561    0.0296 N   0  0  0  0  0  0  0  0  0  0  0  0
    1.1677    1.0566    0.1692 C   0  0  0  0  0  0  0  0  0  0  0  0
    0.7790   -0.2011   -0.8510 C   0  0  1  0  0  0  0  0  0  0  0  0
    0.8224    0.6279   -2.1449 O   0  0  0  0  0  0  0  0  0  0  0  0
    2.4088   -0.6308   -1.0196 C   0  0  0  0  0  0  0  0  0  0  0  0
    2.5094   -1.4105    0.1348 O   0  0  0  0  0  0  0  0  0  0  0  0
    3.6962   -2.0176    0.4737 C   0  0  0  0  0  0  0  0  0  0  0  0
    4.7900   -1.8435   -0.3484 C   0  0  0  0  0  0  0  0  0  0  0  0
    6.0022   -2.4229   -0.0655 C   0  0  0  0  0  0  0  0  0  0  0  0
    6.1104   -3.2074    1.0925 C   0  0  0  0  0  0  0  0  0  0  0  0
    5.0059   -3.3638    1.8924 C   0  0  0  0  0  0  0  0  0  0  0  0
    3.7810   -2.7949    1.6322 C   0  0  0  0  0  0  0  0  0  0  0  0
    2.5738   -2.9477    2.4780 C   0  0  0  0  0  0  0  0  0  0  0  0
   -2.0490   -0.9245    0.8505 C   0  0  0  0  0  0  0  0  0  0  0  0
   -3.0051   -1.7984    0.3768 C   0  0  0  0  0  0  0  0  0  0  0  0
   -2.6630   -3.0429   -0.1337 O   0  0  0  0  0  0  0  0  0  0  0  0
   -1.2913   -3.4054   -0.1601 C   0  0  0  0  0  0  0  0  0  0  0  0
  1  2  1  0
  2  3  1  0
  3  4  2  0
  4  5  1  0
  5  6  2  0
  6  7  1  0
  7  8  1  0
  8  9  2  0
  9 10  1  0
 10 11  2  0
 11 12  1  0
 12 13  2  0
 13 14  1  0
 14 15  2  0
 15 16  1  0
 16 17  1  0
 17 18  1  0
 18 19  1  6
 18 20  1  0
 20 21  1  0
 21 22  1  0
 22 23  2  0
 23 24  1  0
 24 25  2  0
 25 26  1  0
 26 27  2  0
 27 28  1  0
  6 29  1  0
 29 30  2  0
 30 31  1  0
 31 32  1  0
 30  3  1  0
 16  8  1  0
 27 22  1  0
 15 10  1  0
M  END
>  <zinc_id>  (1) 
ZINC000000645028

>  <smiles>  (1) 
COc1ccc(Cc2nc3ccccc3n2C[C@@H](O)COc2ccccc2C)cc1OC

$$$$
