
     RDKit          3D

 31 34  0  0  0  0  0  0  0  0999 V2000
   -4.6084   -4.2788    2.1317 C   0  0  0  0  0  0  0  0  0  0  0  0
   -4.6500   -3.7163    0.7253 C   0  0  0  0  0  0  0  0  0  0  0  0
   -3.8330   -4.5306   -0.2327 C   0  0  0  0  0  0  0  0  0  0  0  0
   -6.0182   -3.3827    0.2514 C   0  0  0  0  0  0  0  0  0  0  0  0
   -3.8661   -2.2983    0.9696 C   0  0  1  0  0  0  0  0  0  0  0  0
   -2.4950   -3.0173    1.4785 C   0  0  0  0  0  0  0  0  0  0  0  0
   -1.3622   -2.7706    0.6244 C   0  0  0  0  0  0  0  0  0  0  0  0
   -1.2752   -1.3390    0.0982 C   0  0  0  0  0  0  0  0  0  0  0  0
   -2.4211   -1.0106   -0.5651 C   0  0  0  0  0  0  0  0  0  0  0  0
   -2.1132    0.5858   -1.0544 S   0  0  0  0  0  0  0  0  0  0  0  0
   -0.5438    0.8018   -0.4094 C   0  0  0  0  0  0  0  0  0  0  0  0
    0.3232    1.9570   -0.4635 N   0  0  0  0  0  0  0  0  0  0  0  0
   -0.1128    3.1331   -1.1322 C   0  0  0  0  0  0  0  0  0  0  0  0
   -1.2502    3.1109   -1.6529 O   0  0  0  0  0  0  0  0  0  0  0  0
    0.6843    4.3394   -1.2391 C   0  0  0  0  0  0  0  0  0  0  0  0
    1.9263    4.4175   -0.6918 C   0  0  0  0  0  0  0  0  0  0  0  0
    2.6621    5.5572   -0.8007 C   0  0  0  0  0  0  0  0  0  0  0  0
    2.1729    6.6544   -1.4632 C   0  0  0  0  0  0  0  0  0  0  0  0
    0.9169    6.5650   -2.0125 C   0  0  0  0  0  0  0  0  0  0  0  0
    0.1802    5.4290   -1.9054 C   0  0  0  0  0  0  0  0  0  0  0  0
   -0.3047   -0.4059    0.1803 C   0  0  0  0  0  0  0  0  0  0  0  0
    0.9906   -0.6606    0.8840 C   0  0  0  0  0  0  0  0  0  0  0  0
    1.8845    0.2167    0.9525 O   0  0  0  0  0  0  0  0  0  0  0  0
    1.2716   -1.9009    1.5061 N   0  0  0  0  0  0  0  0  0  0  0  0
    2.5311   -2.1253    2.1812 C   0  0  0  0  0  0  0  0  0  0  0  0
    3.6638   -1.9632    1.2149 C   0  0  0  0  0  0  0  0  0  0  0  0
    4.9962   -2.1102    1.5389 C   0  0  0  0  0  0  0  0  0  0  0  0
    5.7196   -1.8785    0.3680 C   0  0  0  0  0  0  0  0  0  0  0  0
    4.7822   -1.6066   -0.5886 C   0  0  0  0  0  0  0  0  0  0  0  0
    3.5803   -1.6636   -0.0609 O   0  0  0  0  0  0  0  0  0  0  0  0
   -3.4319   -2.1086   -0.5979 C   0  0  0  0  0  0  0  0  0  0  0  0
  1  2  1  0
  2  3  1  0
  2  4  1  0
  5  2  1  6
  5  6  1  0
  6  7  1  0
  7  8  1  0
  8  9  2  0
  9 10  1  0
 10 11  1  0
 11 12  1  0
 12 13  1  0
 13 14  2  0
 13 15  1  0
 15 16  2  0
 16 17  1  0
 17 18  2  0
 18 19  1  0
 19 20  2  0
 11 21  2  0
 21 22  1  0
 22 23  2  0
 22 24  1  0
 24 25  1  0
 25 26  1  0
 26 27  2  0
 27 28  1  0
 28 29  2  0
 29 30  1  0
  9 31  1  0
 31  5  1  0
 21  8  1  0
 30 26  1  0
 20 15  1  0
M  END
>  <zinc_id>  (1) 
ZINC000000643938

>  <smiles>  (1) 
CC(C)(C)[C@H]1CCc2c(sc(NC(=O)c3ccccc3)c2C(=O)NCc2ccco2)C1

$$$$
