
     RDKit          3D

 33 36  0  0  0  0  0  0  0  0999 V2000
    2.4583   -2.9282    0.1462 C   0  0  0  0  0  0  0  0  0  0  0  0
    2.1442   -2.3419   -1.2076 C   0  0  0  0  0  0  0  0  0  0  0  0
    2.5046   -3.4392   -2.2362 C   0  0  0  0  0  0  0  0  0  0  0  0
    3.0496   -1.1567   -1.5388 C   0  0  0  0  0  0  0  0  0  0  0  0
    0.7195   -1.9871   -1.3644 C   0  0  0  0  0  0  0  0  0  0  0  0
   -0.1555   -2.4919   -2.2799 N   0  0  0  0  0  0  0  0  0  0  0  0
   -1.3040   -1.9760   -2.1299 O   0  0  0  0  0  0  0  0  0  0  0  0
   -1.3044   -1.0913   -1.1156 C   0  0  0  0  0  0  0  0  0  0  0  0
   -2.4688   -0.3342   -0.6951 C   0  0  0  0  0  0  0  0  0  0  0  0
   -3.6775   -0.5483   -1.3894 C   0  0  0  0  0  0  0  0  0  0  0  0
   -4.8348    0.1189   -1.0705 C   0  0  0  0  0  0  0  0  0  0  0  0
   -4.8322    1.0383   -0.0323 C   0  0  0  0  0  0  0  0  0  0  0  0
   -6.0142    1.7805    0.3624 C   0  0  0  0  0  0  0  0  0  0  0  0
   -5.8746    3.0546    0.8841 C   0  0  0  0  0  0  0  0  0  0  0  0
   -6.9777    3.7659    1.2604 C   0  0  0  0  0  0  0  0  0  0  0  0
   -8.2605    3.2709    1.1462 C   0  0  0  0  0  0  0  0  0  0  0  0
   -8.4148    1.9936    0.6243 C   0  0  0  0  0  0  0  0  0  0  0  0
   -7.2943    1.2828    0.2469 C   0  0  0  0  0  0  0  0  0  0  0  0
   -3.6729    1.2814    0.6763 C   0  0  0  0  0  0  0  0  0  0  0  0
   -2.5532    0.5797    0.3041 C   0  0  0  0  0  0  0  0  0  0  0  0
   -0.0343   -1.0858   -0.6211 C   0  0  0  0  0  0  0  0  0  0  0  0
    0.4971   -0.2946    0.4728 C   0  0  0  0  0  0  0  0  0  0  0  0
   -0.1784    0.4772    1.1736 O   0  0  0  0  0  0  0  0  0  0  0  0
    1.8943   -0.3513    0.8335 N   0  0  0  0  0  0  0  0  0  0  0  0
    2.4101    0.4521    1.9354 C   0  0  0  0  0  0  0  0  0  0  0  0
    3.8851    0.1482    2.0310 C   0  0  0  0  0  0  0  0  0  0  0  0
    4.5644    0.4774    0.8323 O   0  0  0  0  0  0  0  0  0  0  0  0
    5.9426    0.2532    0.7667 C   0  0  0  0  0  0  0  0  0  0  0  0
    6.6011    0.5794   -0.4145 C   0  0  0  0  0  0  0  0  0  0  0  0
    7.9460    0.3740   -0.5139 C   0  0  0  0  0  0  0  0  0  0  0  0
    8.6434   -0.1528    0.5496 C   0  0  0  0  0  0  0  0  0  0  0  0
    7.9745   -0.4734    1.7208 C   0  0  0  0  0  0  0  0  0  0  0  0
    6.6172   -0.2755    1.8464 C   0  0  0  0  0  0  0  0  0  0  0  0
  1  2  1  0
  2  3  1  0
  2  4  1  0
  2  5  1  0
  5  6  2  0
  6  7  1  0
  7  8  1  0
  8  9  1  0
  9 10  2  0
 10 11  1  0
 11 12  2  0
 12 13  1  0
 13 14  2  0
 14 15  1  0
 15 16  2  0
 16 17  1  0
 17 18  2  0
 12 19  1  0
 19 20  2  0
  8 21  2  0
 21 22  1  0
 22 23  2  0
 22 24  1  0
 24 25  1  0
 25 26  1  0
 26 27  1  0
 27 28  1  0
 28 29  2  0
 29 30  1  0
 30 31  2  0
 31 32  1  0
 32 33  2  0
 21  5  1  0
 33 28  1  0
 20  9  1  0
 18 13  1  0
M  END
>  <zinc_id>  (1) 
ZINC000002483449

>  <smiles>  (1) 
CC(C)(C)c1noc(-c2ccc(-c3ccccc3)cc2)c1C(=O)NCCOc1ccccc1

$$$$
