
     RDKit          3D

 30 33  0  0  0  0  0  0  0  0999 V2000
   -3.9650    5.1024    0.9395 C   0  0  0  0  0  0  0  0  0  0  0  0
   -3.6574    4.5440   -0.4356 C   0  0  0  0  0  0  0  0  0  0  0  0
   -4.7546    3.5564   -0.8474 C   0  0  0  0  0  0  0  0  0  0  0  0
   -4.8047    2.4380    0.1513 C   0  0  0  0  0  0  0  0  0  0  0  0
   -3.4882    1.7343    0.1898 C   0  0  0  0  0  0  0  0  0  0  0  0
   -3.0942    1.1354   -1.1367 C   0  0  0  0  0  0  0  0  0  0  0  0
   -1.8147    0.4875   -0.9751 N   0  0  0  0  0  0  0  0  0  0  0  0
   -0.5825    0.9934   -1.1374 C   0  0  0  0  0  0  0  0  0  0  0  0
   -0.3559    2.3487   -1.5224 N   0  0  0  0  0  0  0  0  0  0  0  0
    0.3648    0.0322   -0.8823 C   0  0  0  0  0  0  0  0  0  0  0  0
    1.8041    0.1929   -0.9507 C   0  0  0  0  0  0  0  0  0  0  0  0
    2.5671   -0.7740   -0.6910 O   0  0  0  0  0  0  0  0  0  0  0  0
    2.4027    1.3927   -1.2979 O   0  0  0  0  0  0  0  0  0  0  0  0
    3.7829    1.6075   -1.3802 C   0  0  0  0  0  0  0  0  0  0  0  0
    4.4831    1.3637   -0.0685 C   0  0  0  0  0  0  0  0  0  0  0  0
    4.5943    2.3912    0.8424 C   0  0  0  0  0  0  0  0  0  0  0  0
    5.2287    2.1994    2.0459 C   0  0  0  0  0  0  0  0  0  0  0  0
    5.7633    0.9711    2.3563 C   0  0  0  0  0  0  0  0  0  0  0  0
    5.6394   -0.0399    1.4297 C   0  0  0  0  0  0  0  0  0  0  0  0
    5.0082    0.1252    0.2153 C   0  0  0  0  0  0  0  0  0  0  0  0
   -0.3219   -1.1050   -0.5512 C   0  0  0  0  0  0  0  0  0  0  0  0
    0.0651   -2.3613   -0.2040 N   0  0  0  0  0  0  0  0  0  0  0  0
   -0.8335   -3.3180    0.0797 C   0  0  0  0  0  0  0  0  0  0  0  0
   -0.4576   -4.5949    0.4329 C   0  0  0  0  0  0  0  0  0  0  0  0
   -1.3657   -5.5864    0.7265 C   0  0  0  0  0  0  0  0  0  0  0  0
   -2.7043   -5.2607    0.6565 C   0  0  0  0  0  0  0  0  0  0  0  0
   -3.0976   -4.0023    0.3088 C   0  0  0  0  0  0  0  0  0  0  0  0
   -2.1674   -3.0043    0.0130 C   0  0  0  0  0  0  0  0  0  0  0  0
   -2.5770   -1.7712   -0.3273 N   0  0  0  0  0  0  0  0  0  0  0  0
   -1.6616   -0.7981   -0.6159 C   0  0  0  0  0  0  0  0  0  0  0  0
  1  2  1  0
  2  3  1  0
  3  4  1  0
  4  5  1  0
  5  6  1  0
  6  7  1  0
  7  8  1  0
  8  9  1  0
  8 10  2  0
 10 11  1  0
 11 12  2  0
 11 13  1  0
 13 14  1  0
 14 15  1  0
 15 16  2  0
 16 17  1  0
 17 18  2  0
 18 19  1  0
 19 20  2  0
 10 21  1  0
 21 22  2  0
 22 23  1  0
 23 24  2  0
 24 25  1  0
 25 26  2  0
 26 27  1  0
 27 28  2  0
 28 29  1  0
 29 30  2  0
 30  7  1  0
 20 15  1  0
 30 21  1  0
 28 23  1  0
M  END
>  <zinc_id>  (1) 
ZINC000002323190

>  <smiles>  (1) 
CCCCCCn1c(N)c(C(=O)OCc2ccccc2)c2nc3ccccc3nc21

$$$$
