
     RDKit          3D

 33 36  0  0  0  0  0  0  0  0999 V2000
   -6.9626   -2.3797   -1.7962 C   0  0  0  0  0  0  0  0  0  0  0  0
   -5.9020   -2.9797   -1.0917 O   0  0  0  0  0  0  0  0  0  0  0  0
   -4.6451   -2.3909   -1.0321 C   0  0  0  0  0  0  0  0  0  0  0  0
   -3.6423   -3.0202   -0.3292 C   0  0  0  0  0  0  0  0  0  0  0  0
   -2.3991   -2.4340   -0.2728 C   0  0  0  0  0  0  0  0  0  0  0  0
   -2.1336   -1.2391   -0.8990 C   0  0  0  0  0  0  0  0  0  0  0  0
   -0.8336   -0.6691   -0.8157 N   0  0  0  0  0  0  0  0  0  0  0  0
   -0.4530    0.6671   -1.0962 C   0  0  0  0  0  0  0  0  0  0  0  0
   -1.2516    1.5974   -1.4839 O   0  0  0  0  0  0  0  0  0  0  0  0
    0.9705    0.7735   -0.8667 C   0  0  0  0  0  0  0  0  0  0  0  0
    1.7887    1.9347   -1.0180 N   0  0  0  0  0  0  0  0  0  0  0  0
    1.3715    3.1297   -0.3888 C   0  0  0  0  0  0  0  0  0  0  0  0
    2.1321    4.2839   -0.4176 C   0  0  0  0  0  0  0  0  0  0  0  0
    1.6725    5.4191    0.2104 C   0  0  0  0  0  0  0  0  0  0  0  0
    0.4821    5.4811    0.8779 C   0  0  0  0  0  0  0  0  0  0  0  0
   -0.0173    6.7002    1.5553 C   0  0  0  0  0  0  0  0  0  0  0  0
    0.5326    6.7909    2.9447 C   0  0  0  0  0  0  0  0  0  0  0  0
   -1.5435    6.6926    1.5512 C   0  0  0  0  0  0  0  0  0  0  0  0
   -0.2996    4.3223    0.9168 C   0  0  0  0  0  0  0  0  0  0  0  0
    0.1737    3.1779    0.2784 C   0  0  0  0  0  0  0  0  0  0  0  0
    1.4117   -0.4042   -0.4795 C   0  0  0  0  0  0  0  0  0  0  0  0
    3.1346   -0.7537   -0.0760 S   0  0  0  0  0  0  0  0  0  0  0  0
    3.2374   -2.4519    0.4244 C   0  0  0  0  0  0  0  0  0  0  0  0
    3.0652   -2.7162    1.7709 C   0  0  0  0  0  0  0  0  0  0  0  0
    3.1166   -3.9788    2.2751 C   0  0  0  0  0  0  0  0  0  0  0  0
    3.3495   -5.0542    1.4212 C   0  0  0  0  0  0  0  0  0  0  0  0
    3.4086   -6.4613    1.9496 C   0  0  0  0  0  0  0  0  0  0  0  0
    3.5191   -4.7745    0.0830 C   0  0  0  0  0  0  0  0  0  0  0  0
    3.4675   -3.4957   -0.4310 C   0  0  0  0  0  0  0  0  0  0  0  0
    0.3342   -1.3713   -0.4210 C   0  0  0  0  0  0  0  0  0  0  0  0
    0.3886   -2.6032   -0.0886 O   0  0  0  0  0  0  0  0  0  0  0  0
   -3.1089   -0.6138   -1.5911 C   0  0  0  0  0  0  0  0  0  0  0  0
   -4.3647   -1.1794   -1.6637 C   0  0  0  0  0  0  0  0  0  0  0  0
  1  2  1  0
  2  3  1  0
  3  4  2  0
  4  5  1  0
  5  6  2  0
  6  7  1  0
  7  8  1  0
  8  9  2  0
  8 10  1  0
 10 11  1  0
 11 12  1  0
 12 13  2  0
 13 14  1  0
 14 15  2  0
 15 16  1  0
 16 17  1  0
 16 18  1  0
 15 19  1  0
 19 20  2  0
 10 21  2  0
 21 22  1  0
 22 23  1  0
 23 24  2  0
 24 25  1  0
 25 26  2  0
 26 27  1  0
 26 28  1  0
 28 29  2  0
 21 30  1  0
 30 31  2  0
  6 32  1  0
 32 33  2  0
 33  3  1  0
 30  7  1  0
 20 12  1  0
 29 23  1  0
M  END
>  <zinc_id>  (1) 
ZINC000001954531

>  <smiles>  (1) 
COc1ccc(N2C(=O)C(Nc3ccc(C(C)C)cc3)=C(Sc3ccc(C)cc3)C2=O)cc1

$$$$
