
     RDKit          3D

 31 34  0  0  0  0  0  0  0  0999 V2000
   -6.5725   -1.2280    2.7343 C   0  0  0  0  0  0  0  0  0  0  0  0
   -6.6564    0.2109    3.1902 C   0  0  0  0  0  0  0  0  0  0  0  0
   -5.5303    0.5188    4.1265 C   0  0  0  0  0  0  0  0  0  0  0  0
   -6.5502    1.1720    2.0218 C   0  0  0  0  0  0  0  0  0  0  0  0
   -5.2457    0.9512    1.3551 C   0  0  0  0  0  0  0  0  0  0  0  0
   -5.1999    0.0344    0.3367 C   0  0  0  0  0  0  0  0  0  0  0  0
   -4.0291   -0.2461   -0.3471 C   0  0  0  0  0  0  0  0  0  0  0  0
   -2.8723    0.4123    0.0011 C   0  0  0  0  0  0  0  0  0  0  0  0
   -1.6062    0.1389   -0.7005 C   0  0  0  0  0  0  0  0  0  0  0  0
   -0.4467    0.7816   -0.3610 C   0  0  0  0  0  0  0  0  0  0  0  0
    0.7598    0.5553   -0.9845 C   0  0  0  0  0  0  0  0  0  0  0  0
    1.9798    1.2660   -0.5813 C   0  0  0  0  0  0  0  0  0  0  0  0
    1.9214    2.1312    0.3124 O   0  0  0  0  0  0  0  0  0  0  0  0
    3.2369    1.0053   -1.1722 N   0  0  0  0  0  0  0  0  0  0  0  0
    4.4474    1.8631   -0.6152 C   0  0  2  0  0  0  0  0  0  0  0  0
    5.5075    1.2094   -1.7436 C   0  0  0  0  0  0  0  0  0  0  0  0
    4.8365    0.8707    0.5483 C   0  0  0  0  0  0  0  0  0  0  0  0
    3.8295    0.4203    1.3138 C   0  0  0  0  0  0  0  0  0  0  0  0
    4.0900   -0.4647    2.3781 C   0  0  0  0  0  0  0  0  0  0  0  0
    5.3581   -0.8250    2.5833 N   0  0  0  0  0  0  0  0  0  0  0  0
    6.3534   -0.3706    1.8152 C   0  0  0  0  0  0  0  0  0  0  0  0
    6.1087    0.4977    0.7688 C   0  0  0  0  0  0  0  0  0  0  0  0
    0.7634   -0.3773   -2.0036 C   0  0  0  0  0  0  0  0  0  0  0  0
    1.9676   -0.6066   -2.6301 C   0  0  0  0  0  0  0  0  0  0  0  0
    2.0011   -1.5319   -3.6518 C   0  0  0  0  0  0  0  0  0  0  0  0
    0.8679   -2.1937   -4.0212 C   0  0  0  0  0  0  0  0  0  0  0  0
   -0.3257   -1.9409   -3.3719 C   0  0  0  0  0  0  0  0  0  0  0  0
   -0.4091   -1.0208   -2.3405 C   0  0  0  0  0  0  0  0  0  0  0  0
   -1.5618   -0.7612   -1.6974 N   0  0  0  0  0  0  0  0  0  0  0  0
   -2.9213    1.3327    1.0239 C   0  0  0  0  0  0  0  0  0  0  0  0
   -4.1018    1.6142    1.7124 C   0  0  0  0  0  0  0  0  0  0  0  0
  1  2  1  0
  2  3  1  0
  2  4  1  0
  4  5  1  0
  5  6  2  0
  6  7  1  0
  7  8  2  0
  8  9  1  0
  9 10  2  0
 10 11  1  0
 11 12  1  0
 12 13  2  0
 12 14  1  0
 14 15  1  0
 15 16  1  6
 15 17  1  0
 17 18  2  0
 18 19  1  0
 19 20  2  0
 20 21  1  0
 21 22  2  0
 11 23  2  0
 23 24  1  0
 24 25  2  0
 25 26  1  0
 26 27  2  0
 27 28  1  0
 28 29  2  0
  8 30  1  0
 30 31  2  0
 31  5  1  0
 29  9  1  0
 22 17  1  0
 28 23  1  0
M  END
>  <zinc_id>  (1) 
ZINC000000647796

>  <smiles>  (1) 
CC(C)Cc1ccc(-c2cc(C(=O)N[C@H](C)c3ccncc3)c3ccccc3n2)cc1

$$$$
