
     RDKit          3D

 31 34  0  0  0  0  0  0  0  0999 V2000
   -5.8709    3.0100    1.2298 C   0  0  0  0  0  0  0  0  0  0  0  0
   -5.7395    1.5218    1.4516 C   0  0  0  0  0  0  0  0  0  0  0  0
   -4.4569    1.0485    1.0875 O   0  0  0  0  0  0  0  0  0  0  0  0
   -4.1870   -0.3072    1.2370 C   0  0  0  0  0  0  0  0  0  0  0  0
   -5.1718   -1.1723    1.7376 C   0  0  0  0  0  0  0  0  0  0  0  0
   -4.9141   -2.5099    1.8881 C   0  0  0  0  0  0  0  0  0  0  0  0
   -3.6622   -2.9689    1.5323 C   0  0  0  0  0  0  0  0  0  0  0  0
   -2.6878   -2.1140    1.0371 C   0  0  0  0  0  0  0  0  0  0  0  0
   -2.9413   -0.7721    0.8844 C   0  0  0  0  0  0  0  0  0  0  0  0
   -2.0035    0.1739    0.3856 N   0  0  0  0  0  0  0  0  0  0  0  0
   -0.6782   -0.2124   -0.0055 C   0  0  0  0  0  0  0  0  0  0  0  0
   -0.4713   -1.4152    0.1409 O   0  0  0  0  0  0  0  0  0  0  0  0
    0.3052    0.7811   -0.5269 C   0  0  0  0  0  0  0  0  0  0  0  0
    1.5806    0.4688   -0.8581 C   0  0  0  0  0  0  0  0  0  0  0  0
    2.4572   -0.5480   -0.7811 N   0  0  0  0  0  0  0  0  0  0  0  0
    2.8289   -1.7583   -0.3724 C   0  0  0  0  0  0  0  0  0  0  0  0
    2.0047   -2.3964    0.3475 O   0  0  0  0  0  0  0  0  0  0  0  0
    4.1271   -2.4066   -0.6969 C   0  0  0  0  0  0  0  0  0  0  0  0
    5.0368   -1.7459   -1.4715 C   0  0  0  0  0  0  0  0  0  0  0  0
    6.2738   -2.3296   -1.7972 C   0  0  0  0  0  0  0  0  0  0  0  0
    6.5647   -3.5968   -1.3191 C   0  0  0  0  0  0  0  0  0  0  0  0
    5.6588   -4.2681   -0.5411 C   0  0  0  0  0  0  0  0  0  0  0  0
    4.4343   -3.6577   -0.2347 C   0  0  0  0  0  0  0  0  0  0  0  0
    2.1629    2.0146   -1.4896 S   0  0  0  0  0  0  0  0  0  0  0  0
    0.7593    2.9370   -1.2855 C   0  0  0  0  0  0  0  0  0  0  0  0
   -0.1101    2.0488   -0.7469 C   0  0  0  0  0  0  0  0  0  0  0  0
   -1.4335    2.7854   -0.5138 C   0  0  0  0  0  0  0  0  0  0  0  0
   -1.1342    3.7706    0.5039 C   0  0  0  0  0  0  0  0  0  0  0  0
   -0.1482    4.9495   -0.0503 C   0  0  1  0  0  0  0  0  0  0  0  0
    1.1714    4.3596    0.7303 C   0  0  0  0  0  0  0  0  0  0  0  0
    0.2452    4.3098   -1.5031 C   0  0  0  0  0  0  0  0  0  0  0  0
  1  2  1  0
  2  3  1  0
  3  4  1  0
  4  5  2  0
  5  6  1  0
  6  7  2  0
  7  8  1  0
  8  9  2  0
  9 10  1  0
 10 11  1  0
 11 12  2  0
 11 13  1  0
 13 14  2  0
 14 15  1  0
 15 16  1  0
 16 17  2  0
 16 18  1  0
 18 19  2  0
 19 20  1  0
 20 21  2  0
 21 22  1  0
 22 23  2  0
 14 24  1  0
 24 25  1  0
 25 26  2  0
 26 27  1  0
 27 28  1  0
 28 29  1  0
 29 30  1  1
 29 31  1  0
  9  4  1  0
 26 13  1  0
 23 18  1  0
 31 25  1  0
M  END
>  <zinc_id>  (1) 
ZINC000001214961

>  <smiles>  (1) 
CCOc1ccccc1NC(=O)c1c(NC(=O)c2ccccc2)sc2c1CC[C@@H](C)C2

$$$$
