
     RDKit          3D

 32 35  0  0  0  0  0  0  0  0999 V2000
    7.3505   -2.1411    1.3722 C   0  0  0  0  0  0  0  0  0  0  0  0
    7.2548   -2.2552   -0.1221 C   0  0  0  0  0  0  0  0  0  0  0  0
    6.5225   -1.1930   -0.7037 O   0  0  0  0  0  0  0  0  0  0  0  0
    5.1904   -0.9466   -0.3743 C   0  0  0  0  0  0  0  0  0  0  0  0
    4.5599    0.1113   -0.9923 C   0  0  0  0  0  0  0  0  0  0  0  0
    3.2333    0.3816   -0.6846 C   0  0  0  0  0  0  0  0  0  0  0  0
    2.5135   -0.3670    0.2185 C   0  0  0  0  0  0  0  0  0  0  0  0
    1.1637   -0.0262    0.4837 N   0  0  0  0  0  0  0  0  0  0  0  0
    0.1915   -0.7448    1.2345 C   0  0  0  0  0  0  0  0  0  0  0  0
    0.4210   -1.8430    1.7902 O   0  0  0  0  0  0  0  0  0  0  0  0
   -1.0636    0.0318    1.2182 C   0  0  0  0  0  0  0  0  0  0  0  0
   -2.2758   -0.3425    1.8525 N   0  0  0  0  0  0  0  0  0  0  0  0
   -3.1792   -1.2887    1.3074 C   0  0  0  0  0  0  0  0  0  0  0  0
   -4.3217   -1.5885    2.0109 C   0  0  0  0  0  0  0  0  0  0  0  0
   -5.2744   -2.5076    1.5569 C   0  0  0  0  0  0  0  0  0  0  0  0
   -5.0737   -3.1485    0.3545 C   0  0  0  0  0  0  0  0  0  0  0  0
   -5.9993   -4.0741   -0.1370 O   0  0  0  0  0  0  0  0  0  0  0  0
   -5.7801   -4.7227   -1.3697 C   0  0  0  0  0  0  0  0  0  0  0  0
   -3.9261   -2.8459   -0.3503 C   0  0  0  0  0  0  0  0  0  0  0  0
   -2.9767   -1.9294    0.1031 C   0  0  0  0  0  0  0  0  0  0  0  0
   -0.8812    1.1364    0.5163 C   0  0  0  0  0  0  0  0  0  0  0  0
   -2.0624    2.4239    0.1793 S   0  0  0  0  0  0  0  0  0  0  0  0
   -1.3322    3.7013   -0.8234 C   0  0  0  0  0  0  0  0  0  0  0  0
   -0.6759    4.8012   -0.3179 C   0  0  0  0  0  0  0  0  0  0  0  0
   -0.1458    5.7377   -1.2086 C   0  0  0  0  0  0  0  0  0  0  0  0
   -0.2715    5.5739   -2.5703 C   0  0  0  0  0  0  0  0  0  0  0  0
   -0.9325    4.4657   -3.0677 C   0  0  0  0  0  0  0  0  0  0  0  0
   -1.4466    3.5574   -2.1990 C   0  0  0  0  0  0  0  0  0  0  0  0
    0.4933    1.1438    0.0381 C   0  0  0  0  0  0  0  0  0  0  0  0
    1.0648    2.0309   -0.6722 O   0  0  0  0  0  0  0  0  0  0  0  0
    3.1617   -1.4203    0.8254 C   0  0  0  0  0  0  0  0  0  0  0  0
    4.4977   -1.7119    0.5314 C   0  0  0  0  0  0  0  0  0  0  0  0
  1  2  1  0
  2  3  1  0
  3  4  1  0
  4  5  2  0
  5  6  1  0
  6  7  2  0
  7  8  1  0
  8  9  1  0
  9 10  2  0
  9 11  1  0
 11 12  1  0
 12 13  1  0
 13 14  2  0
 14 15  1  0
 15 16  2  0
 16 17  1  0
 17 18  1  0
 16 19  1  0
 19 20  2  0
 11 21  2  0
 21 22  1  0
 22 23  1  0
 23 24  2  0
 24 25  1  0
 25 26  2  0
 26 27  1  0
 27 28  2  0
 21 29  1  0
 29 30  2  0
  7 31  1  0
 31 32  2  0
 32  4  1  0
 29  8  1  0
 20 13  1  0
 28 23  1  0
M  END
>  <zinc_id>  (1) 
ZINC000001928669

>  <smiles>  (1) 
CCOc1ccc(N2C(=O)C(Nc3ccc(OC)cc3)=C(Sc3ccccc3)C2=O)cc1

$$$$
