
     RDKit          3D

 31 34  0  0  0  0  0  0  0  0999 V2000
    8.7501   -2.3769    0.0054 C   0  0  0  0  0  0  0  0  0  0  0  0
    7.2828   -2.2718    0.2851 C   0  0  0  0  0  0  0  0  0  0  0  0
    6.6756   -1.1285   -0.2865 O   0  0  0  0  0  0  0  0  0  0  0  0
    5.3155   -0.9433   -0.0800 C   0  0  0  0  0  0  0  0  0  0  0  0
    4.6436    0.1589   -0.6091 C   0  0  0  0  0  0  0  0  0  0  0  0
    3.2923    0.3371   -0.3999 C   0  0  0  0  0  0  0  0  0  0  0  0
    2.5528   -0.5444    0.3261 C   0  0  0  0  0  0  0  0  0  0  0  0
    1.1615   -0.3919    0.5661 N   0  0  0  0  0  0  0  0  0  0  0  0
    0.2309   -1.3717    0.9809 C   0  0  0  0  0  0  0  0  0  0  0  0
    0.5198   -2.5895    1.2025 O   0  0  0  0  0  0  0  0  0  0  0  0
   -1.0818   -0.7684    1.1082 C   0  0  0  0  0  0  0  0  0  0  0  0
   -2.2290   -1.4904    1.5114 N   0  0  0  0  0  0  0  0  0  0  0  0
   -3.2103   -1.8128    0.5503 C   0  0  0  0  0  0  0  0  0  0  0  0
   -3.0806   -1.4380   -0.7502 C   0  0  0  0  0  0  0  0  0  0  0  0
   -4.0328   -1.7534   -1.6792 C   0  0  0  0  0  0  0  0  0  0  0  0
   -5.1689   -2.4725   -1.3072 C   0  0  0  0  0  0  0  0  0  0  0  0
   -6.1641   -2.7858   -2.3436 C   0  0  0  0  0  0  0  0  0  0  0  0
   -5.2719   -2.8368    0.0146 C   0  0  0  0  0  0  0  0  0  0  0  0
   -4.3174   -2.5229    0.9530 C   0  0  0  0  0  0  0  0  0  0  0  0
   -0.9951    0.5423    0.7880 C   0  0  0  0  0  0  0  0  0  0  0  0
   -2.3967    1.5956    0.8314 S   0  0  0  0  0  0  0  0  0  0  0  0
   -2.0919    3.2541    0.3673 C   0  0  0  0  0  0  0  0  0  0  0  0
   -0.8970    3.7594   -0.0330 C   0  0  0  0  0  0  0  0  0  0  0  0
   -0.7039    5.0657   -0.3849 C   0  0  0  0  0  0  0  0  0  0  0  0
   -1.7588    5.9575   -0.3456 C   0  0  0  0  0  0  0  0  0  0  0  0
   -2.9836    5.4534    0.0615 C   0  0  0  0  0  0  0  0  0  0  0  0
   -3.1829    4.1494    0.4149 C   0  0  0  0  0  0  0  0  0  0  0  0
    0.3800    0.8138    0.4464 C   0  0  0  0  0  0  0  0  0  0  0  0
    0.9271    1.8909    0.0869 O   0  0  0  0  0  0  0  0  0  0  0  0
    3.2516   -1.6404    0.8448 C   0  0  0  0  0  0  0  0  0  0  0  0
    4.5830   -1.8390    0.6532 C   0  0  0  0  0  0  0  0  0  0  0  0
  1  2  1  0
  2  3  1  0
  3  4  1  0
  4  5  2  0
  5  6  1  0
  6  7  2  0
  7  8  1  0
  8  9  1  0
  9 10  2  0
  9 11  1  0
 11 12  1  0
 12 13  1  0
 13 14  2  0
 14 15  1  0
 15 16  2  0
 16 17  1  0
 16 18  1  0
 18 19  2  0
 11 20  2  0
 20 21  1  0
 21 22  1  0
 22 23  2  0
 23 24  1  0
 24 25  2  0
 25 26  1  0
 26 27  2  0
 20 28  1  0
 28 29  2  0
  7 30  1  0
 30 31  2  0
 31  4  1  0
 28  8  1  0
 19 13  1  0
 27 22  1  0
M  END
>  <zinc_id>  (1) 
ZINC000001928662

>  <smiles>  (1) 
CCOc1ccc(N2C(=O)C(Nc3ccc(C)cc3)=C(Sc3ccccc3)C2=O)cc1

$$$$
