
     RDKit          3D

 31 34  0  0  0  0  0  0  0  0999 V2000
   -5.8604   -0.4306   -2.0578 C   0  0  0  0  0  0  0  0  0  0  0  0
   -4.6202   -0.3615   -1.3902 O   0  0  0  0  0  0  0  0  0  0  0  0
   -4.1629   -1.4816   -0.7146 C   0  0  0  0  0  0  0  0  0  0  0  0
   -4.8801   -2.6722   -0.6689 C   0  0  0  0  0  0  0  0  0  0  0  0
   -4.3979   -3.7533    0.0050 C   0  0  0  0  0  0  0  0  0  0  0  0
   -3.2028   -3.6802    0.6444 C   0  0  0  0  0  0  0  0  0  0  0  0
   -2.4617   -2.5186    0.6232 C   0  0  0  0  0  0  0  0  0  0  0  0
   -2.9540   -1.4073   -0.0675 C   0  0  0  0  0  0  0  0  0  0  0  0
   -2.1887   -0.2016   -0.0749 N   0  0  0  0  0  0  0  0  0  0  0  0
   -0.9057   -0.1275    0.5430 C   0  0  0  0  0  0  0  0  0  0  0  0
   -0.5119   -1.1832    1.0739 O   0  0  0  0  0  0  0  0  0  0  0  0
   -0.1106    1.1416    0.5377 C   0  0  0  0  0  0  0  0  0  0  0  0
    1.1600    1.1610    0.9917 C   0  0  0  0  0  0  0  0  0  0  0  0
    2.2149    0.2480    1.1644 N   0  0  0  0  0  0  0  0  0  0  0  0
    2.4508   -0.9359    0.5106 C   0  0  0  0  0  0  0  0  0  0  0  0
    1.7092   -1.3463   -0.4157 O   0  0  0  0  0  0  0  0  0  0  0  0
    3.6452   -1.8127    0.8863 C   0  0  0  0  0  0  0  0  0  0  0  0
    4.6180   -1.7552   -0.2310 C   0  0  0  0  0  0  0  0  0  0  0  0
    5.7149   -0.8983   -0.0633 C   0  0  0  0  0  0  0  0  0  0  0  0
    6.6778   -0.7387   -1.0251 C   0  0  0  0  0  0  0  0  0  0  0  0
    6.5582   -1.4605   -2.2168 C   0  0  0  0  0  0  0  0  0  0  0  0
    5.4954   -2.2958   -2.3883 C   0  0  0  0  0  0  0  0  0  0  0  0
    4.5467   -2.4346   -1.4078 C   0  0  0  0  0  0  0  0  0  0  0  0
    1.4627    2.9082    1.0758 S   0  0  0  0  0  0  0  0  0  0  0  0
   -0.0275    3.4599    0.5226 C   0  0  0  0  0  0  0  0  0  0  0  0
   -0.7326    2.3144    0.2874 C   0  0  0  0  0  0  0  0  0  0  0  0
   -2.1670    2.3878   -0.2397 C   0  0  0  0  0  0  0  0  0  0  0  0
   -2.8760    3.5834    0.2859 C   0  0  0  0  0  0  0  0  0  0  0  0
   -2.3290    4.0853    1.6001 C   0  0  0  0  0  0  0  0  0  0  0  0
   -1.4616    5.2922    1.3693 C   0  0  0  0  0  0  0  0  0  0  0  0
   -0.4031    4.9139    0.3541 C   0  0  0  0  0  0  0  0  0  0  0  0
  1  2  1  0
  2  3  1  0
  3  4  2  0
  4  5  1  0
  5  6  2  0
  6  7  1  0
  7  8  2  0
  8  9  1  0
  9 10  1  0
 10 11  2  0
 10 12  1  0
 12 13  2  0
 13 14  1  0
 14 15  1  0
 15 16  2  0
 15 17  1  0
 17 18  1  0
 18 19  2  0
 19 20  1  0
 20 21  2  0
 21 22  1  0
 22 23  2  0
 13 24  1  0
 24 25  1  0
 25 26  2  0
 26 27  1  0
 27 28  1  0
 28 29  1  0
 29 30  1  0
 30 31  1  0
  8  3  1  0
 26 12  1  0
 23 18  1  0
 31 25  1  0
M  END
>  <zinc_id>  (1) 
ZINC000000722337

>  <smiles>  (1) 
COc1ccccc1NC(=O)c1c(NC(=O)Cc2ccccc2)sc2c1CCCCC2

$$$$
