
     RDKit          3D

 34 38  0  0  0  0  0  0  0  0999 V2000
    7.6922   -2.1302   -2.6492 C   0  0  0  0  0  0  0  0  0  0  0  0
    7.1797   -1.6314   -1.5997 O   0  0  0  0  0  0  0  0  0  0  0  0
    6.5122   -1.0381   -0.6774 C   0  0  0  0  0  0  0  0  0  0  0  0
    6.7777   -1.0168    0.6510 C   0  0  0  0  0  0  0  0  0  0  0  0
    6.0319   -0.4111    1.5823 C   0  0  0  0  0  0  0  0  0  0  0  0
    4.8379    0.2934    1.2323 C   0  0  0  0  0  0  0  0  0  0  0  0
    3.8730    0.9591    1.8477 N   0  0  0  0  0  0  0  0  0  0  0  0
    2.9485    1.4038    0.8906 C   0  0  0  0  0  0  0  0  0  0  0  0
    3.3392    0.9847   -0.3395 C   0  0  0  0  0  0  0  0  0  0  0  0
    2.7614    1.1468   -1.6849 C   0  0  0  0  0  0  0  0  0  0  0  0
    1.4236    1.8044   -1.7376 C   0  0  0  0  0  0  0  0  0  0  0  0
    0.3591    1.1949   -1.0057 N   0  0  0  0  0  0  0  0  0  0  0  0
    0.0390   -0.1567   -0.7973 C   0  0  0  0  0  0  0  0  0  0  0  0
    0.7579   -1.1745   -1.2405 N   0  0  0  0  0  0  0  0  0  0  0  0
    0.5213   -2.4654   -1.0158 C   0  0  0  0  0  0  0  0  0  0  0  0
   -0.5579   -2.7984   -0.2428 N   0  0  0  0  0  0  0  0  0  0  0  0
   -1.3345   -1.8017    0.2371 C   0  0  0  0  0  0  0  0  0  0  0  0
   -2.4794   -2.0486    0.9713 C   0  0  0  0  0  0  0  0  0  0  0  0
   -3.3690   -1.1095    1.4531 C   0  0  0  0  0  0  0  0  0  0  0  0
   -3.0998    0.1651    1.1835 C   0  0  0  0  0  0  0  0  0  0  0  0
   -3.9140    1.3989    1.3374 C   0  0  0  0  0  0  0  0  0  0  0  0
   -3.4801    2.5901    1.7743 C   0  0  0  0  0  0  0  0  0  0  0  0
   -4.3173    3.7292    1.5895 C   0  0  0  0  0  0  0  0  0  0  0  0
   -5.5001    3.5368    0.9891 C   0  0  0  0  0  0  0  0  0  0  0  0
   -6.0087    2.3549    0.5275 C   0  0  0  0  0  0  0  0  0  0  0  0
   -5.1742    1.2339    0.7211 C   0  0  0  0  0  0  0  0  0  0  0  0
   -5.7589   -0.0210    0.5193 C   0  0  0  0  0  0  0  0  0  0  0  0
   -5.5428   -1.1235   -0.1462 N   0  0  0  0  0  0  0  0  0  0  0  0
   -5.1459   -1.4599   -1.4114 C   0  0  0  0  0  0  0  0  0  0  0  0
   -6.2293   -2.3326    0.4421 C   0  0  0  0  0  0  0  0  0  0  0  0
   -1.9330    0.4625    0.4315 C   0  0  0  0  0  0  0  0  0  0  0  0
   -1.0998   -0.4855   -0.0084 C   0  0  0  0  0  0  0  0  0  0  0  0
    4.5555    0.2900   -0.1116 C   0  0  0  0  0  0  0  0  0  0  0  0
    5.3345   -0.3433   -1.0527 C   0  0  0  0  0  0  0  0  0  0  0  0
  1  2  1  0
  2  3  1  0
  3  4  2  0
  4  5  1  0
  5  6  2  0
  6  7  1  0
  7  8  1  0
  8  9  2  0
  9 10  1  0
 10 11  1  0
 11 12  1  0
 12 13  1  0
 13 14  2  0
 14 15  1  0
 15 16  2  0
 16 17  1  0
 17 18  2  0
 18 19  1  0
 19 20  2  0
 20 21  1  0
 21 22  2  0
 22 23  1  0
 23 24  2  0
 24 25  1  0
 25 26  2  0
 26 27  1  0
 27 28  1  0
 28 29  1  0
 28 30  1  0
 20 31  1  0
 31 32  2  0
  9 33  1  0
 33 34  2  0
 34  3  1  0
 33  6  1  0
 32 13  1  0
 32 17  1  0
 26 21  1  0
M  END
>  <zinc_id>  (1) 
ZINC000004267997

>  <smiles>  (1) 
COc1ccc2[nH]cc(CCNc3ncnc4ccc(-c5ccccc5CN(C)C)cc34)c2c1

$$$$
