
     RDKit          3D

 31 34  0  0  0  0  0  0  0  0999 V2000
    7.0591   -3.3466    0.1047 C   0  0  0  0  0  0  0  0  0  0  0  0
    6.4941   -2.7773   -1.1818 C   0  0  0  0  0  0  0  0  0  0  0  0
    5.2647   -2.1395   -0.9996 O   0  0  0  0  0  0  0  0  0  0  0  0
    5.0563   -1.0480   -0.1675 C   0  0  0  0  0  0  0  0  0  0  0  0
    6.0325   -0.4559    0.5829 C   0  0  0  0  0  0  0  0  0  0  0  0
    5.7236    0.6229    1.3770 C   0  0  0  0  0  0  0  0  0  0  0  0
    4.4130    1.1007    1.4066 C   0  0  0  0  0  0  0  0  0  0  0  0
    3.4225    0.5199    0.6615 C   0  0  0  0  0  0  0  0  0  0  0  0
    2.0746    1.0345    0.7107 C   0  0  0  0  0  0  0  0  0  0  0  0
    1.0434    0.4668   -0.0348 C   0  0  0  0  0  0  0  0  0  0  0  0
   -0.2192    0.9872    0.0425 C   0  0  0  0  0  0  0  0  0  0  0  0
   -1.3300    0.3941   -0.7456 C   0  0  0  0  0  0  0  0  0  0  0  0
   -1.1315   -0.5917   -1.4942 O   0  0  0  0  0  0  0  0  0  0  0  0
   -2.6405    0.9269   -0.6713 N   0  0  0  0  0  0  0  0  0  0  0  0
   -3.7837    0.4189   -1.3978 C   0  0  0  0  0  0  0  0  0  0  0  0
   -4.0822   -0.9916   -1.0500 C   0  0  0  0  0  0  0  0  0  0  0  0
   -3.2904   -1.6198   -0.1290 C   0  0  0  0  0  0  0  0  0  0  0  0
   -3.5355   -2.9191    0.2189 C   0  0  0  0  0  0  0  0  0  0  0  0
   -4.5674   -3.6257   -0.3351 C   0  0  0  0  0  0  0  0  0  0  0  0
   -5.3649   -2.9736   -1.2710 C   0  0  0  0  0  0  0  0  0  0  0  0
   -5.1174   -1.6712   -1.6183 C   0  0  0  0  0  0  0  0  0  0  0  0
   -5.9230   -1.0377   -2.5530 O   0  0  0  0  0  0  0  0  0  0  0  0
   -7.0129   -1.6606   -3.1905 C   0  0  0  0  0  0  0  0  0  0  0  0
   -0.4453    2.0655    0.8588 C   0  0  0  0  0  0  0  0  0  0  0  0
   -1.7146    2.5821    0.9312 C   0  0  0  0  0  0  0  0  0  0  0  0
   -1.9375    3.6585    1.7468 C   0  0  0  0  0  0  0  0  0  0  0  0
   -0.9357    4.2396    2.4952 C   0  0  0  0  0  0  0  0  0  0  0  0
    0.3365    3.6914    2.3979 C   0  0  0  0  0  0  0  0  0  0  0  0
    0.5702    2.6170    1.5868 C   0  0  0  0  0  0  0  0  0  0  0  0
    1.7978    2.0895    1.4941 N   0  0  0  0  0  0  0  0  0  0  0  0
    3.7433   -0.5574   -0.1282 C   0  0  0  0  0  0  0  0  0  0  0  0
  1  2  1  0
  2  3  1  0
  3  4  1  0
  4  5  2  0
  5  6  1  0
  6  7  2  0
  7  8  1  0
  8  9  1  0
  9 10  2  0
 10 11  1  0
 11 12  1  0
 12 13  2  0
 12 14  1  0
 14 15  1  0
 15 16  1  0
 16 17  2  0
 17 18  1  0
 18 19  2  0
 19 20  1  0
 20 21  2  0
 21 22  1  0
 22 23  1  0
 11 24  2  0
 24 25  1  0
 25 26  2  0
 26 27  1  0
 27 28  2  0
 28 29  1  0
 29 30  2  0
  8 31  2  0
 31  4  1  0
 30  9  1  0
 21 16  1  0
 29 24  1  0
M  END
>  <zinc_id>  (1) 
ZINC000002759326

>  <smiles>  (1) 
CCOc1cccc(-c2cc(C(=O)NCc3ccccc3OC)c3ccccc3n2)c1

$$$$
