
     RDKit          3D

 31 34  0  0  0  0  0  0  0  0999 V2000
    2.4323   -4.4019    1.6335 C   0  0  0  0  0  0  0  0  0  0  0  0
    2.1647   -3.0817    1.0307 C   0  0  0  0  0  0  0  0  0  0  0  0
    2.9208   -2.7050   -0.0766 C   0  0  0  0  0  0  0  0  0  0  0  0
    2.6894   -1.4751   -0.6581 C   0  0  0  0  0  0  0  0  0  0  0  0
    1.7512   -0.5976   -0.2046 C   0  0  0  0  0  0  0  0  0  0  0  0
    1.5929    0.6392   -0.8731 N   0  0  0  0  0  0  0  0  0  0  0  0
    2.5229    1.3475   -1.5389 C   0  0  0  0  0  0  0  0  0  0  0  0
    3.9502    0.9752   -1.7205 C   0  0  0  0  0  0  0  0  0  0  0  0
    4.7753    1.5131   -0.6248 C   0  0  0  0  0  0  0  0  0  0  0  0
    4.9734    0.7583    0.5057 C   0  0  0  0  0  0  0  0  0  0  0  0
    5.7177    1.1708    1.5652 C   0  0  0  0  0  0  0  0  0  0  0  0
    6.3203    2.4060    1.5381 C   0  0  0  0  0  0  0  0  0  0  0  0
    6.1442    3.1914    0.4206 C   0  0  0  0  0  0  0  0  0  0  0  0
    5.3720    2.7517   -0.6668 C   0  0  0  0  0  0  0  0  0  0  0  0
    1.8909    2.4492   -1.9981 N   0  0  0  0  0  0  0  0  0  0  0  0
    0.6331    2.4475   -1.6483 N   0  0  0  0  0  0  0  0  0  0  0  0
    0.4277    1.3085   -0.9353 C   0  0  0  0  0  0  0  0  0  0  0  0
   -1.1643    0.8857   -0.2504 S   0  0  0  0  0  0  0  0  0  0  0  0
   -2.1219   -0.0971   -1.4343 C   0  0  0  0  0  0  0  0  0  0  0  0
   -3.4400   -0.4682   -0.9140 C   0  0  0  0  0  0  0  0  0  0  0  0
   -4.1950   -1.1518   -1.6479 O   0  0  0  0  0  0  0  0  0  0  0  0
   -3.9272   -0.1083    0.3669 N   0  0  0  0  0  0  0  0  0  0  0  0
   -5.2220   -0.5047    0.8080 C   0  0  0  0  0  0  0  0  0  0  0  0
   -6.0762   -1.2607    0.0146 C   0  0  0  0  0  0  0  0  0  0  0  0
   -7.3364   -1.6398    0.4581 C   0  0  0  0  0  0  0  0  0  0  0  0
   -7.7430   -1.2555    1.7116 C   0  0  0  0  0  0  0  0  0  0  0  0
   -6.9039   -0.4955    2.5289 C   0  0  0  0  0  0  0  0  0  0  0  0
   -5.6473   -0.1276    2.0644 C   0  0  0  0  0  0  0  0  0  0  0  0
   -4.7171    0.6849    2.9047 C   0  0  0  0  0  0  0  0  0  0  0  0
    0.9964   -0.9587    0.8904 C   0  0  0  0  0  0  0  0  0  0  0  0
    1.2189   -2.1998    1.4898 C   0  0  0  0  0  0  0  0  0  0  0  0
  1  2  1  0
  2  3  2  0
  3  4  1  0
  4  5  2  0
  5  6  1  0
  6  7  1  0
  7  8  1  0
  8  9  1  0
  9 10  2  0
 10 11  1  0
 11 12  2  0
 12 13  1  0
 13 14  2  0
  7 15  2  0
 15 16  1  0
 16 17  2  0
 17 18  1  0
 18 19  1  0
 19 20  1  0
 20 21  2  0
 20 22  1  0
 22 23  1  0
 23 24  2  0
 24 25  1  0
 25 26  2  0
 26 27  1  0
 27 28  2  0
 28 29  1  0
  5 30  1  0
 30 31  2  0
 31  2  1  0
 17  6  1  0
 28 23  1  0
 14  9  1  0
M  END
>  <zinc_id>  (1) 
ZINC000000888261

>  <smiles>  (1) 
Cc1ccc(-n2c(Cc3ccccc3)nnc2SCC(=O)Nc2ccccc2C)cc1

$$$$
