
     RDKit          3D

 30 32  0  0  0  0  0  0  0  0999 V2000
    0.2195   -2.6776    1.6175 C   0  0  0  0  0  0  0  0  0  0  0  0
    0.6581   -2.1340    0.4879 C   0  0  0  0  0  0  0  0  0  0  0  0
   -0.1155   -2.1806   -0.6899 N   0  0  0  0  0  0  0  0  0  0  0  0
   -0.5645   -1.0974   -1.4063 N   0  0  0  0  0  0  0  0  0  0  0  0
   -1.5460   -0.2653   -0.8168 C   0  0  0  0  0  0  0  0  0  0  0  0
   -1.9642   -0.5130    0.3223 O   0  0  0  0  0  0  0  0  0  0  0  0
   -2.0537    0.8823   -1.5771 C   0  0  0  0  0  0  0  0  0  0  0  0
   -3.0806    1.5033   -0.8358 O   0  0  0  0  0  0  0  0  0  0  0  0
   -4.2129    0.7481   -0.5306 C   0  0  0  0  0  0  0  0  0  0  0  0
   -4.3236   -0.5746   -0.9415 C   0  0  0  0  0  0  0  0  0  0  0  0
   -5.4555   -1.3293   -0.6356 C   0  0  0  0  0  0  0  0  0  0  0  0
   -5.5063   -2.7614   -1.1069 C   0  0  0  0  0  0  0  0  0  0  0  0
   -6.5033   -0.7975    0.0820 C   0  0  0  0  0  0  0  0  0  0  0  0
   -6.3892    0.5277    0.4909 C   0  0  0  0  0  0  0  0  0  0  0  0
   -5.2639    1.2774    0.1865 C   0  0  0  0  0  0  0  0  0  0  0  0
   -5.1877    2.6794    0.6568 C   0  0  0  0  0  0  0  0  0  0  0  0
   -6.5196    3.0531    1.2982 C   0  0  0  0  0  0  0  0  0  0  0  0
   -4.1639    2.7049    1.7702 C   0  0  0  0  0  0  0  0  0  0  0  0
    1.9706   -1.4906    0.3858 C   0  0  0  0  0  0  0  0  0  0  0  0
    2.2726   -0.6452   -0.6742 C   0  0  0  0  0  0  0  0  0  0  0  0
    3.5107   -0.0604   -0.7815 C   0  0  0  0  0  0  0  0  0  0  0  0
    4.5280   -0.2545    0.1213 C   0  0  0  0  0  0  0  0  0  0  0  0
    5.8286    0.4001   -0.0591 C   0  0  0  0  0  0  0  0  0  0  0  0
    6.5900    0.7462    1.0374 C   0  0  0  0  0  0  0  0  0  0  0  0
    7.8362    1.3746    0.8809 C   0  0  0  0  0  0  0  0  0  0  0  0
    8.3111    1.6521   -0.3692 C   0  0  0  0  0  0  0  0  0  0  0  0
    7.5826    1.3224   -1.4821 C   0  0  0  0  0  0  0  0  0  0  0  0
    6.3286    0.6912   -1.3001 C   0  0  0  0  0  0  0  0  0  0  0  0
    4.2314   -1.0952    1.1796 C   0  0  0  0  0  0  0  0  0  0  0  0
    2.9826   -1.6864    1.2925 C   0  0  0  0  0  0  0  0  0  0  0  0
  1  2  2  0
  2  3  1  0
  3  4  1  0
  4  5  1  0
  5  6  2  0
  5  7  1  0
  7  8  1  0
  8  9  1  0
  9 10  2  0
 10 11  1  0
 11 12  1  0
 11 13  2  0
 13 14  1  0
 14 15  2  0
 15 16  1  0
 16 17  1  0
 16 18  1  0
  2 19  1  0
 19 20  2  0
 20 21  1  0
 21 22  2  0
 22 23  1  0
 23 24  2  0
 24 25  1  0
 25 26  2  0
 26 27  1  0
 27 28  2  0
 22 29  1  0
 29 30  2  0
 15  9  1  0
 30 19  1  0
 28 23  1  0
M  END
>  <zinc_id>  (1) 
ZINC000002165969

>  <smiles>  (1) 
C=C(NNC(=O)COc1cc(C)ccc1C(C)C)c1ccc(-c2ccccc2)cc1

$$$$
