
     RDKit          3D

 32 35  0  0  0  0  0  0  0  0999 V2000
    5.5908   -0.4411   -2.0839 C   0  0  0  0  0  0  0  0  0  0  0  0
    5.5299   -1.1970   -0.7945 C   0  0  0  0  0  0  0  0  0  0  0  0
    5.2239   -0.3407    0.3213 N   0  0  0  0  0  0  0  0  0  0  0  0
    6.2625    0.5905    0.6527 C   0  0  0  0  0  0  0  0  0  0  0  0
    7.5009   -0.0335    1.2043 C   0  0  0  0  0  0  0  0  0  0  0  0
    4.8044   -1.0417    1.5028 C   0  0  0  0  0  0  0  0  0  0  0  0
    4.5253    0.0179    2.5688 C   0  0  0  0  0  0  0  0  0  0  0  0
    3.5098    0.8502    2.0614 O   0  0  0  0  0  0  0  0  0  0  0  0
    2.2525    0.4066    1.7185 C   0  0  0  0  0  0  0  0  0  0  0  0
    1.9160   -0.9217    1.8612 C   0  0  0  0  0  0  0  0  0  0  0  0
    0.6519   -1.3876    1.5209 C   0  0  0  0  0  0  0  0  0  0  0  0
   -0.3016   -0.5319    1.0308 C   0  0  0  0  0  0  0  0  0  0  0  0
   -1.5737   -0.9850    0.6862 O   0  0  0  0  0  0  0  0  0  0  0  0
   -2.5282   -0.0550    0.1744 C   0  0  0  0  0  0  0  0  0  0  0  0
   -2.6031    0.1012   -1.1830 C   0  0  0  0  0  0  0  0  0  0  0  0
   -1.8154   -0.5810   -2.2254 C   0  0  0  0  0  0  0  0  0  0  0  0
   -2.0948   -0.2522   -3.5322 C   0  0  0  0  0  0  0  0  0  0  0  0
   -1.3815   -0.8694   -4.5749 C   0  0  0  0  0  0  0  0  0  0  0  0
   -0.4090   -1.7985   -4.2756 C   0  0  0  0  0  0  0  0  0  0  0  0
    0.3101   -2.4226   -5.2930 O   0  0  0  0  0  0  0  0  0  0  0  0
   -0.1221   -2.1344   -2.9685 C   0  0  0  0  0  0  0  0  0  0  0  0
   -0.8568   -1.4955   -1.9568 C   0  0  0  0  0  0  0  0  0  0  0  0
   -3.8345    1.2725   -1.3668 S   0  0  0  0  0  0  0  0  0  0  0  0
   -4.2191    1.5308    0.2709 C   0  0  0  0  0  0  0  0  0  0  0  0
   -5.1358    2.3510    0.9535 C   0  0  0  0  0  0  0  0  0  0  0  0
   -5.2138    2.3369    2.3447 C   0  0  0  0  0  0  0  0  0  0  0  0
   -6.1057    3.1338    3.0305 O   0  0  0  0  0  0  0  0  0  0  0  0
   -4.3482    1.4825    2.9681 C   0  0  0  0  0  0  0  0  0  0  0  0
   -3.4534    0.6791    2.3447 C   0  0  0  0  0  0  0  0  0  0  0  0
   -3.3714    0.6910    0.9301 C   0  0  0  0  0  0  0  0  0  0  0  0
    0.0182    0.7925    0.8832 C   0  0  0  0  0  0  0  0  0  0  0  0
    1.2720    1.2306    1.2252 C   0  0  0  0  0  0  0  0  0  0  0  0
  1  2  1  0
  2  3  1  0
  3  4  1  0
  4  5  1  0
  3  6  1  0
  6  7  1  0
  7  8  1  0
  8  9  1  0
  9 10  2  0
 10 11  1  0
 11 12  2  0
 12 13  1  0
 13 14  1  0
 14 15  2  0
 15 16  1  0
 16 17  2  0
 17 18  1  0
 18 19  2  0
 19 20  1  0
 19 21  1  0
 21 22  2  0
 15 23  1  0
 23 24  1  0
 24 25  2  0
 25 26  1  0
 26 27  1  0
 26 28  2  0
 28 29  1  0
 29 30  2  0
 12 31  1  0
 31 32  2  0
 32  9  1  0
 30 14  1  0
 22 16  1  0
 30 24  1  0
M  END
>  <zinc_id>  (1) 
ZINC000001543912

>  <smiles>  (1) 
CCN(CC)CCOc1ccc(Oc2c(-c3ccc(O)cc3)sc3cc(O)ccc23)cc1

$$$$
