
     RDKit          3D

 30 32  0  0  0  0  0  0  0  0999 V2000
    5.3872    0.4355    2.7962 C   0  0  0  0  0  0  0  0  0  0  0  0
    3.9217    0.1570    3.0067 C   0  0  0  0  0  0  0  0  0  0  0  0
    3.2792    0.0233    1.7544 O   0  0  0  0  0  0  0  0  0  0  0  0
    3.8068   -0.9495    0.8856 C   0  0  0  0  0  0  0  0  0  0  0  0
    4.8442   -1.7599    1.2443 N   0  0  0  0  0  0  0  0  0  0  0  0
    5.3499   -2.6995    0.4123 C   0  0  0  0  0  0  0  0  0  0  0  0
    4.8486   -2.8976   -0.8425 C   0  0  0  0  0  0  0  0  0  0  0  0
    3.7774   -2.0635   -1.2472 C   0  0  0  0  0  0  0  0  0  0  0  0
    3.2649   -1.0863   -0.3410 C   0  0  0  0  0  0  0  0  0  0  0  0
    2.1257   -0.4414   -0.8953 C   0  0  0  0  0  0  0  0  0  0  0  0
    1.9553   -0.4418   -2.1943 O   0  0  0  0  0  0  0  0  0  0  0  0
    1.0569    0.2022   -0.3420 O   0  0  0  0  0  0  0  0  0  0  0  0
    0.0468    0.7866   -1.3814 C   0  0  1  0  0  0  0  0  0  0  0  0
   -1.2803    0.2615   -0.8518 C   0  0  0  0  0  0  0  0  0  0  0  0
   -1.1622   -0.8184   -0.0676 O   0  0  0  0  0  0  0  0  0  0  0  0
   -2.5970    0.6704   -1.0737 N   0  0  0  0  0  0  0  0  0  0  0  0
   -3.6674   -0.2414   -0.4689 C   0  0  0  0  0  0  0  0  0  0  0  0
   -3.2549   -1.4112    0.1227 C   0  0  0  0  0  0  0  0  0  0  0  0
   -4.2182   -2.3508    0.5489 C   0  0  0  0  0  0  0  0  0  0  0  0
   -3.7426   -3.6432    1.1782 C   0  0  0  0  0  0  0  0  0  0  0  0
   -5.5315   -2.0559    0.3474 C   0  0  0  0  0  0  0  0  0  0  0  0
   -5.9432   -0.8837   -0.2508 C   0  0  0  0  0  0  0  0  0  0  0  0
   -7.3931   -0.6324   -0.4416 C   0  0  0  0  0  0  0  0  0  0  0  0
   -4.9704    0.0474   -0.6635 C   0  0  0  0  0  0  0  0  0  0  0  0
    0.0741    2.2503   -1.0457 C   0  0  0  0  0  0  0  0  0  0  0  0
   -0.9135    3.0403   -1.5689 C   0  0  0  0  0  0  0  0  0  0  0  0
   -1.0181    4.4169   -1.3994 C   0  0  0  0  0  0  0  0  0  0  0  0
   -0.0510    5.0053   -0.6508 C   0  0  0  0  0  0  0  0  0  0  0  0
    0.9535    4.2118   -0.1178 C   0  0  0  0  0  0  0  0  0  0  0  0
    1.0510    2.8682   -0.2810 C   0  0  0  0  0  0  0  0  0  0  0  0
  1  2  1  0
  2  3  1  0
  3  4  1  0
  4  5  2  0
  5  6  1  0
  6  7  2  0
  7  8  1  0
  8  9  2  0
  9 10  1  0
 10 11  2  0
 10 12  1  0
 13 12  1  6
 13 14  1  0
 14 15  2  0
 14 16  1  0
 16 17  1  0
 17 18  2  0
 18 19  1  0
 19 20  1  0
 19 21  2  0
 21 22  1  0
 22 23  1  0
 22 24  2  0
 13 25  1  0
 25 26  2  0
 26 27  1  0
 27 28  2  0
 28 29  1  0
 29 30  2  0
  9  4  1  0
 24 17  1  0
 30 25  1  0
M  END
>  <zinc_id>  (1) 
ZINC000003221218

>  <smiles>  (1) 
CCOc1ncccc1C(=O)O[C@H](C(=O)Nc1cc(C)cc(C)c1)c1ccccc1

$$$$
