
     RDKit          3D

 30 33  0  0  0  0  0  0  0  0999 V2000
    5.1004   -1.7713    0.7975 C   0  0  0  0  0  0  0  0  0  0  0  0
    5.2049   -0.3620    0.5029 C   0  0  0  0  0  0  0  0  0  0  0  0
    5.2577   -0.0954   -1.1119 C   0  0  1  0  0  0  0  0  0  0  0  0
    6.6255   -0.9863   -1.3137 C   0  0  0  0  0  0  0  0  0  0  0  0
    4.2750   -1.3388   -1.5554 C   0  0  0  0  0  0  0  0  0  0  0  0
    3.0420   -1.0786   -0.9105 O   0  0  0  0  0  0  0  0  0  0  0  0
    2.3692    0.0570   -1.1694 C   0  0  0  0  0  0  0  0  0  0  0  0
    2.8841    0.8737   -2.0073 O   0  0  0  0  0  0  0  0  0  0  0  0
    1.1019    0.4600   -0.5899 C   0  0  0  0  0  0  0  0  0  0  0  0
    0.3661    1.6191   -0.8221 C   0  0  0  0  0  0  0  0  0  0  0  0
    0.7887    2.6261   -1.7168 N   0  0  0  0  0  0  0  0  0  0  0  0
   -0.7469    1.5980   -0.0827 N   0  0  0  0  0  0  0  0  0  0  0  0
   -1.7737    2.7504   -0.1209 C   0  0  2  0  0  0  0  0  0  0  0  0
   -2.4485    2.5623    1.3885 C   0  0  0  0  0  0  0  0  0  0  0  0
   -2.8777    1.9682   -0.9667 C   0  0  0  0  0  0  0  0  0  0  0  0
   -3.8449    1.2325   -0.4863 C   0  0  0  0  0  0  0  0  0  0  0  0
   -4.7341    0.6109   -1.3715 C   0  0  0  0  0  0  0  0  0  0  0  0
   -4.5882    0.7740   -2.7067 C   0  0  0  0  0  0  0  0  0  0  0  0
   -3.5842    1.5388   -3.2326 C   0  0  0  0  0  0  0  0  0  0  0  0
   -2.7073    2.1499   -2.3161 C   0  0  0  0  0  0  0  0  0  0  0  0
   -0.7442    0.4890    0.5971 C   0  0  0  0  0  0  0  0  0  0  0  0
   -1.6761    0.0580    1.4702 N   0  0  0  0  0  0  0  0  0  0  0  0
   -1.5316   -1.1248    2.1029 C   0  0  0  0  0  0  0  0  0  0  0  0
   -2.4783   -1.5892    3.0062 C   0  0  0  0  0  0  0  0  0  0  0  0
   -2.3153   -2.8001    3.6440 C   0  0  0  0  0  0  0  0  0  0  0  0
   -1.2143   -3.5535    3.3884 C   0  0  0  0  0  0  0  0  0  0  0  0
   -0.2726   -3.0839    2.4853 C   0  0  0  0  0  0  0  0  0  0  0  0
   -0.4038   -1.8768    1.8290 C   0  0  0  0  0  0  0  0  0  0  0  0
    0.5239   -1.4359    0.9526 N   0  0  0  0  0  0  0  0  0  0  0  0
    0.4026   -0.2713    0.3159 C   0  0  0  0  0  0  0  0  0  0  0  0
  1  2  1  0
  2  3  1  0
  3  4  1  6
  3  5  1  0
  5  6  1  0
  6  7  1  0
  7  8  2  0
  7  9  1  0
  9 10  2  0
 10 11  1  0
 10 12  1  0
 12 13  1  0
 13 14  1  1
 13 15  1  0
 15 16  2  0
 16 17  1  0
 17 18  2  0
 18 19  1  0
 19 20  2  0
 12 21  1  0
 21 22  2  0
 22 23  1  0
 23 24  2  0
 24 25  1  0
 25 26  2  0
 26 27  1  0
 27 28  2  0
 28 29  1  0
 29 30  2  0
 30  9  1  0
 20 15  1  0
 30 21  1  0
 28 23  1  0
M  END
>  <zinc_id>  (1) 
ZINC000002220861

>  <smiles>  (1) 
CC[C@@H](C)COC(=O)c1c(N)n([C@H](C)c2ccccc2)c2nc3ccccc3nc12

$$$$
