
     RDKit          3D

 32 35  0  0  0  0  0  0  0  0999 V2000
    8.3518   -0.4484    0.3358 C   0  0  0  0  0  0  0  0  0  0  0  0
    8.1659   -0.4727   -1.1724 C   0  0  0  0  0  0  0  0  0  0  0  0
    7.0498   -1.2079   -1.5734 O   0  0  0  0  0  0  0  0  0  0  0  0
    5.7572   -0.9101   -1.1887 C   0  0  0  0  0  0  0  0  0  0  0  0
    5.5713    0.1806   -0.3593 C   0  0  0  0  0  0  0  0  0  0  0  0
    4.2794    0.4675    0.0168 C   0  0  0  0  0  0  0  0  0  0  0  0
    3.1824   -0.2765   -0.3931 C   0  0  0  0  0  0  0  0  0  0  0  0
    1.8681    0.0965    0.0501 N   0  0  0  0  0  0  0  0  0  0  0  0
    0.7086    0.3530   -0.7358 C   0  0  0  0  0  0  0  0  0  0  0  0
    0.6779    0.2818   -1.9944 O   0  0  0  0  0  0  0  0  0  0  0  0
   -0.3691    0.6951    0.1831 C   0  0  0  0  0  0  0  0  0  0  0  0
   -1.7095    1.0184   -0.2351 N   0  0  0  0  0  0  0  0  0  0  0  0
   -2.5549   -0.0184   -0.7446 C   0  0  0  0  0  0  0  0  0  0  0  0
   -2.0933   -1.3143   -0.8313 C   0  0  0  0  0  0  0  0  0  0  0  0
   -2.9536   -2.2711   -1.3283 C   0  0  0  0  0  0  0  0  0  0  0  0
   -4.2291   -1.9248   -1.7198 C   0  0  0  0  0  0  0  0  0  0  0  0
   -5.0962   -3.0349   -2.2502 C   0  0  0  0  0  0  0  0  0  0  0  0
   -4.7069   -0.6380   -1.6411 C   0  0  0  0  0  0  0  0  0  0  0  0
   -6.0853   -0.2934   -2.0703 C   0  0  0  0  0  0  0  0  0  0  0  0
   -3.8292    0.3260   -1.1363 C   0  0  0  0  0  0  0  0  0  0  0  0
    0.0483    0.6640    1.4367 C   0  0  0  0  0  0  0  0  0  0  0  0
   -0.8408    0.9949    2.9483 S   0  0  0  0  0  0  0  0  0  0  0  0
   -2.5113    1.4287    2.5442 C   0  0  0  0  0  0  0  0  0  0  0  0
   -2.9008    2.7149    2.2969 C   0  0  0  0  0  0  0  0  0  0  0  0
   -4.1971    3.0101    1.9967 C   0  0  0  0  0  0  0  0  0  0  0  0
   -5.1703    2.0173    1.9309 C   0  0  0  0  0  0  0  0  0  0  0  0
   -4.7717    0.7216    2.1813 C   0  0  0  0  0  0  0  0  0  0  0  0
   -3.4715    0.4362    2.4809 C   0  0  0  0  0  0  0  0  0  0  0  0
    1.4783    0.2848    1.4055 C   0  0  0  0  0  0  0  0  0  0  0  0
    2.2228    0.1520    2.4097 O   0  0  0  0  0  0  0  0  0  0  0  0
    3.4293   -1.3436   -1.2126 C   0  0  0  0  0  0  0  0  0  0  0  0
    4.6994   -1.6896   -1.6300 C   0  0  0  0  0  0  0  0  0  0  0  0
  1  2  1  0
  2  3  1  0
  3  4  1  0
  4  5  2  0
  5  6  1  0
  6  7  2  0
  7  8  1  0
  8  9  1  0
  9 10  2  0
  9 11  1  0
 11 12  1  0
 12 13  1  0
 13 14  2  0
 14 15  1  0
 15 16  2  0
 16 17  1  0
 16 18  1  0
 18 19  1  0
 18 20  2  0
 11 21  2  0
 21 22  1  0
 22 23  1  0
 23 24  2  0
 24 25  1  0
 25 26  2  0
 26 27  1  0
 27 28  2  0
 21 29  1  0
 29 30  2  0
  7 31  1  0
 31 32  2  0
 32  4  1  0
 29  8  1  0
 20 13  1  0
 28 23  1  0
M  END
>  <zinc_id>  (1) 
ZINC000001928673

>  <smiles>  (1) 
CCOc1ccc(N2C(=O)C(Nc3ccc(C)c(C)c3)=C(Sc3ccccc3)C2=O)cc1

$$$$
