
     RDKit          3D

 34 38  0  0  0  0  0  0  0  0999 V2000
   -0.8004    5.0450   -1.3713 C   0  0  0  0  0  0  0  0  0  0  0  0
    0.6133    4.6050   -1.3127 C   0  0  0  0  0  0  0  0  0  0  0  0
    1.6273    5.5541   -1.4991 C   0  0  0  0  0  0  0  0  0  0  0  0
    2.9527    5.1878   -1.4527 C   0  0  0  0  0  0  0  0  0  0  0  0
    3.2613    3.8726   -1.2198 C   0  0  0  0  0  0  0  0  0  0  0  0
    2.2475    2.9580   -1.0395 C   0  0  0  0  0  0  0  0  0  0  0  0
    0.9176    3.2899   -1.0797 C   0  0  0  0  0  0  0  0  0  0  0  0
   -0.0714    2.3028   -0.8875 N   0  0  0  0  0  0  0  0  0  0  0  0
    0.3464    0.9390   -0.6465 C   0  0  0  0  0  0  0  0  0  0  0  0
    1.9367    0.3289   -0.5563 S   0  0  0  0  0  0  0  0  0  0  0  0
    1.6010   -1.2953   -0.2584 C   0  0  0  0  0  0  0  0  0  0  0  0
    2.5890   -2.3599   -0.0775 C   0  0  0  0  0  0  0  0  0  0  0  0
    2.2440   -3.5564    0.1439 O   0  0  0  0  0  0  0  0  0  0  0  0
    4.0161   -2.0943   -0.1431 C   0  0  0  0  0  0  0  0  0  0  0  0
    4.9180   -2.8996    0.4999 C   0  0  0  0  0  0  0  0  0  0  0  0
    6.2818   -2.7031    0.4778 C   0  0  0  0  0  0  0  0  0  0  0  0
    6.7734   -1.6364   -0.2305 C   0  0  0  0  0  0  0  0  0  0  0  0
    5.8832   -0.8143   -0.8844 C   0  0  0  0  0  0  0  0  0  0  0  0
    4.5193   -1.0253   -0.8521 C   0  0  0  0  0  0  0  0  0  0  0  0
    0.2261   -1.3330   -0.2343 C   0  0  0  0  0  0  0  0  0  0  0  0
   -0.3538   -2.6527    0.0046 N   0  0  0  0  0  0  0  0  0  0  0  0
   -0.4447   -0.1955   -0.4313 C   0  0  0  0  0  0  0  0  0  0  0  0
   -1.9155   -0.0169   -0.4526 C   0  0  0  0  0  0  0  0  0  0  0  0
   -2.3395    1.2086   -0.6950 O   0  0  0  0  0  0  0  0  0  0  0  0
   -2.9123   -0.9555   -0.2536 N   0  0  0  0  0  0  0  0  0  0  0  0
   -2.7871   -2.3328    0.0318 C   0  0  0  0  0  0  0  0  0  0  0  0
   -3.3034   -2.6213    1.4187 C   0  0  0  0  0  0  0  0  0  0  0  0
   -4.5035   -1.7873    1.7637 C   0  0  0  0  0  0  0  0  0  0  0  0
   -5.1591   -2.0360    2.9599 C   0  0  0  0  0  0  0  0  0  0  0  0
   -6.2627   -1.3206    3.3503 C   0  0  0  0  0  0  0  0  0  0  0  0
   -6.7107   -0.3298    2.5065 C   0  0  0  0  0  0  0  0  0  0  0  0
   -6.0912   -0.0579    1.3237 C   0  0  0  0  0  0  0  0  0  0  0  0
   -4.9787   -0.7959    0.9539 C   0  0  0  0  0  0  0  0  0  0  0  0
   -4.3209   -0.4718   -0.3566 C   0  0  0  0  0  0  0  0  0  0  0  0
  1  2  1  0
  2  3  2  0
  3  4  1  0
  4  5  2  0
  5  6  1  0
  6  7  2  0
  7  8  1  0
  8  9  1  0
  9 10  1  0
 10 11  1  0
 11 12  1  0
 12 13  2  0
 12 14  1  0
 14 15  2  0
 15 16  1  0
 16 17  2  0
 17 18  1  0
 18 19  2  0
 11 20  2  0
 20 21  1  0
 20 22  1  0
 22 23  1  0
 23 24  2  0
 23 25  1  0
 25 26  1  0
 26 27  1  0
 27 28  1  0
 28 29  2  0
 29 30  1  0
 30 31  2  0
 31 32  1  0
 32 33  2  0
 33 34  1  0
  7  2  1  0
 22  9  2  0
 34 25  1  0
 19 14  1  0
 33 28  1  0
M  END
>  <zinc_id>  (1) 
ZINC000002962417

>  <smiles>  (1) 
Cc1ccccc1Nc1sc(C(=O)c2ccccc2)c(N)c1C(=O)N1CCc2ccccc2C1

$$$$
