
     RDKit          3D

 31 34  0  0  0  0  0  0  0  0999 V2000
   -2.7189    6.4747    0.9929 C   0  0  0  0  0  0  0  0  0  0  0  0
   -2.3560    5.1126    0.5282 C   0  0  0  0  0  0  0  0  0  0  0  0
   -3.3427    4.2455    0.1535 C   0  0  0  0  0  0  0  0  0  0  0  0
   -3.0727    2.9861   -0.2805 C   0  0  0  0  0  0  0  0  0  0  0  0
   -1.7568    2.5040   -0.3681 C   0  0  0  0  0  0  0  0  0  0  0  0
   -1.5373    0.8669   -0.9408 S   0  0  0  0  0  0  0  0  0  0  0  0
    0.1096    0.2821   -1.0437 C   0  0  0  0  0  0  0  0  0  0  0  0
    0.4156   -0.9573   -1.4685 C   0  0  0  0  0  0  0  0  0  0  0  0
   -0.5056   -1.9328   -1.8781 N   0  0  0  0  0  0  0  0  0  0  0  0
   -1.5866   -2.3922   -1.0687 C   0  0  0  0  0  0  0  0  0  0  0  0
   -1.8033   -1.8969    0.1998 C   0  0  0  0  0  0  0  0  0  0  0  0
   -2.8510   -2.3347    0.9981 C   0  0  0  0  0  0  0  0  0  0  0  0
   -3.7217   -3.2973    0.5342 C   0  0  0  0  0  0  0  0  0  0  0  0
   -4.8379   -3.7526    1.4057 C   0  0  0  0  0  0  0  0  0  0  0  0
   -3.5169   -3.8014   -0.7326 C   0  0  0  0  0  0  0  0  0  0  0  0
   -4.4689   -4.8388   -1.2116 C   0  0  0  0  0  0  0  0  0  0  0  0
   -2.4661   -3.3538   -1.5174 C   0  0  0  0  0  0  0  0  0  0  0  0
    1.8561   -1.1014   -1.4268 C   0  0  0  0  0  0  0  0  0  0  0  0
    2.5427   -2.1113   -1.7445 O   0  0  0  0  0  0  0  0  0  0  0  0
    2.4427    0.1009   -0.9575 N   0  0  0  0  0  0  0  0  0  0  0  0
    3.8551    0.3518   -0.7759 C   0  0  0  0  0  0  0  0  0  0  0  0
    4.2996   -0.0211    0.5935 C   0  0  0  0  0  0  0  0  0  0  0  0
    4.2654    0.8973    1.6110 C   0  0  0  0  0  0  0  0  0  0  0  0
    4.6859    0.5062    2.8578 C   0  0  0  0  0  0  0  0  0  0  0  0
    5.1393   -0.7688    3.1255 C   0  0  0  0  0  0  0  0  0  0  0  0
    5.1671   -1.6742    2.0974 C   0  0  0  0  0  0  0  0  0  0  0  0
    4.7477   -1.2915    0.8445 C   0  0  0  0  0  0  0  0  0  0  0  0
    1.3333    0.9873   -0.7115 C   0  0  0  0  0  0  0  0  0  0  0  0
    1.5271    2.1575   -0.2792 O   0  0  0  0  0  0  0  0  0  0  0  0
   -0.7918    3.3908    0.0122 C   0  0  0  0  0  0  0  0  0  0  0  0
   -1.0528    4.6624    0.4512 C   0  0  0  0  0  0  0  0  0  0  0  0
  1  2  1  0
  2  3  2  0
  3  4  1  0
  4  5  2  0
  5  6  1  0
  6  7  1  0
  7  8  2  0
  8  9  1  0
  9 10  1  0
 10 11  2  0
 11 12  1  0
 12 13  2  0
 13 14  1  0
 13 15  1  0
 15 16  1  0
 15 17  2  0
  8 18  1  0
 18 19  2  0
 18 20  1  0
 20 21  1  0
 21 22  1  0
 22 23  2  0
 23 24  1  0
 24 25  2  0
 25 26  1  0
 26 27  2  0
 20 28  1  0
 28 29  2  0
  5 30  1  0
 30 31  2  0
 31  2  1  0
 28  7  1  0
 17 10  1  0
 27 22  1  0
M  END
>  <zinc_id>  (1) 
ZINC000001932156

>  <smiles>  (1) 
Cc1ccc(SC2=C(Nc3ccc(C)c(C)c3)C(=O)N(Cc3ccccc3)C2=O)cc1

$$$$
