
     RDKit          3D

 32 35  0  0  0  0  0  0  0  0999 V2000
   -4.4653   -0.1175    1.9733 C   0  0  0  0  0  0  0  0  0  0  0  0
   -5.8588   -0.2361    1.4233 C   0  0  0  0  0  0  0  0  0  0  0  0
   -6.0718    1.0000    0.3758 C   0  0  2  0  0  0  0  0  0  0  0  0
   -7.6437    0.5436    0.0353 C   0  0  0  0  0  0  0  0  0  0  0  0
   -5.5099    0.1830   -0.9208 C   0  0  0  0  0  0  0  0  0  0  0  0
   -4.1938   -0.1176   -0.6031 O   0  0  0  0  0  0  0  0  0  0  0  0
   -3.2615    0.8893   -0.3943 C   0  0  0  0  0  0  0  0  0  0  0  0
   -3.6253    2.0823   -0.4907 O   0  0  0  0  0  0  0  0  0  0  0  0
   -1.8945    0.5004   -0.0726 C   0  0  0  0  0  0  0  0  0  0  0  0
   -0.8305    1.3526    0.1664 C   0  0  0  0  0  0  0  0  0  0  0  0
   -0.8496    2.7695    0.1480 N   0  0  0  0  0  0  0  0  0  0  0  0
    0.2795    0.6118    0.4319 N   0  0  0  0  0  0  0  0  0  0  0  0
    1.6061    1.1145    0.7354 C   0  0  0  0  0  0  0  0  0  0  0  0
    2.3373    1.2519   -0.5989 C   0  0  0  0  0  0  0  0  0  0  0  0
    3.7048    1.7565   -0.4329 C   0  0  0  0  0  0  0  0  0  0  0  0
    3.9628    3.1196   -0.4573 C   0  0  0  0  0  0  0  0  0  0  0  0
    5.2489    3.5936   -0.3012 C   0  0  0  0  0  0  0  0  0  0  0  0
    6.3199    2.7495   -0.1167 C   0  0  0  0  0  0  0  0  0  0  0  0
    7.6101    3.2384    0.0393 O   0  0  0  0  0  0  0  0  0  0  0  0
    8.6951    2.3842    0.2262 C   0  0  0  0  0  0  0  0  0  0  0  0
    6.0602    1.3931   -0.0929 C   0  0  0  0  0  0  0  0  0  0  0  0
    4.7757    0.9099   -0.2484 C   0  0  0  0  0  0  0  0  0  0  0  0
   -0.0221   -0.6981    0.3747 C   0  0  0  0  0  0  0  0  0  0  0  0
    0.6539   -1.8492    0.5432 N   0  0  0  0  0  0  0  0  0  0  0  0
    0.0464   -3.0619    0.4139 C   0  0  0  0  0  0  0  0  0  0  0  0
    0.7139   -4.2450    0.5808 C   0  0  0  0  0  0  0  0  0  0  0  0
    0.0757   -5.4628    0.4444 C   0  0  0  0  0  0  0  0  0  0  0  0
   -1.2643   -5.4971    0.1331 C   0  0  0  0  0  0  0  0  0  0  0  0
   -1.9476   -4.3186   -0.0374 C   0  0  0  0  0  0  0  0  0  0  0  0
   -1.2965   -3.1147    0.1021 C   0  0  0  0  0  0  0  0  0  0  0  0
   -1.9725   -1.9592   -0.0665 N   0  0  0  0  0  0  0  0  0  0  0  0
   -1.3826   -0.7659    0.0589 C   0  0  0  0  0  0  0  0  0  0  0  0
  1  2  1  0
  2  3  1  0
  3  4  1  6
  3  5  1  0
  5  6  1  0
  6  7  1  0
  7  8  2  0
  7  9  1  0
  9 10  2  0
 10 11  1  0
 10 12  1  0
 12 13  1  0
 13 14  1  0
 14 15  1  0
 15 16  2  0
 16 17  1  0
 17 18  2  0
 18 19  1  0
 19 20  1  0
 18 21  1  0
 21 22  2  0
 12 23  1  0
 23 24  2  0
 24 25  1  0
 25 26  2  0
 26 27  1  0
 27 28  2  0
 28 29  1  0
 29 30  2  0
 30 31  1  0
 31 32  2  0
 32  9  1  0
 22 15  1  0
 32 23  1  0
 30 25  1  0
M  END
>  <zinc_id>  (1) 
ZINC000002383493

>  <smiles>  (1) 
CC[C@H](C)COC(=O)c1c(N)n(CCc2ccc(OC)cc2)c2nc3ccccc3nc12

$$$$
