
     RDKit          3D

 31 34  0  0  0  0  0  0  0  0999 V2000
    3.7007    1.5486   -1.8075 C   0  0  0  0  0  0  0  0  0  0  0  0
    4.7711    0.4957   -1.7756 C   0  0  0  0  0  0  0  0  0  0  0  0
    5.0796    0.0224   -0.4142 C   0  0  0  0  0  0  0  0  0  0  0  0
    6.2461    0.4924    0.1742 C   0  0  0  0  0  0  0  0  0  0  0  0
    6.5839    0.0842    1.4263 C   0  0  0  0  0  0  0  0  0  0  0  0
    5.7708   -0.7884    2.0999 C   0  0  0  0  0  0  0  0  0  0  0  0
    4.5936   -1.2588    1.4978 C   0  0  0  0  0  0  0  0  0  0  0  0
    3.7551   -2.2053    2.2516 C   0  0  0  0  0  0  0  0  0  0  0  0
    2.5494   -1.5430    2.8193 C   0  0  0  0  0  0  0  0  0  0  0  0
    4.2444   -0.8448    0.2202 C   0  0  0  0  0  0  0  0  0  0  0  0
    3.0612   -1.3468   -0.3442 N   0  0  0  0  0  0  0  0  0  0  0  0
    1.7926   -0.7454   -0.2558 C   0  0  0  0  0  0  0  0  0  0  0  0
    1.6624    0.3281    0.3645 O   0  0  0  0  0  0  0  0  0  0  0  0
    0.6474   -1.3796   -0.8872 C   0  0  0  0  0  0  0  0  0  0  0  0
   -0.5820   -0.7544   -0.7767 O   0  0  0  0  0  0  0  0  0  0  0  0
   -1.2692   -0.4455    0.3696 C   0  0  0  0  0  0  0  0  0  0  0  0
   -0.7322   -0.7532    1.4647 O   0  0  0  0  0  0  0  0  0  0  0  0
   -2.5881    0.2165    0.4373 C   0  0  0  0  0  0  0  0  0  0  0  0
   -2.6666    1.5382   -0.1716 C   0  0  0  0  0  0  0  0  0  0  0  0
   -1.6461    2.4386    0.1151 C   0  0  0  0  0  0  0  0  0  0  0  0
   -1.6335    3.7070   -0.4140 C   0  0  0  0  0  0  0  0  0  0  0  0
   -2.6628    4.0878   -1.2497 C   0  0  0  0  0  0  0  0  0  0  0  0
   -3.6700    3.1948   -1.5304 C   0  0  0  0  0  0  0  0  0  0  0  0
   -3.6791    1.9079   -0.9906 C   0  0  0  0  0  0  0  0  0  0  0  0
   -4.7348    1.0364   -1.3093 O   0  0  0  0  0  0  0  0  0  0  0  0
   -4.6999   -0.2314   -0.7472 C   0  0  0  0  0  0  0  0  0  0  0  0
   -5.7635   -1.0636   -1.0872 C   0  0  0  0  0  0  0  0  0  0  0  0
   -5.8242   -2.3371   -0.5840 C   0  0  0  0  0  0  0  0  0  0  0  0
   -4.8302   -2.8027    0.2649 C   0  0  0  0  0  0  0  0  0  0  0  0
   -3.7772   -1.9420    0.5862 C   0  0  0  0  0  0  0  0  0  0  0  0
   -3.6989   -0.6565    0.0878 C   0  0  0  0  0  0  0  0  0  0  0  0
  1  2  1  0
  2  3  1  0
  3  4  2  0
  4  5  1  0
  5  6  2  0
  6  7  1  0
  7  8  1  0
  8  9  1  0
  7 10  2  0
 10 11  1  0
 11 12  1  0
 12 13  2  0
 12 14  1  0
 14 15  1  0
 15 16  1  0
 16 17  2  0
 16 18  1  0
 18 19  1  0
 19 20  2  0
 20 21  1  0
 21 22  2  0
 22 23  1  0
 23 24  2  0
 24 25  1  0
 25 26  1  0
 26 27  2  0
 27 28  1  0
 28 29  2  0
 29 30  1  0
 30 31  2  0
 10  3  1  0
 31 18  1  0
 24 19  1  0
 31 26  1  0
M  END
>  <zinc_id>  (1) 
ZINC000003263459

>  <smiles>  (1) 
CCc1cccc(CC)c1NC(=O)COC(=O)C1c2ccccc2Oc2ccccc21

$$$$
