
     RDKit          3D

 35 38  0  0  0  0  0  0  0  0999 V2000
    7.8343    1.2895    1.4683 C   0  0  0  0  0  0  0  0  0  0  0  0
    6.5942    1.9157    1.0675 O   0  0  0  0  0  0  0  0  0  0  0  0
    5.5469    1.0490    0.7364 C   0  0  0  0  0  0  0  0  0  0  0  0
    5.6728   -0.2955    0.7160 C   0  0  0  0  0  0  0  0  0  0  0  0
    4.6142   -1.1348    0.3656 C   0  0  0  0  0  0  0  0  0  0  0  0
    3.3728   -0.5748    0.0229 C   0  0  0  0  0  0  0  0  0  0  0  0
    2.2660   -1.4313   -0.4086 C   0  0  1  0  0  0  0  0  0  0  0  0
    2.7793   -2.8167   -0.6234 C   0  0  0  0  0  0  0  0  0  0  0  0
    3.1753   -3.8757   -0.7936 N   0  0  0  0  0  0  0  0  0  0  0  0
    1.0714   -1.5488    0.4577 C   0  0  0  0  0  0  0  0  0  0  0  0
    0.1408   -2.5483   -0.2833 C   0  0  0  0  0  0  0  0  0  0  0  0
   -0.2769   -1.9822   -1.6151 C   0  0  0  0  0  0  0  0  0  0  0  0
   -1.1392   -0.8031   -1.2867 N   0  0  0  0  0  0  0  0  0  0  0  0
   -2.3434   -1.4618   -0.7639 C   0  0  0  0  0  0  0  0  0  0  0  0
   -3.3373   -0.4413   -0.4141 C   0  0  0  0  0  0  0  0  0  0  0  0
   -4.5842   -0.8890    0.0723 C   0  0  0  0  0  0  0  0  0  0  0  0
   -4.7478   -2.2522    0.1379 C   0  0  0  0  0  0  0  0  0  0  0  0
   -5.9841   -2.7657    0.5851 C   0  0  0  0  0  0  0  0  0  0  0  0
   -6.9324   -1.8652    0.9266 C   0  0  0  0  0  0  0  0  0  0  0  0
   -6.7656   -0.5006    0.8625 C   0  0  0  0  0  0  0  0  0  0  0  0
   -5.5429    0.0063    0.4170 C   0  0  0  0  0  0  0  0  0  0  0  0
   -5.3250    1.3792    0.3028 C   0  0  0  0  0  0  0  0  0  0  0  0
   -4.1033    1.8528   -0.1752 C   0  0  0  0  0  0  0  0  0  0  0  0
   -3.9163    3.2303   -0.2899 C   0  0  0  0  0  0  0  0  0  0  0  0
   -2.6872    3.6724   -0.7860 C   0  0  0  0  0  0  0  0  0  0  0  0
   -1.7557    2.7571   -1.1190 C   0  0  0  0  0  0  0  0  0  0  0  0
   -1.9293    1.4074   -1.0087 C   0  0  0  0  0  0  0  0  0  0  0  0
   -3.1559    0.9186   -0.5151 C   0  0  0  0  0  0  0  0  0  0  0  0
    1.8218   -0.9187   -1.7987 C   0  0  0  0  0  0  0  0  0  0  0  0
    3.1083   -1.1095   -2.6493 C   0  0  0  0  0  0  0  0  0  0  0  0
    1.7263    0.6080   -1.6491 C   0  0  0  0  0  0  0  0  0  0  0  0
    3.2904    0.8005    0.0616 C   0  0  0  0  0  0  0  0  0  0  0  0
    4.3171    1.6447    0.4032 C   0  0  0  0  0  0  0  0  0  0  0  0
    4.2121    3.0281    0.4407 O   0  0  0  0  0  0  0  0  0  0  0  0
    2.9825    3.6559    0.1247 C   0  0  0  0  0  0  0  0  0  0  0  0
  1  2  1  0
  2  3  1  0
  3  4  2  0
  4  5  1  0
  5  6  2  0
  6  7  1  0
  7  8  1  6
  8  9  3  0
  7 10  1  0
 10 11  1  0
 11 12  1  0
 12 13  1  0
 13 14  1  0
 14 15  1  0
 15 16  1  0
 16 17  2  0
 17 18  1  0
 18 19  2  0
 19 20  1  0
 20 21  2  0
 21 22  1  0
 22 23  2  0
 23 24  1  0
 24 25  2  0
 25 26  1  0
 26 27  2  0
 27 28  1  0
  7 29  1  0
 29 30  1  0
 29 31  1  0
  6 32  1  0
 32 33  2  0
 33 34  1  0
 34 35  1  0
 33  3  1  0
 28 15  2  0
 21 16  1  0
 28 23  1  0
M  END
>  <zinc_id>  (1) 
ZINC000003931554

>  <smiles>  (1) 
COc1ccc([C@@](C#N)(CCCNCc2c3ccccc3cc3ccccc23)C(C)C)cc1OC

$$$$
