
     RDKit          3D

 29 31  0  0  0  0  0  0  0  0999 V2000
   -7.5484    1.1865    2.4543 C   0  0  0  0  0  0  0  0  0  0  0  0
   -6.4615    1.5827    1.6747 O   0  0  0  0  0  0  0  0  0  0  0  0
   -5.9657    0.8301    0.6159 C   0  0  0  0  0  0  0  0  0  0  0  0
   -6.6020   -0.3598    0.3505 C   0  0  0  0  0  0  0  0  0  0  0  0
   -6.1614   -1.1551   -0.6857 C   0  0  0  0  0  0  0  0  0  0  0  0
   -5.0757   -0.7367   -1.4475 C   0  0  0  0  0  0  0  0  0  0  0  0
   -4.4622    0.4436   -1.1669 C   0  0  0  0  0  0  0  0  0  0  0  0
   -4.8946    1.2413   -0.1370 C   0  0  0  0  0  0  0  0  0  0  0  0
   -4.2387    2.5403    0.1912 C   0  0  0  0  0  0  0  0  0  0  0  0
   -3.3578    2.4362    1.4258 C   0  0  0  0  0  0  0  0  0  0  0  0
   -2.3002    1.4357    1.2126 N   0  0  0  0  0  0  0  0  0  0  0  0
   -1.3602    1.5740    0.1617 C   0  0  0  0  0  0  0  0  0  0  0  0
   -1.4675    2.5824   -0.5765 O   0  0  0  0  0  0  0  0  0  0  0  0
   -0.2920    0.5758   -0.0643 C   0  0  0  0  0  0  0  0  0  0  0  0
    0.6399    0.6320   -1.0588 C   0  0  0  0  0  0  0  0  0  0  0  0
    1.4437   -0.4796   -0.9191 C   0  0  0  0  0  0  0  0  0  0  0  0
    0.9632   -1.1758    0.1673 C   0  0  0  0  0  0  0  0  0  0  0  0
    1.4995   -2.4676    0.7329 C   0  0  0  0  0  0  0  0  0  0  0  0
    2.6314   -2.8724    0.0382 O   0  0  0  0  0  0  0  0  0  0  0  0
    3.7523   -2.0644    0.0057 C   0  0  0  0  0  0  0  0  0  0  0  0
    3.8280   -0.8477    0.6364 C   0  0  0  0  0  0  0  0  0  0  0  0
    5.0072   -0.1080    0.5417 C   0  0  0  0  0  0  0  0  0  0  0  0
    6.0984   -0.5514   -0.1601 C   0  0  0  0  0  0  0  0  0  0  0  0
    7.3046    0.3144   -0.1987 C   0  0  0  0  0  0  0  0  0  0  0  0
    8.3558   -0.3495   -1.0723 C   0  0  0  0  0  0  0  0  0  0  0  0
    7.8528    0.5762    1.1884 C   0  0  0  0  0  0  0  0  0  0  0  0
    6.0177   -1.7730   -0.7912 C   0  0  0  0  0  0  0  0  0  0  0  0
    4.8466   -2.5052   -0.6960 C   0  0  0  0  0  0  0  0  0  0  0  0
   -0.0532   -0.5051    0.6226 O   0  0  0  0  0  0  0  0  0  0  0  0
  1  2  1  0
  2  3  1  0
  3  4  2  0
  4  5  1  0
  5  6  2  0
  6  7  1  0
  7  8  2  0
  8  9  1  0
  9 10  1  0
 10 11  1  0
 11 12  1  0
 12 13  2  0
 12 14  1  0
 14 15  2  0
 15 16  1  0
 16 17  2  0
 17 18  1  0
 18 19  1  0
 19 20  1  0
 20 21  2  0
 21 22  1  0
 22 23  2  0
 23 24  1  0
 24 25  1  0
 24 26  1  0
 23 27  1  0
 27 28  2  0
 17 29  1  0
  8  3  1  0
 29 14  1  0
 28 20  1  0
M  END
>  <zinc_id>  (1) 
ZINC000000998973

>  <smiles>  (1) 
COc1ccccc1CCNC(=O)c1ccc(COc2ccc(C(C)C)cc2)o1

$$$$
