
     RDKit          3D

 31 34  0  0  0  0  0  0  0  0999 V2000
    6.7404    0.1383    3.5979 C   0  0  0  0  0  0  0  0  0  0  0  0
    6.1387   -1.0352    2.8617 C   0  0  0  0  0  0  0  0  0  0  0  0
    5.2195   -0.5878    1.8561 O   0  0  0  0  0  0  0  0  0  0  0  0
    5.7231    0.2348    0.8564 C   0  0  0  0  0  0  0  0  0  0  0  0
    7.0140    0.6100    0.8110 N   0  0  0  0  0  0  0  0  0  0  0  0
    7.4918    1.4135   -0.1710 C   0  0  0  0  0  0  0  0  0  0  0  0
    6.6722    1.8860   -1.1745 C   0  0  0  0  0  0  0  0  0  0  0  0
    5.3496    1.5181   -1.1522 C   0  0  0  0  0  0  0  0  0  0  0  0
    4.8919    0.6996   -0.1405 C   0  0  0  0  0  0  0  0  0  0  0  0
    3.4722    0.2856   -0.0888 C   0  0  0  0  0  0  0  0  0  0  0  0
    2.6459    0.6641   -0.9583 O   0  0  0  0  0  0  0  0  0  0  0  0
    2.9824   -0.5541    0.9413 N   0  0  0  0  0  0  0  0  0  0  0  0
    1.5884   -0.9488    0.9750 C   0  0  0  0  0  0  0  0  0  0  0  0
    0.6177   -0.6338    0.1418 N   0  0  0  0  0  0  0  0  0  0  0  0
   -0.5790   -1.0943    0.3474 C   0  0  0  0  0  0  0  0  0  0  0  0
   -1.7289   -0.7834   -0.5491 C   0  0  0  0  0  0  0  0  0  0  0  0
   -1.7099    0.0011   -1.6811 C   0  0  0  0  0  0  0  0  0  0  0  0
   -2.9842    0.0264   -2.2109 C   0  0  0  0  0  0  0  0  0  0  0  0
   -3.3398    0.7773   -3.4391 C   0  0  0  0  0  0  0  0  0  0  0  0
   -3.7803   -0.7234   -1.4300 N   0  0  0  0  0  0  0  0  0  0  0  0
   -5.1791   -0.9357   -1.6629 C   0  0  0  0  0  0  0  0  0  0  0  0
   -6.0094    0.0940   -0.9870 C   0  0  0  0  0  0  0  0  0  0  0  0
   -6.4305   -0.1562    0.2998 C   0  0  0  0  0  0  0  0  0  0  0  0
   -7.2093    0.7978    0.9481 C   0  0  0  0  0  0  0  0  0  0  0  0
   -7.5686    1.9716    0.3505 C   0  0  0  0  0  0  0  0  0  0  0  0
   -7.1424    2.2107   -0.9345 C   0  0  0  0  0  0  0  0  0  0  0  0
   -6.3698    1.2761   -1.5923 C   0  0  0  0  0  0  0  0  0  0  0  0
   -3.0271   -1.2102   -0.4316 C   0  0  0  0  0  0  0  0  0  0  0  0
   -3.5405   -2.1001    0.6622 C   0  0  0  0  0  0  0  0  0  0  0  0
   -0.7592   -1.8997    1.4474 C   0  0  0  0  0  0  0  0  0  0  0  0
    0.8105   -1.9421    2.1165 S   0  0  0  0  0  0  0  0  0  0  0  0
  1  2  1  0
  2  3  1  0
  3  4  1  0
  4  5  2  0
  5  6  1  0
  6  7  2  0
  7  8  1  0
  8  9  2  0
  9 10  1  0
 10 11  2  0
 10 12  1  0
 12 13  1  0
 13 14  2  0
 14 15  1  0
 15 16  1  0
 16 17  1  0
 17 18  2  0
 18 19  1  0
 18 20  1  0
 20 21  1  0
 21 22  1  0
 22 23  2  0
 23 24  1  0
 24 25  2  0
 25 26  1  0
 26 27  2  0
 20 28  1  0
 28 29  1  0
 15 30  2  0
 30 31  1  0
  9  4  1  0
 31 13  1  0
 28 16  2  0
 27 22  1  0
M  END
>  <zinc_id>  (1) 
ZINC000003414251

>  <smiles>  (1) 
CCOc1ncccc1C(=O)Nc1nc(-c2cc(C)n(Cc3ccccc3)c2C)cs1

$$$$
