
     RDKit          3D

 31 34  0  0  0  0  0  0  0  0999 V2000
    6.9032    4.4016    0.3359 C   0  0  0  0  0  0  0  0  0  0  0  0
    6.9956    3.8194   -0.9301 O   0  0  0  0  0  0  0  0  0  0  0  0
    6.1031    2.7610   -1.0418 C   0  0  0  0  0  0  0  0  0  0  0  0
    6.4207    1.7031    0.0122 C   0  0  0  0  0  0  0  0  0  0  0  0
    5.3837    0.5902   -0.1996 C   0  0  0  0  0  0  0  0  0  0  0  0
    4.0974    1.1975   -0.0100 N   0  0  0  0  0  0  0  0  0  0  0  0
    2.8616    0.5132   -0.1128 C   0  0  0  0  0  0  0  0  0  0  0  0
    1.6956    1.2228    0.0927 C   0  0  0  0  0  0  0  0  0  0  0  0
    0.4821    0.5767   -0.0014 C   0  0  0  0  0  0  0  0  0  0  0  0
   -0.7771    1.2680    0.2042 C   0  0  0  0  0  0  0  0  0  0  0  0
   -0.7344    2.6244    0.5001 C   0  0  0  0  0  0  0  0  0  0  0  0
   -1.8803    3.3000    0.6982 N   0  0  0  0  0  0  0  0  0  0  0  0
   -3.0538    2.6579    0.6083 C   0  0  0  0  0  0  0  0  0  0  0  0
   -3.1402    1.3046    0.3151 C   0  0  0  0  0  0  0  0  0  0  0  0
   -4.4674    0.7048    0.2422 C   0  0  0  0  0  0  0  0  0  0  0  0
   -5.5271    1.1392    1.0114 C   0  0  0  0  0  0  0  0  0  0  0  0
   -6.7792    0.5656    0.9370 C   0  0  0  0  0  0  0  0  0  0  0  0
   -7.0306   -0.4843    0.0765 C   0  0  0  0  0  0  0  0  0  0  0  0
   -8.3793   -1.1189   -0.0186 C   0  0  0  0  0  0  0  0  0  0  0  0
   -5.9803   -0.9293   -0.6992 C   0  0  0  0  0  0  0  0  0  0  0  0
   -4.7271   -0.3498   -0.6198 C   0  0  0  0  0  0  0  0  0  0  0  0
   -1.9836    0.6109    0.1125 C   0  0  0  0  0  0  0  0  0  0  0  0
    0.4474   -0.7344   -0.2917 N   0  0  0  0  0  0  0  0  0  0  0  0
    1.5721   -1.4129   -0.4886 C   0  0  0  0  0  0  0  0  0  0  0  0
    1.5165   -2.8514   -0.8069 C   0  0  0  0  0  0  0  0  0  0  0  0
    2.6782   -3.5639   -1.0121 C   0  0  0  0  0  0  0  0  0  0  0  0
    2.5972   -4.9037   -1.3078 C   0  0  0  0  0  0  0  0  0  0  0  0
    1.3865   -5.5352   -1.4006 C   0  0  0  0  0  0  0  0  0  0  0  0
    0.2460   -4.8157   -1.1947 C   0  0  0  0  0  0  0  0  0  0  0  0
    0.3128   -3.4825   -0.8999 C   0  0  0  0  0  0  0  0  0  0  0  0
    2.7609   -0.7790   -0.3961 N   0  0  0  0  0  0  0  0  0  0  0  0
  1  2  1  0
  2  3  1  0
  3  4  1  0
  4  5  1  0
  5  6  1  0
  6  7  1  0
  7  8  2  0
  8  9  1  0
  9 10  1  0
 10 11  2  0
 11 12  1  0
 12 13  2  0
 13 14  1  0
 14 15  1  0
 15 16  2  0
 16 17  1  0
 17 18  2  0
 18 19  1  0
 18 20  1  0
 20 21  2  0
 14 22  2  0
  9 23  2  0
 23 24  1  0
 24 25  1  0
 25 26  2  0
 26 27  1  0
 27 28  2  0
 28 29  1  0
 29 30  2  0
 24 31  2  0
 31  7  1  0
 22 10  1  0
 30 25  1  0
 21 15  1  0
M  END
>  <zinc_id>  (1) 
ZINC000001736901

>  <smiles>  (1) 
COCCCNc1cc(-c2cncc(-c3ccc(C)cc3)c2)nc(-c2ccccc2)n1

$$$$
