
     RDKit          3D

 32 35  0  0  0  0  0  0  0  0999 V2000
   -3.6825   -2.4885    0.4295 C   0  0  0  0  0  0  0  0  0  0  0  0
   -2.6036   -2.4043    1.1445 C   0  0  0  0  0  0  0  0  0  0  0  0
   -2.4186   -2.8716    2.4826 N   0  0  0  0  0  0  0  0  0  0  0  0
   -1.6255   -1.9697    3.2778 C   0  0  0  0  0  0  0  0  0  0  0  0
   -1.2161   -2.1139    4.5507 N   0  0  0  0  0  0  0  0  0  0  0  0
   -0.4626   -1.0514    4.8649 C   0  0  0  0  0  0  0  0  0  0  0  0
   -0.4049   -0.2484    3.7884 N   0  0  0  0  0  0  0  0  0  0  0  0
   -1.1362   -0.8510    2.8328 N   0  0  0  0  0  0  0  0  0  0  0  0
   -1.4342   -0.2918    1.4306 C   0  0  1  0  0  0  0  0  0  0  0  0
    0.0250    0.2596    1.0991 C   0  0  0  0  0  0  0  0  0  0  0  0
    0.9939   -0.4786    0.5905 C   0  0  0  0  0  0  0  0  0  0  0  0
    2.2335    0.0321    0.3216 C   0  0  0  0  0  0  0  0  0  0  0  0
    2.4806    1.3540    0.5880 C   0  0  0  0  0  0  0  0  0  0  0  0
    3.7448    1.9340    0.3293 O   0  0  0  0  0  0  0  0  0  0  0  0
    4.7432    1.0917   -0.2161 C   0  0  0  0  0  0  0  0  0  0  0  0
    4.2409    0.5522   -1.5564 C   0  0  0  0  0  0  0  0  0  0  0  0
    5.2738   -0.3518   -2.1752 C   0  0  0  0  0  0  0  0  0  0  0  0
    6.5830    0.3675   -2.4299 C   0  0  0  0  0  0  0  0  0  0  0  0
    7.1034    0.8709   -1.1037 C   0  0  0  0  0  0  0  0  0  0  0  0
    8.4042    1.6017   -1.2507 C   0  0  0  0  0  0  0  0  0  0  0  0
    1.4672    2.1192    1.1181 C   0  0  0  0  0  0  0  0  0  0  0  0
    0.2281    1.5951    1.3833 C   0  0  0  0  0  0  0  0  0  0  0  0
   -1.2836   -1.7325    0.5590 C   0  0  2  0  0  0  0  0  0  0  0  0
   -1.8994   -1.1722   -0.7870 C   0  0  0  0  0  0  0  0  0  0  0  0
   -1.3814   -1.5818   -1.8581 O   0  0  0  0  0  0  0  0  0  0  0  0
   -2.9422   -0.2868   -0.8052 N   0  0  0  0  0  0  0  0  0  0  0  0
   -3.5379    0.2510   -1.9759 C   0  0  0  0  0  0  0  0  0  0  0  0
   -4.5827    1.1338   -1.8331 C   0  0  0  0  0  0  0  0  0  0  0  0
   -5.2076    1.6949   -2.9497 C   0  0  0  0  0  0  0  0  0  0  0  0
   -4.8022    1.3858   -4.2199 C   0  0  0  0  0  0  0  0  0  0  0  0
   -3.7596    0.5053   -4.3732 C   0  0  0  0  0  0  0  0  0  0  0  0
   -3.1408   -0.0506   -3.2568 C   0  0  0  0  0  0  0  0  0  0  0  0
  1  2  2  0
  2  3  1  0
  3  4  1  0
  4  5  2  0
  5  6  1  0
  6  7  2  0
  7  8  1  0
  8  9  1  0
  9 10  1  6
 10 11  2  0
 11 12  1  0
 12 13  2  0
 13 14  1  0
 14 15  1  0
 15 16  1  0
 16 17  1  0
 17 18  1  0
 18 19  1  0
 19 20  1  0
 13 21  1  0
 21 22  2  0
  9 23  1  0
 23 24  1  6
 24 25  2  0
 24 26  1  0
 26 27  1  0
 27 28  2  0
 28 29  1  0
 29 30  2  0
 30 31  1  0
 31 32  2  0
 23  2  1  0
 32 27  1  0
  8  4  1  0
 22 10  1  0
M  END
>  <zinc_id>  (1) 
ZINC000001903627

>  <smiles>  (1) 
C=C1Nc2ncnn2[C@@H](c2ccc(OCCCCCC)cc2)[C@@H]1C(=O)Nc1ccccc1

$$$$
