
     RDKit          3D

 31 35  0  0  0  0  0  0  0  0999 V2000
   -5.5640   -3.1750   -0.4487 C   0  0  0  0  0  0  0  0  0  0  0  0
   -4.7274   -2.1845   -1.2143 C   0  0  0  0  0  0  0  0  0  0  0  0
   -4.5789   -0.8912   -0.5504 C   0  0  0  0  0  0  0  0  0  0  0  0
   -5.3198    0.1970   -1.0159 C   0  0  0  0  0  0  0  0  0  0  0  0
   -5.1716    1.3938   -0.3850 C   0  0  0  0  0  0  0  0  0  0  0  0
   -5.9384    2.4454   -0.8949 O   0  0  0  0  0  0  0  0  0  0  0  0
   -5.8389    3.7157   -0.2946 C   0  0  0  0  0  0  0  0  0  0  0  0
   -4.3235    1.5568    0.6829 C   0  0  0  0  0  0  0  0  0  0  0  0
   -3.6086    0.4602    1.1141 C   0  0  0  0  0  0  0  0  0  0  0  0
   -3.7586   -0.7501    0.4765 C   0  0  0  0  0  0  0  0  0  0  0  0
   -2.8792   -1.9613    1.0519 C   0  0  1  0  0  0  0  0  0  0  0  0
   -2.6756   -2.7277   -0.3479 N   0  0  0  0  0  0  0  0  0  0  0  0
   -1.5018   -3.5139   -0.2325 C   0  0  0  0  0  0  0  0  0  0  0  0
   -0.4322   -2.5458   -0.7952 C   0  0  0  0  0  0  0  0  0  0  0  0
   -0.4724   -1.4795    0.2459 C   0  0  0  0  0  0  0  0  0  0  0  0
   -1.5058   -1.2217    1.0343 C   0  0  0  0  0  0  0  0  0  0  0  0
   -1.1949   -0.2234    1.8308 N   0  0  0  0  0  0  0  0  0  0  0  0
    0.0606    0.2160    1.5968 C   0  0  0  0  0  0  0  0  0  0  0  0
    0.8299    1.2044    2.1479 C   0  0  0  0  0  0  0  0  0  0  0  0
    2.1300    1.4085    1.6687 C   0  0  0  0  0  0  0  0  0  0  0  0
    2.6432    0.6324    0.6553 C   0  0  0  0  0  0  0  0  0  0  0  0
    3.9375    0.8673    0.2110 O   0  0  0  0  0  0  0  0  0  0  0  0
    4.5377    0.1172   -0.8262 C   0  0  0  0  0  0  0  0  0  0  0  0
    5.9076    0.6609   -0.9940 C   0  0  0  0  0  0  0  0  0  0  0  0
    6.0605    1.7319   -1.8428 C   0  0  0  0  0  0  0  0  0  0  0  0
    7.2836    2.2837   -2.0486 C   0  0  0  0  0  0  0  0  0  0  0  0
    8.4227    1.8119   -1.4308 C   0  0  0  0  0  0  0  0  0  0  0  0
    8.2743    0.7330   -0.5746 C   0  0  0  0  0  0  0  0  0  0  0  0
    7.0299    0.1747   -0.3674 C   0  0  0  0  0  0  0  0  0  0  0  0
    1.8285   -0.3455    0.1369 C   0  0  0  0  0  0  0  0  0  0  0  0
    0.5456   -0.5913    0.5675 C   0  0  0  0  0  0  0  0  0  0  0  0
  1  2  1  0
  2  3  1  0
  3  4  2  0
  4  5  1  0
  5  6  1  0
  6  7  1  0
  5  8  2  0
  8  9  1  0
  9 10  2  0
 11 10  1  6
 11 12  1  0
 12 13  1  0
 13 14  1  0
 14 15  1  0
 15 16  2  0
 16 17  1  0
 17 18  1  0
 18 19  2  0
 19 20  1  0
 20 21  2  0
 21 22  1  0
 22 23  1  0
 23 24  1  0
 24 25  2  0
 25 26  1  0
 26 27  2  0
 27 28  1  0
 28 29  2  0
 21 30  1  0
 30 31  2  0
 10  3  1  0
 16 11  1  0
 31 18  1  0
 31 15  1  0
 29 24  1  0
M  END
>  <zinc_id>  (1) 
ZINC000003737853

>  <smiles>  (1) 
CCc1cc(OC)ccc1[C@H]1NCCc2c1[nH]c1ccc(OCc3ccccc3)cc21

$$$$
