
     RDKit          3D

 32 35  0  0  0  0  0  0  0  0999 V2000
   -5.9612   -4.0887    0.2114 C   0  0  0  0  0  0  0  0  0  0  0  0
   -5.6367   -2.7442    0.7796 C   0  0  0  0  0  0  0  0  0  0  0  0
   -4.2321   -2.2770    0.4312 C   0  0  0  0  0  0  0  0  0  0  0  0
   -3.2097   -3.2629    0.9733 C   0  0  0  0  0  0  0  0  0  0  0  0
   -1.7903   -2.8663    0.6617 C   0  0  0  0  0  0  0  0  0  0  0  0
   -4.0761   -2.1313   -1.0770 C   0  0  0  0  0  0  0  0  0  0  0  0
   -2.7265   -1.6651   -1.2561 O   0  0  0  0  0  0  0  0  0  0  0  0
   -2.3865   -0.4183   -0.6864 C   0  0  0  0  0  0  0  0  0  0  0  0
   -3.2862    0.1833   -0.0778 O   0  0  0  0  0  0  0  0  0  0  0  0
   -1.0599    0.0933   -0.8230 C   0  0  0  0  0  0  0  0  0  0  0  0
   -0.0078   -0.5304   -1.4906 C   0  0  0  0  0  0  0  0  0  0  0  0
   -0.1253   -1.7756   -2.1737 N   0  0  0  0  0  0  0  0  0  0  0  0
    1.0460    0.2524   -1.3796 N   0  0  0  0  0  0  0  0  0  0  0  0
    2.3896    0.0595   -1.8537 C   0  0  0  0  0  0  0  0  0  0  0  0
    3.2894   -0.5141   -0.8245 C   0  0  0  0  0  0  0  0  0  0  0  0
    4.1219    0.3566   -0.0859 C   0  0  0  0  0  0  0  0  0  0  0  0
    4.9480   -0.1286    0.8908 C   0  0  0  0  0  0  0  0  0  0  0  0
    5.0139   -1.4646    1.2027 C   0  0  0  0  0  0  0  0  0  0  0  0
    4.2024   -2.3052    0.4811 C   0  0  0  0  0  0  0  0  0  0  0  0
    3.3388   -1.8473   -0.5320 C   0  0  0  0  0  0  0  0  0  0  0  0
    2.5534   -2.7425   -1.2220 O   0  0  0  0  0  0  0  0  0  0  0  0
    2.5159   -4.1248   -1.0155 C   0  0  0  0  0  0  0  0  0  0  0  0
    0.7153    1.3758   -0.6586 C   0  0  0  0  0  0  0  0  0  0  0  0
    1.3828    2.4698   -0.2583 N   0  0  0  0  0  0  0  0  0  0  0  0
    0.7661    3.4278    0.4605 C   0  0  0  0  0  0  0  0  0  0  0  0
    1.4442    4.5536    0.8759 C   0  0  0  0  0  0  0  0  0  0  0  0
    0.8437    5.5447    1.6090 C   0  0  0  0  0  0  0  0  0  0  0  0
   -0.4851    5.4237    1.9502 C   0  0  0  0  0  0  0  0  0  0  0  0
   -1.1915    4.3207    1.5560 C   0  0  0  0  0  0  0  0  0  0  0  0
   -0.5674    3.3220    0.8108 C   0  0  0  0  0  0  0  0  0  0  0  0
   -1.2276    2.2314    0.4098 N   0  0  0  0  0  0  0  0  0  0  0  0
   -0.6017    1.2728   -0.3119 C   0  0  0  0  0  0  0  0  0  0  0  0
  1  2  1  0
  2  3  1  0
  3  4  1  0
  4  5  1  0
  3  6  1  0
  6  7  1  0
  7  8  1  0
  8  9  2  0
  8 10  1  0
 10 11  2  0
 11 12  1  0
 11 13  1  0
 13 14  1  0
 14 15  1  0
 15 16  2  0
 16 17  1  0
 17 18  2  0
 18 19  1  0
 19 20  2  0
 20 21  1  0
 21 22  1  0
 13 23  1  0
 23 24  2  0
 24 25  1  0
 25 26  2  0
 26 27  1  0
 27 28  2  0
 28 29  1  0
 29 30  2  0
 30 31  1  0
 31 32  2  0
 32 10  1  0
 20 15  1  0
 32 23  1  0
 30 25  1  0
M  END
>  <zinc_id>  (1) 
ZINC000002368553

>  <smiles>  (1) 
CCC(CC)COC(=O)c1c(N)n(Cc2ccccc2OC)c2nc3ccccc3nc12

$$$$
