
     RDKit          3D

 30 32  0  0  0  0  0  0  0  0999 V2000
    7.2587   -1.8561    1.2092 C   0  0  0  0  0  0  0  0  0  0  0  0
    8.0621   -0.8191    0.4717 C   0  0  0  0  0  0  0  0  0  0  0  0
    7.2186    0.2294   -0.0397 N   0  0  0  0  0  0  0  0  0  0  0  0
    7.7934    1.3449   -0.7893 C   0  0  0  0  0  0  0  0  0  0  0  0
    8.3228    0.8330   -2.1285 C   0  0  0  0  0  0  0  0  0  0  0  0
    5.8243    0.1795    0.1863 C   0  0  0  0  0  0  0  0  0  0  0  0
    5.1978   -0.8252    0.8848 C   0  0  0  0  0  0  0  0  0  0  0  0
    3.8302   -0.8732    1.1089 C   0  0  0  0  0  0  0  0  0  0  0  0
    3.0206    0.1280    0.6173 C   0  0  0  0  0  0  0  0  0  0  0  0
    1.5690    0.1271    0.8309 C   0  0  0  0  0  0  0  0  0  0  0  0
    0.9920   -0.7832    1.4757 O   0  0  0  0  0  0  0  0  0  0  0  0
    0.7800    1.1434    0.3220 O   0  0  0  0  0  0  0  0  0  0  0  0
   -0.6010    1.2615    0.4541 C   0  0  0  0  0  0  0  0  0  0  0  0
   -1.3705    0.1425   -0.1109 C   0  0  0  0  0  0  0  0  0  0  0  0
   -0.8125   -0.8540   -0.6759 O   0  0  0  0  0  0  0  0  0  0  0  0
   -2.7817    0.1234   -0.0506 N   0  0  0  0  0  0  0  0  0  0  0  0
   -3.5932   -0.9160   -0.5697 C   0  0  0  0  0  0  0  0  0  0  0  0
   -3.1467   -2.0428   -1.1977 C   0  0  0  0  0  0  0  0  0  0  0  0
   -3.9785   -3.0284   -1.6852 C   0  0  0  0  0  0  0  0  0  0  0  0
   -5.3343   -2.8684   -1.5307 C   0  0  0  0  0  0  0  0  0  0  0  0
   -5.8276   -1.7383   -0.8985 C   0  0  0  0  0  0  0  0  0  0  0  0
   -4.9726   -0.7636   -0.4179 C   0  0  0  0  0  0  0  0  0  0  0  0
   -5.5236    0.4152    0.2400 C   0  0  0  0  0  0  0  0  0  0  0  0
   -5.0319    1.6622   -0.0962 C   0  0  0  0  0  0  0  0  0  0  0  0
   -5.4909    2.8307    0.4734 C   0  0  0  0  0  0  0  0  0  0  0  0
   -6.5004    2.7413    1.4337 C   0  0  0  0  0  0  0  0  0  0  0  0
   -7.0008    1.5107    1.7797 C   0  0  0  0  0  0  0  0  0  0  0  0
   -6.5100    0.3619    1.1821 C   0  0  0  0  0  0  0  0  0  0  0  0
    3.6243    1.1446   -0.0854 C   0  0  0  0  0  0  0  0  0  0  0  0
    4.9824    1.1889   -0.3058 C   0  0  0  0  0  0  0  0  0  0  0  0
  1  2  1  0
  2  3  1  0
  3  4  1  0
  4  5  1  0
  3  6  1  0
  6  7  2  0
  7  8  1  0
  8  9  2  0
  9 10  1  0
 10 11  2  0
 10 12  1  0
 12 13  1  0
 13 14  1  0
 14 15  2  0
 14 16  1  0
 16 17  1  0
 17 18  2  0
 18 19  1  0
 19 20  2  0
 20 21  1  0
 21 22  2  0
 22 23  1  0
 23 24  2  0
 24 25  1  0
 25 26  2  0
 26 27  1  0
 27 28  2  0
  9 29  1  0
 29 30  2  0
 30  6  1  0
 22 17  1  0
 28 23  1  0
M  END
>  <zinc_id>  (1) 
ZINC000002633482

>  <smiles>  (1) 
CCN(CC)c1ccc(C(=O)OCC(=O)Nc2ccccc2-c2ccccc2)cc1

$$$$
