
     RDKit          3D

 29 31  0  0  0  0  0  0  0  0999 V2000
    6.7297    1.8363    0.9980 C   0  0  0  0  0  0  0  0  0  0  0  0
    5.7948    0.9182    1.2384 C   0  0  0  0  0  0  0  0  0  0  0  0
    4.6481    1.3135    1.9705 N   0  0  0  0  0  0  0  0  0  0  0  0
    3.3817    1.0865    1.4396 N   0  0  0  0  0  0  0  0  0  0  0  0
    3.0911    0.9088    0.0733 C   0  0  0  0  0  0  0  0  0  0  0  0
    4.0208    0.9524   -0.7577 O   0  0  0  0  0  0  0  0  0  0  0  0
    1.7356    0.6743   -0.4131 C   0  0  0  0  0  0  0  0  0  0  0  0
    0.7235    0.5907    0.5341 C   0  0  0  0  0  0  0  0  0  0  0  0
   -0.5699    0.3704    0.1197 C   0  0  0  0  0  0  0  0  0  0  0  0
   -0.8938    0.2299   -1.2017 C   0  0  0  0  0  0  0  0  0  0  0  0
   -2.2773   -0.0047   -1.6246 C   0  0  0  0  0  0  0  0  0  0  0  0
   -3.1080   -0.0053   -0.4808 O   0  0  0  0  0  0  0  0  0  0  0  0
   -4.4795   -0.2056   -0.5496 C   0  0  0  0  0  0  0  0  0  0  0  0
   -5.0878   -0.4163   -1.7619 C   0  0  0  0  0  0  0  0  0  0  0  0
   -6.4618   -0.6210   -1.8605 C   0  0  0  0  0  0  0  0  0  0  0  0
   -7.1123   -0.8469   -3.1846 C   0  0  0  0  0  0  0  0  0  0  0  0
   -7.1760   -0.6012   -0.6855 C   0  0  0  0  0  0  0  0  0  0  0  0
   -6.6081   -0.3930    0.5564 C   0  0  0  0  0  0  0  0  0  0  0  0
   -5.2256   -0.1922    0.6062 C   0  0  0  0  0  0  0  0  0  0  0  0
   -4.5277    0.0388    1.8889 C   0  0  0  0  0  0  0  0  0  0  0  0
   -5.4783    0.0293    3.0631 C   0  0  0  0  0  0  0  0  0  0  0  0
   -3.4637   -1.0101    2.1233 C   0  0  0  0  0  0  0  0  0  0  0  0
    0.1202    0.3159   -2.1173 C   0  0  0  0  0  0  0  0  0  0  0  0
    1.4335    0.5375   -1.7297 C   0  0  0  0  0  0  0  0  0  0  0  0
    6.0014   -0.4341    0.7414 C   0  0  0  0  0  0  0  0  0  0  0  0
    7.0890   -0.8983    0.0361 C   0  0  0  0  0  0  0  0  0  0  0  0
    6.8794   -2.2407   -0.2387 C   0  0  0  0  0  0  0  0  0  0  0  0
    5.6514   -2.5293    0.3245 C   0  0  0  0  0  0  0  0  0  0  0  0
    5.1695   -1.4345    0.8921 O   0  0  0  0  0  0  0  0  0  0  0  0
  1  2  2  0
  2  3  1  0
  3  4  1  0
  4  5  1  0
  5  6  2  0
  5  7  1  0
  7  8  2  0
  8  9  1  0
  9 10  2  0
 10 11  1  0
 11 12  1  0
 12 13  1  0
 13 14  2  0
 14 15  1  0
 15 16  1  0
 15 17  2  0
 17 18  1  0
 18 19  2  0
 19 20  1  0
 20 21  1  0
 20 22  1  0
 10 23  1  0
 23 24  2  0
  2 25  1  0
 25 26  2  0
 26 27  1  0
 27 28  2  0
 28 29  1  0
 24  7  1  0
 29 25  1  0
 19 13  1  0
M  END
>  <zinc_id>  (1) 
ZINC000003266214

>  <smiles>  (1) 
C=C(NNC(=O)c1ccc(COc2cc(C)ccc2C(C)C)cc1)c1ccco1

$$$$
