
     RDKit          3D

 30 33  0  0  0  0  0  0  0  0999 V2000
    7.6895   -0.0976    1.4933 C   0  0  0  0  0  0  0  0  0  0  0  0
    6.4746    0.5322    0.8664 C   0  0  0  0  0  0  0  0  0  0  0  0
    5.6467   -0.4382    0.0859 C   0  0  0  0  0  0  0  0  0  0  0  0
    5.1799   -1.5358    1.0262 C   0  0  0  0  0  0  0  0  0  0  0  0
    4.3652   -0.8640    2.1082 C   0  0  0  0  0  0  0  0  0  0  0  0
    3.2436   -0.1794    1.5911 O   0  0  0  0  0  0  0  0  0  0  0  0
    2.2524   -0.8342    0.8808 C   0  0  0  0  0  0  0  0  0  0  0  0
    2.4012   -2.0691    0.7192 O   0  0  0  0  0  0  0  0  0  0  0  0
    1.0844   -0.1924    0.3279 C   0  0  0  0  0  0  0  0  0  0  0  0
    0.7999    1.1505    0.4320 C   0  0  0  0  0  0  0  0  0  0  0  0
    1.5465    2.1741    1.0737 N   0  0  0  0  0  0  0  0  0  0  0  0
   -0.3353    1.4495   -0.1705 N   0  0  0  0  0  0  0  0  0  0  0  0
   -1.0397    2.8001   -0.3083 C   0  0  1  0  0  0  0  0  0  0  0  0
   -1.8323    2.6163   -1.7310 C   0  0  0  0  0  0  0  0  0  0  0  0
   -2.2725    2.5215    0.6326 C   0  0  0  0  0  0  0  0  0  0  0  0
   -2.2731    3.0259    1.8983 C   0  0  0  0  0  0  0  0  0  0  0  0
   -3.3579    2.7553    2.7131 C   0  0  0  0  0  0  0  0  0  0  0  0
   -4.4072    1.9935    2.2479 C   0  0  0  0  0  0  0  0  0  0  0  0
   -4.4263    1.4708    0.9633 C   0  0  0  0  0  0  0  0  0  0  0  0
   -3.3151    1.7761    0.1988 C   0  0  0  0  0  0  0  0  0  0  0  0
   -0.8268    0.3201   -0.6846 C   0  0  0  0  0  0  0  0  0  0  0  0
   -1.9139   -0.0429   -1.3934 N   0  0  0  0  0  0  0  0  0  0  0  0
   -2.1644   -1.3020   -1.7938 C   0  0  0  0  0  0  0  0  0  0  0  0
   -3.3185   -1.5772   -2.5239 C   0  0  0  0  0  0  0  0  0  0  0  0
   -3.5610   -2.8768   -2.9277 C   0  0  0  0  0  0  0  0  0  0  0  0
   -2.6744   -3.8926   -2.6143 C   0  0  0  0  0  0  0  0  0  0  0  0
   -1.5328   -3.6285   -1.8938 C   0  0  0  0  0  0  0  0  0  0  0  0
   -1.2899   -2.3210   -1.4881 C   0  0  0  0  0  0  0  0  0  0  0  0
   -0.1945   -1.9960   -0.7823 N   0  0  0  0  0  0  0  0  0  0  0  0
    0.0516   -0.7382   -0.3847 C   0  0  0  0  0  0  0  0  0  0  0  0
  1  2  1  0
  2  3  1  0
  3  4  1  0
  4  5  1  0
  5  6  1  0
  6  7  1  0
  7  8  2  0
  7  9  1  0
  9 10  2  0
 10 11  1  0
 10 12  1  0
 12 13  1  0
 13 14  1  1
 13 15  1  0
 15 16  2  0
 16 17  1  0
 17 18  2  0
 18 19  1  0
 19 20  2  0
 12 21  1  0
 21 22  2  0
 22 23  1  0
 23 24  2  0
 24 25  1  0
 25 26  2  0
 26 27  1  0
 27 28  2  0
 28 29  1  0
 29 30  2  0
 30  9  1  0
 20 15  1  0
 30 21  1  0
 28 23  1  0
M  END
>  <zinc_id>  (1) 
ZINC000003222184

>  <smiles>  (1) 
CCCCCOC(=O)c1c(N)n([C@H](C)c2ccccc2)c2nc3ccccc3nc12

$$$$
