
     RDKit          3D

 32 36  0  0  0  0  0  0  0  0999 V2000
   -3.9671   -0.6741   -2.1441 O   0  0  0  0  0  0  0  0  0  0  0  0
   -3.3919   -0.4292   -1.0271 C   0  0  0  0  0  0  0  0  0  0  0  0
   -2.1232    0.2654   -1.0823 C   0  0  0  0  0  0  0  0  0  0  0  0
   -1.4815    0.5410    0.1255 C   0  0  0  0  0  0  0  0  0  0  0  0
   -0.2740    1.2013    0.0902 C   0  0  0  0  0  0  0  0  0  0  0  0
    0.3069    1.5902   -1.0895 C   0  0  0  0  0  0  0  0  0  0  0  0
    1.6041    2.3041   -1.2011 C   0  0  0  0  0  0  0  0  0  0  0  0
    2.6402    1.3299   -1.3048 N   0  0  0  0  0  0  0  0  0  0  0  0
    2.5091    0.4621   -2.4478 C   0  0  0  0  0  0  0  0  0  0  0  0
    3.7227   -0.3540   -2.7240 C   0  0  0  0  0  0  0  0  0  0  0  0
    4.5226   -0.6794   -1.4807 C   0  0  0  0  0  0  0  0  0  0  0  0
    5.6720    0.2736   -1.4145 C   0  0  0  0  0  0  0  0  0  0  0  0
    6.5471    0.0688   -0.2378 C   0  0  0  0  0  0  0  0  0  0  0  0
    6.3350    0.7088    0.9639 C   0  0  0  0  0  0  0  0  0  0  0  0
    7.1595    0.5094    2.0579 C   0  0  0  0  0  0  0  0  0  0  0  0
    8.2294   -0.3511    1.9621 C   0  0  0  0  0  0  0  0  0  0  0  0
    8.4617   -1.0010    0.7743 C   0  0  0  0  0  0  0  0  0  0  0  0
    7.6203   -0.7913   -0.3265 C   0  0  0  0  0  0  0  0  0  0  0  0
    3.6352   -0.6658   -0.2808 C   0  0  0  0  0  0  0  0  0  0  0  0
    2.9237    0.6334   -0.0810 C   0  0  0  0  0  0  0  0  0  0  0  0
   -0.3612    1.2986   -2.2696 C   0  0  0  0  0  0  0  0  0  0  0  0
   -1.5699    0.6400   -2.2719 C   0  0  0  0  0  0  0  0  0  0  0  0
   -3.9649   -0.8164    0.2009 N   0  0  0  0  0  0  0  0  0  0  0  0
   -3.2911   -0.5247    1.4314 C   0  0  0  0  0  0  0  0  0  0  0  0
   -4.1952    0.3171    2.2842 C   0  0  0  0  0  0  0  0  0  0  0  0
   -5.6391    0.1083    2.0231 C   0  0  0  0  0  0  0  0  0  0  0  0
   -6.5040    0.8381    2.8282 C   0  0  0  0  0  0  0  0  0  0  0  0
   -7.8527    0.7339    2.6862 C   0  0  0  0  0  0  0  0  0  0  0  0
   -8.3845   -0.1005    1.7379 C   0  0  0  0  0  0  0  0  0  0  0  0
   -7.5111   -0.8328    0.9301 C   0  0  0  0  0  0  0  0  0  0  0  0
   -6.1549   -0.7321    1.0683 C   0  0  0  0  0  0  0  0  0  0  0  0
   -5.2231   -1.5026    0.2192 C   0  0  0  0  0  0  0  0  0  0  0  0
  1  2  2  0
  2  3  1  0
  3  4  2  0
  4  5  1  0
  5  6  2  0
  6  7  1  0
  7  8  1  0
  8  9  1  0
  9 10  1  0
 10 11  1  0
 11 12  1  0
 12 13  1  0
 13 14  2  0
 14 15  1  0
 15 16  2  0
 16 17  1  0
 17 18  2  0
 11 19  1  0
 19 20  1  0
  6 21  1  0
 21 22  2  0
  2 23  1  0
 23 24  1  0
 24 25  1  0
 25 26  1  0
 26 27  2  0
 27 28  1  0
 28 29  2  0
 29 30  1  0
 30 31  2  0
 31 32  1  0
 22  3  1  0
 32 23  1  0
 20  8  1  0
 31 26  1  0
 18 13  1  0
M  END
>  <zinc_id>  (1) 
ZINC000002979111

>  <smiles>  (1) 
O=C(c1ccc(CN2CCC(Cc3ccccc3)CC2)cc1)N1CCc2ccccc2C1

$$$$
