
     RDKit          3D

 32 36  0  0  0  0  0  0  0  0999 V2000
   -6.1074    3.2294    0.6131 C   0  0  0  0  0  0  0  0  0  0  0  0
   -5.5158    3.1549   -0.7417 C   0  0  0  0  0  0  0  0  0  0  0  0
   -5.9655    1.9665   -1.4504 O   0  0  0  0  0  0  0  0  0  0  0  0
   -5.6907    0.7903   -0.7685 C   0  0  0  0  0  0  0  0  0  0  0  0
   -4.3626    0.2835   -0.7301 C   0  0  0  0  0  0  0  0  0  0  0  0
   -4.3570   -0.8420    0.0458 C   0  0  0  0  0  0  0  0  0  0  0  0
   -3.2181   -1.6266    0.4672 C   0  0  0  0  0  0  0  0  0  0  0  0
   -3.2756   -2.6443    1.3118 N   0  0  0  0  0  0  0  0  0  0  0  0
   -2.1465   -3.2080    1.7831 C   0  0  0  0  0  0  0  0  0  0  0  0
   -0.9238   -2.7677    1.4073 C   0  0  0  0  0  0  0  0  0  0  0  0
    0.3651   -3.2121    1.7233 N   0  0  0  0  0  0  0  0  0  0  0  0
    1.2312   -2.4479    1.0685 C   0  0  0  0  0  0  0  0  0  0  0  0
    2.6067   -2.4736    1.1327 C   0  0  0  0  0  0  0  0  0  0  0  0
    3.2758   -1.5117    0.4053 C   0  0  0  0  0  0  0  0  0  0  0  0
    2.6902   -0.5901   -0.3375 C   0  0  0  0  0  0  0  0  0  0  0  0
    3.4676    0.4266   -1.0994 O   0  0  0  0  0  0  0  0  0  0  0  0
    4.8594    0.1310   -0.8411 C   0  0  0  0  0  0  0  0  0  0  0  0
    5.7291    1.2955   -0.9358 C   0  0  0  0  0  0  0  0  0  0  0  0
    6.8158    1.2524    0.0364 C   0  0  0  0  0  0  0  0  0  0  0  0
    7.6533    2.2995    0.2089 C   0  0  0  0  0  0  0  0  0  0  0  0
    7.4805    3.4460   -0.5738 C   0  0  0  0  0  0  0  0  0  0  0  0
    6.4909    3.5556   -1.5105 C   0  0  0  0  0  0  0  0  0  0  0  0
    5.6275    2.4368   -1.6475 C   0  0  0  0  0  0  0  0  0  0  0  0
    1.2692   -0.5102   -0.4467 C   0  0  0  0  0  0  0  0  0  0  0  0
    0.5740   -1.5294    0.3194 C   0  0  0  0  0  0  0  0  0  0  0  0
   -0.7517   -1.7058    0.5270 C   0  0  0  0  0  0  0  0  0  0  0  0
   -1.9287   -1.1457    0.0662 C   0  0  0  0  0  0  0  0  0  0  0  0
   -2.0083   -0.0255   -0.8447 C   0  0  0  0  0  0  0  0  0  0  0  0
   -1.3726    1.0429   -0.9599 O   0  0  0  0  0  0  0  0  0  0  0  0
   -0.4698    1.9422   -1.0410 C   0  0  0  0  0  0  0  0  0  0  0  0
   -5.6605   -0.9849    0.4193 N   0  0  0  0  0  0  0  0  0  0  0  0
   -6.3817   -0.0278   -0.0697 O   0  0  0  0  0  0  0  0  0  0  0  0
  1  2  1  0
  2  3  1  0
  3  4  1  0
  4  5  2  0
  5  6  1  0
  6  7  1  0
  7  8  2  0
  8  9  1  0
  9 10  2  0
 10 11  1  0
 11 12  1  0
 12 13  2  0
 13 14  1  0
 14 15  2  0
 15 16  1  0
 16 17  1  0
 17 18  1  0
 18 19  2  0
 19 20  1  0
 20 21  2  0
 21 22  1  0
 22 23  2  0
 15 24  1  0
 24 25  2  0
 25 26  1  0
 26 27  2  0
 27 28  1  0
 28 29  1  0
 29 30  1  0
  6 31  2  0
 31 32  1  0
 32  4  1  0
 27  7  1  0
 26 10  1  0
 25 12  1  0
 23 18  1  0
M  END
>  <zinc_id>  (1) 
ZINC000000595646

>  <smiles>  (1) 
CCOc1cc(-c2ncc3[nH]c4ccc(OCc5ccccc5)cc4c3c2COC)no1

$$$$
