
     RDKit          3D

 31 35  0  0  0  0  0  0  0  0999 V2000
    2.6529   -0.6291   -1.7930 C   0  0  0  0  0  0  0  0  0  0  0  0
    2.4073    0.1367   -0.4955 C   0  0  0  0  0  0  0  0  0  0  0  0
    3.4649    0.8399   -0.0452 C   0  0  0  0  0  0  0  0  0  0  0  0
    4.6619    0.7545   -0.8732 C   0  0  0  0  0  0  0  0  0  0  0  0
    5.9487    0.4263   -0.3298 C   0  0  0  0  0  0  0  0  0  0  0  0
    7.0016    1.3082   -0.6494 C   0  0  0  0  0  0  0  0  0  0  0  0
    8.2845    1.1730   -0.2485 C   0  0  0  0  0  0  0  0  0  0  0  0
    8.6156    0.0811    0.5477 C   0  0  0  0  0  0  0  0  0  0  0  0
    7.6429   -0.8058    0.8927 C   0  0  0  0  0  0  0  0  0  0  0  0
    6.3014   -0.6595    0.4671 C   0  0  0  0  0  0  0  0  0  0  0  0
    3.2639    1.5881    1.2031 C   0  0  0  0  0  0  0  0  0  0  0  0
    2.2874    0.9308    2.1064 C   0  0  0  0  0  0  0  0  0  0  0  0
    1.1151    0.4133    1.5363 N   0  0  0  0  0  0  0  0  0  0  0  0
    0.5887   -0.7893    2.2106 C   0  0  0  0  0  0  0  0  0  0  0  0
   -0.3490   -1.5078    1.5516 C   0  0  0  0  0  0  0  0  0  0  0  0
   -1.2846   -2.2131    0.8980 C   0  0  0  0  0  0  0  0  0  0  0  0
   -1.7925   -1.7173   -0.4268 C   0  0  0  0  0  0  0  0  0  0  0  0
   -1.1271   -1.8674   -1.6330 C   0  0  0  0  0  0  0  0  0  0  0  0
   -1.7924   -1.2281   -2.5830 N   0  0  0  0  0  0  0  0  0  0  0  0
   -2.8717   -0.6639   -2.0399 C   0  0  0  0  0  0  0  0  0  0  0  0
   -3.9049    0.0674   -2.5999 C   0  0  0  0  0  0  0  0  0  0  0  0
   -4.9736    0.4972   -1.7973 C   0  0  0  0  0  0  0  0  0  0  0  0
   -5.0036    0.1960   -0.4470 C   0  0  0  0  0  0  0  0  0  0  0  0
   -6.1262    0.5874    0.3626 N   0  0  0  0  0  0  0  0  0  0  0  0
   -6.3948    1.7325    0.9667 C   0  0  0  0  0  0  0  0  0  0  0  0
   -7.5641    1.6713    1.6017 N   0  0  0  0  0  0  0  0  0  0  0  0
   -8.0622    0.4696    1.4077 N   0  0  0  0  0  0  0  0  0  0  0  0
   -7.1914   -0.2242    0.6423 C   0  0  0  0  0  0  0  0  0  0  0  0
   -3.9786   -0.5162    0.1032 C   0  0  0  0  0  0  0  0  0  0  0  0
   -2.8945   -0.9585   -0.6874 C   0  0  0  0  0  0  0  0  0  0  0  0
    1.0746    0.1214    0.1513 C   0  0  0  0  0  0  0  0  0  0  0  0
  1  2  1  0
  2  3  2  0
  3  4  1  0
  4  5  1  0
  5  6  2  0
  6  7  1  0
  7  8  2  0
  8  9  1  0
  9 10  2  0
  3 11  1  0
 11 12  1  0
 12 13  1  0
 13 14  1  0
 14 15  1  0
 15 16  1  0
 16 17  1  0
 17 18  2  0
 18 19  1  0
 19 20  1  0
 20 21  2  0
 21 22  1  0
 22 23  2  0
 23 24  1  0
 24 25  1  0
 25 26  2  0
 26 27  1  0
 27 28  2  0
 23 29  1  0
 29 30  2  0
 13 31  1  0
 31  2  1  0
 10  5  1  0
 30 17  1  0
 30 20  1  0
 28 24  1  0
M  END
>  <zinc_id>  (1) 
ZINC000001486802

>  <smiles>  (1) 
CC1=C(Cc2ccccc2)CCN(CCCc2c[nH]c3ccc(-n4cnnc4)cc23)C1

$$$$
