
     RDKit          3D

 33 36  0  0  0  0  0  0  0  0999 V2000
    5.6448    4.4218    0.3574 C   0  0  0  0  0  0  0  0  0  0  0  0
    4.3664    4.6540   -0.2400 O   0  0  0  0  0  0  0  0  0  0  0  0
    3.4031    3.6585   -0.1986 C   0  0  0  0  0  0  0  0  0  0  0  0
    3.7377    2.4400    0.4383 C   0  0  0  0  0  0  0  0  0  0  0  0
    2.7446    1.4831    0.4552 C   0  0  0  0  0  0  0  0  0  0  0  0
    1.4930    1.6085   -0.0814 C   0  0  0  0  0  0  0  0  0  0  0  0
    0.4667    0.6098   -0.0224 N   0  0  0  0  0  0  0  0  0  0  0  0
    0.5836   -0.7020   -0.1384 C   0  0  0  0  0  0  0  0  0  0  0  0
    1.7656   -1.5282   -0.4137 C   0  0  0  0  0  0  0  0  0  0  0  0
    3.0257   -1.0576   -0.6066 C   0  0  0  0  0  0  0  0  0  0  0  0
    4.1201   -1.8713   -0.8460 C   0  0  0  0  0  0  0  0  0  0  0  0
    3.9257   -3.2499   -0.8932 C   0  0  0  0  0  0  0  0  0  0  0  0
    4.9268   -4.1688   -1.1194 O   0  0  0  0  0  0  0  0  0  0  0  0
    6.2717   -3.8023   -1.3239 C   0  0  0  0  0  0  0  0  0  0  0  0
    2.6410   -3.7370   -0.6975 C   0  0  0  0  0  0  0  0  0  0  0  0
    1.5843   -2.9012   -0.4641 C   0  0  0  0  0  0  0  0  0  0  0  0
    0.3065   -3.4560   -0.2755 O   0  0  0  0  0  0  0  0  0  0  0  0
    0.1626   -4.8599   -0.3358 C   0  0  0  0  0  0  0  0  0  0  0  0
   -0.7139   -1.1844    0.0527 C   0  0  0  0  0  0  0  0  0  0  0  0
   -1.5606   -0.1566    0.2715 C   0  0  0  0  0  0  0  0  0  0  0  0
   -3.0103   -0.1451    0.4704 C   0  0  0  0  0  0  0  0  0  0  0  0
   -3.5478   -0.8697    1.3406 O   0  0  0  0  0  0  0  0  0  0  0  0
   -3.8569    0.6819   -0.3158 N   0  0  0  0  0  0  0  0  0  0  0  0
   -5.2645    0.6957   -0.1105 C   0  0  0  0  0  0  0  0  0  0  0  0
   -5.7407    0.2136    1.1012 C   0  0  0  0  0  0  0  0  0  0  0  0
   -7.0793    0.2004    1.3382 C   0  0  0  0  0  0  0  0  0  0  0  0
   -7.9829    0.6644    0.3828 C   0  0  0  0  0  0  0  0  0  0  0  0
   -7.5124    1.1540   -0.8400 C   0  0  0  0  0  0  0  0  0  0  0  0
   -6.1578    1.1567   -1.0570 C   0  0  0  0  0  0  0  0  0  0  0  0
   -0.8160    1.0042    0.2268 C   0  0  0  0  0  0  0  0  0  0  0  0
   -1.3293    2.4017    0.4140 C   0  0  0  0  0  0  0  0  0  0  0  0
    1.2195    2.8119   -0.6916 C   0  0  0  0  0  0  0  0  0  0  0  0
    2.1830    3.8297   -0.7424 C   0  0  0  0  0  0  0  0  0  0  0  0
  1  2  1  0
  2  3  1  0
  3  4  2  0
  4  5  1  0
  5  6  2  0
  6  7  1  0
  7  8  1  0
  8  9  1  0
  9 10  2  0
 10 11  1  0
 11 12  2  0
 12 13  1  0
 13 14  1  0
 12 15  1  0
 15 16  2  0
 16 17  1  0
 17 18  1  0
  8 19  2  0
 19 20  1  0
 20 21  1  0
 21 22  2  0
 21 23  1  0
 23 24  1  0
 24 25  2  0
 25 26  1  0
 26 27  2  0
 27 28  1  0
 28 29  2  0
 20 30  2  0
 30 31  1  0
  6 32  1  0
 32 33  2  0
 33  3  1  0
 30  7  1  0
 16  9  1  0
 29 24  1  0
M  END
>  <zinc_id>  (1) 
ZINC000003962129

>  <smiles>  (1) 
COc1ccc(-n2c(-c3ccc(OC)cc3OC)cc(C(=O)Nc3ccccc3)c2C)cc1

$$$$
