
     RDKit          3D

 32 36  0  0  0  0  0  0  0  0999 V2000
    6.3691   -2.7534   -1.9941 C   0  0  0  0  0  0  0  0  0  0  0  0
    5.3159   -3.4629   -1.3748 O   0  0  0  0  0  0  0  0  0  0  0  0
    4.4421   -2.8115   -0.5026 C   0  0  0  0  0  0  0  0  0  0  0  0
    4.6229   -1.4672   -0.2557 C   0  0  0  0  0  0  0  0  0  0  0  0
    3.7741   -0.7928    0.6035 C   0  0  0  0  0  0  0  0  0  0  0  0
    2.7246   -1.4303    1.2408 C   0  0  0  0  0  0  0  0  0  0  0  0
    1.8755   -0.6353    2.1351 C   0  0  0  0  0  0  0  0  0  0  0  0
    0.7482   -0.0345    1.4527 N   0  0  0  0  0  0  0  0  0  0  0  0
   -0.4660   -0.5378    1.2707 C   0  0  0  0  0  0  0  0  0  0  0  0
   -0.8893   -1.8123    1.7356 N   0  0  0  0  0  0  0  0  0  0  0  0
   -1.2681    0.3381    0.5696 C   0  0  0  0  0  0  0  0  0  0  0  0
   -2.6729    0.1391    0.1748 C   0  0  0  0  0  0  0  0  0  0  0  0
   -3.2524    1.0510   -0.4659 O   0  0  0  0  0  0  0  0  0  0  0  0
   -3.3723   -0.9957    0.4762 O   0  0  0  0  0  0  0  0  0  0  0  0
   -4.7157   -1.2302    0.1200 C   0  0  0  0  0  0  0  0  0  0  0  0
   -5.2245   -2.5534    0.5785 C   0  0  0  0  0  0  0  0  0  0  0  0
   -6.5887   -2.7788   -0.0797 C   0  0  0  0  0  0  0  0  0  0  0  0
   -6.3915   -3.0038   -1.5702 C   0  0  0  0  0  0  0  0  0  0  0  0
   -5.0948   -2.3262   -2.0187 C   0  0  0  0  0  0  0  0  0  0  0  0
   -5.0007   -0.9740   -1.3312 C   0  0  0  0  0  0  0  0  0  0  0  0
   -0.4817    1.4387    0.3151 C   0  0  0  0  0  0  0  0  0  0  0  0
   -0.7139    2.6028   -0.3255 N   0  0  0  0  0  0  0  0  0  0  0  0
    0.2788    3.5291   -0.4242 C   0  0  0  0  0  0  0  0  0  0  0  0
    0.0768    4.7296   -1.0718 C   0  0  0  0  0  0  0  0  0  0  0  0
    1.0813    5.6774   -1.1767 C   0  0  0  0  0  0  0  0  0  0  0  0
    2.3315    5.4477   -0.6297 C   0  0  0  0  0  0  0  0  0  0  0  0
    2.5250    4.2451    0.0159 C   0  0  0  0  0  0  0  0  0  0  0  0
    1.5254    3.3017    0.1203 C   0  0  0  0  0  0  0  0  0  0  0  0
    1.7118    2.1207    0.7531 N   0  0  0  0  0  0  0  0  0  0  0  0
    0.7659    1.1881    0.8712 C   0  0  0  0  0  0  0  0  0  0  0  0
    2.5557   -2.7658    0.9871 C   0  0  0  0  0  0  0  0  0  0  0  0
    3.4082   -3.4431    0.1241 C   0  0  0  0  0  0  0  0  0  0  0  0
  1  2  1  0
  2  3  1  0
  3  4  2  0
  4  5  1  0
  5  6  2  0
  6  7  1  0
  7  8  1  0
  8  9  1  0
  9 10  1  0
  9 11  2  0
 11 12  1  0
 12 13  2  0
 12 14  1  0
 14 15  1  0
 15 16  1  0
 16 17  1  0
 17 18  1  0
 18 19  1  0
 19 20  1  0
 11 21  1  0
 21 22  2  0
 22 23  1  0
 23 24  2  0
 24 25  1  0
 25 26  2  0
 26 27  1  0
 27 28  2  0
 28 29  1  0
 29 30  2  0
  6 31  1  0
 31 32  2  0
 32  3  1  0
 30  8  1  0
 20 15  1  0
 30 21  1  0
 28 23  1  0
M  END
>  <zinc_id>  (1) 
ZINC000002207866

>  <smiles>  (1) 
COc1ccc(Cn2c(N)c(C(=O)OC3CCCCC3)c3nc4ccccc4nc32)cc1

$$$$
