
     RDKit          3D

 33 37  0  0  0  0  0  0  0  0999 V2000
    1.6764    5.3712    0.2002 O   0  0  0  0  0  0  0  0  0  0  0  0
    0.7698    4.3249    0.1821 C   0  0  0  0  0  0  0  0  0  0  0  0
    0.1527    3.8913    1.3336 C   0  0  0  0  0  0  0  0  0  0  0  0
   -0.7509    2.8544    1.3282 C   0  0  0  0  0  0  0  0  0  0  0  0
   -1.0436    2.2274    0.1097 C   0  0  0  0  0  0  0  0  0  0  0  0
   -2.0092    1.1329    0.0942 C   0  0  0  0  0  0  0  0  0  0  0  0
   -3.3540    1.4091    0.3887 C   0  0  0  0  0  0  0  0  0  0  0  0
   -4.2390    0.3548    0.3755 C   0  0  0  0  0  0  0  0  0  0  0  0
   -3.8550   -0.9381    0.0875 C   0  0  0  0  0  0  0  0  0  0  0  0
   -4.8411   -2.0376    0.0956 C   0  0  0  0  0  0  0  0  0  0  0  0
   -6.1703   -1.8581    0.3516 C   0  0  0  0  0  0  0  0  0  0  0  0
   -7.0680   -2.9242    0.3553 C   0  0  0  0  0  0  0  0  0  0  0  0
   -6.6312   -4.2036    0.0969 C   0  0  0  0  0  0  0  0  0  0  0  0
   -5.2953   -4.3683   -0.1581 C   0  0  0  0  0  0  0  0  0  0  0  0
   -4.4141   -3.3303   -0.1629 C   0  0  0  0  0  0  0  0  0  0  0  0
   -2.5649   -1.1651   -0.1894 N   0  0  0  0  0  0  0  0  0  0  0  0
   -1.6431   -0.1527   -0.1901 C   0  0  0  0  0  0  0  0  0  0  0  0
   -0.2465   -0.4449   -0.5074 C   0  0  0  0  0  0  0  0  0  0  0  0
    0.5419   -1.2161    0.3290 C   0  0  0  0  0  0  0  0  0  0  0  0
    1.8493   -1.4977   -0.0063 C   0  0  0  0  0  0  0  0  0  0  0  0
    2.4448   -1.0458   -1.1613 C   0  0  0  0  0  0  0  0  0  0  0  0
    3.7589   -1.3168   -1.5246 O   0  0  0  0  0  0  0  0  0  0  0  0
    4.5947   -2.0920   -0.7202 C   0  0  0  0  0  0  0  0  0  0  0  0
    4.7339   -1.3912    0.6280 C   0  0  0  0  0  0  0  0  0  0  0  0
    5.3183   -0.0800    0.3628 N   0  0  0  0  0  0  0  0  0  0  0  0
    6.6823   -0.2260   -0.0913 C   0  0  0  0  0  0  0  0  0  0  0  0
    7.5802    0.4820    0.8646 C   0  0  0  0  0  0  0  0  0  0  0  0
    6.6763    1.3778    1.6831 C   0  0  0  0  0  0  0  0  0  0  0  0
    5.3284    0.7626    1.5305 C   0  0  0  0  0  0  0  0  0  0  0  0
    1.6450   -0.2643   -2.0052 C   0  0  0  0  0  0  0  0  0  0  0  0
    0.3415    0.0120   -1.6632 C   0  0  0  0  0  0  0  0  0  0  0  0
   -0.4329    2.6585   -1.0202 C   0  0  0  0  0  0  0  0  0  0  0  0
    0.4644    3.6939   -0.9970 C   0  0  0  0  0  0  0  0  0  0  0  0
  1  2  1  0
  2  3  2  0
  3  4  1  0
  4  5  2  0
  5  6  1  0
  6  7  2  0
  7  8  1  0
  8  9  2  0
  9 10  1  0
 10 11  2  0
 11 12  1  0
 12 13  2  0
 13 14  1  0
 14 15  2  0
  9 16  1  0
 16 17  2  0
 17 18  1  0
 18 19  2  0
 19 20  1  0
 20 21  2  0
 21 22  1  0
 22 23  1  0
 23 24  1  0
 24 25  1  0
 25 26  1  0
 26 27  1  0
 27 28  1  0
 28 29  1  0
 21 30  1  0
 30 31  2  0
  5 32  1  0
 32 33  2  0
 33  2  1  0
 17  6  1  0
 31 18  1  0
 15 10  1  0
 29 25  1  0
M  END
>  <zinc_id>  (1) 
ZINC000001544713

>  <smiles>  (1) 
Oc1ccc(-c2ccc(-c3ccccc3)nc2-c2ccc(OCCN3CCCC3)cc2)cc1

$$$$
