
     RDKit          3D

 31 34  0  0  0  0  0  0  0  0999 V2000
    8.8666   -2.8166   -0.2829 C   0  0  0  0  0  0  0  0  0  0  0  0
    7.5015   -2.5707   -0.0270 O   0  0  0  0  0  0  0  0  0  0  0  0
    7.0145   -1.2873   -0.1644 C   0  0  0  0  0  0  0  0  0  0  0  0
    7.8724   -0.2836   -0.5466 C   0  0  0  0  0  0  0  0  0  0  0  0
    7.4069    1.0117   -0.6911 C   0  0  0  0  0  0  0  0  0  0  0  0
    6.0724    1.3038   -0.4508 C   0  0  0  0  0  0  0  0  0  0  0  0
    5.1977    0.3098   -0.0666 C   0  0  0  0  0  0  0  0  0  0  0  0
    3.7930    0.6200    0.1858 C   0  0  0  0  0  0  0  0  0  0  0  0
    2.9351   -0.2454    0.5416 N   0  0  0  0  0  0  0  0  0  0  0  0
    1.5884    0.0201    0.7897 N   0  0  0  0  0  0  0  0  0  0  0  0
    0.9273    1.1809    0.2990 C   0  0  0  0  0  0  0  0  0  0  0  0
    1.6229    1.9771   -0.3838 O   0  0  0  0  0  0  0  0  0  0  0  0
   -0.4742    1.4484    0.5624 C   0  0  0  0  0  0  0  0  0  0  0  0
   -1.0602    2.5776    0.0672 C   0  0  0  0  0  0  0  0  0  0  0  0
   -2.3865    2.8696    0.2934 C   0  0  0  0  0  0  0  0  0  0  0  0
   -3.1116    1.9661    1.0496 C   0  0  0  0  0  0  0  0  0  0  0  0
   -2.5511    0.8308    1.5561 C   0  0  0  0  0  0  0  0  0  0  0  0
   -3.3321   -0.1277    2.3619 C   0  0  0  0  0  0  0  0  0  0  0  0
   -3.7492   -1.2630    1.6485 O   0  0  0  0  0  0  0  0  0  0  0  0
   -4.5683   -1.1154    0.5467 C   0  0  0  0  0  0  0  0  0  0  0  0
   -4.9458   -2.2765   -0.1194 C   0  0  0  0  0  0  0  0  0  0  0  0
   -5.7599   -2.2406   -1.2278 C   0  0  0  0  0  0  0  0  0  0  0  0
   -6.2184   -1.0284   -1.6982 C   0  0  0  0  0  0  0  0  0  0  0  0
   -5.8395    0.1091   -1.0335 C   0  0  0  0  0  0  0  0  0  0  0  0
   -5.0227    0.0742    0.0790 C   0  0  0  0  0  0  0  0  0  0  0  0
   -6.4281    1.2957   -1.6912 C   0  0  0  0  0  0  0  0  0  0  0  0
   -7.5716    0.7288   -2.4762 C   0  0  0  0  0  0  0  0  0  0  0  0
   -7.0939   -0.6847   -2.8456 C   0  0  0  0  0  0  0  0  0  0  0  0
   -1.2241    0.5731    1.3093 C   0  0  0  0  0  0  0  0  0  0  0  0
    5.6864   -0.9632    0.0684 C   0  0  0  0  0  0  0  0  0  0  0  0
    4.8519   -1.9937    0.4506 O   0  0  0  0  0  0  0  0  0  0  0  0
  1  2  1  0
  2  3  1  0
  3  4  2  0
  4  5  1  0
  5  6  2  0
  6  7  1  0
  7  8  1  0
  8  9  2  0
  9 10  1  0
 10 11  1  0
 11 12  2  0
 11 13  1  0
 13 14  2  0
 14 15  1  0
 15 16  2  0
 16 17  1  0
 17 18  1  0
 18 19  1  0
 19 20  1  0
 20 21  2  0
 21 22  1  0
 22 23  2  0
 23 24  1  0
 24 25  2  0
 24 26  1  0
 26 27  1  0
 27 28  1  0
 17 29  2  0
  7 30  2  0
 30 31  1  0
 30  3  1  0
 29 13  1  0
 25 20  1  0
 28 23  1  0
M  END
>  <zinc_id>  (1) 
ZINC000002754861

>  <smiles>  (1) 
COc1cccc(/C=N/NC(=O)c2cccc(COc3ccc4c(c3)CCC4)c2)c1O

$$$$
