
     RDKit          3D

 30 34  0  0  0  0  0  0  0  0999 V2000
    5.5957    3.3576    0.8690 C   0  0  0  0  0  0  0  0  0  0  0  0
    5.2561    2.1774    1.7790 C   0  0  0  0  0  0  0  0  0  0  0  0
    4.5919    1.1619    0.9500 N   0  0  0  0  0  0  0  0  0  0  0  0
    5.1624    0.1633    0.2775 C   0  0  0  0  0  0  0  0  0  0  0  0
    6.4849   -0.2101    0.1566 C   0  0  0  0  0  0  0  0  0  0  0  0
    6.8398   -1.3090   -0.6162 C   0  0  0  0  0  0  0  0  0  0  0  0
    5.8735   -2.0412   -1.2730 C   0  0  0  0  0  0  0  0  0  0  0  0
    4.5529   -1.6859   -1.1650 C   0  0  0  0  0  0  0  0  0  0  0  0
    4.2228   -0.5768   -0.3817 C   0  0  0  0  0  0  0  0  0  0  0  0
    3.0165    0.0055   -0.0926 C   0  0  0  0  0  0  0  0  0  0  0  0
    1.7221   -0.2771   -0.4560 C   0  0  0  0  0  0  0  0  0  0  0  0
    0.6506    0.4990   -0.0087 C   0  0  0  0  0  0  0  0  0  0  0  0
   -0.6833    0.2089   -0.3825 N   0  0  0  0  0  0  0  0  0  0  0  0
   -0.9639   -0.8941   -1.2289 C   0  0  0  0  0  0  0  0  0  0  0  0
    0.0094   -1.6123   -1.6426 O   0  0  0  0  0  0  0  0  0  0  0  0
   -2.3481   -1.2393   -1.6481 C   0  0  0  0  0  0  0  0  0  0  0  0
   -3.2144   -0.2568   -1.0320 N   0  0  0  0  0  0  0  0  0  0  0  0
   -4.6708   -0.6741   -1.4997 C   0  0  1  0  0  0  0  0  0  0  0  0
   -4.7055   -2.1579   -0.7721 C   0  0  0  0  0  0  0  0  0  0  0  0
   -3.9340   -2.2210    0.4296 C   0  0  0  0  0  0  0  0  0  0  0  0
   -3.6674   -0.9008    1.0883 C   0  0  0  0  0  0  0  0  0  0  0  0
   -4.9029   -0.0864    0.9603 C   0  0  0  0  0  0  0  0  0  0  0  0
   -5.5330    0.5242    2.0292 C   0  0  0  0  0  0  0  0  0  0  0  0
   -6.6756    1.2721    1.7880 C   0  0  0  0  0  0  0  0  0  0  0  0
   -7.1736    1.4044    0.5083 C   0  0  0  0  0  0  0  0  0  0  0  0
   -6.5255    0.7811   -0.5591 C   0  0  0  0  0  0  0  0  0  0  0  0
   -5.4160    0.0639   -0.2686 C   0  0  0  0  0  0  0  0  0  0  0  0
    0.9429    1.5686    0.8184 C   0  0  0  0  0  0  0  0  0  0  0  0
    2.2220    1.8792    1.2006 C   0  0  0  0  0  0  0  0  0  0  0  0
    3.2707    1.0759    0.7302 C   0  0  0  0  0  0  0  0  0  0  0  0
  1  2  1  0
  2  3  1  0
  3  4  1  0
  4  5  2  0
  5  6  1  0
  6  7  2  0
  7  8  1  0
  8  9  2  0
  9 10  1  0
 10 11  2  0
 11 12  1  0
 12 13  1  0
 13 14  1  0
 14 15  2  0
 14 16  1  0
 16 17  1  0
 18 17  1  1
 18 19  1  0
 19 20  1  0
 20 21  1  0
 21 22  1  0
 22 23  2  0
 23 24  1  0
 24 25  2  0
 25 26  1  0
 26 27  2  0
 12 28  2  0
 28 29  1  0
 29 30  2  0
 30  3  1  0
  9  4  1  0
 30 10  1  0
 27 18  1  0
 27 22  1  0
M  END
>  <zinc_id>  (1) 
ZINC000003288679

>  <smiles>  (1) 
CCn1c2ccccc2c2cc(NC(=O)CN[C@H]3CCCc4ccccc43)ccc21

$$$$
