
     RDKit          3D

 30 32  0  0  0  0  0  0  0  0999 V2000
    3.3476    2.0157    2.6205 C   0  0  0  0  0  0  0  0  0  0  0  0
    4.1018    1.0925    1.6983 C   0  0  0  0  0  0  0  0  0  0  0  0
    5.4571    1.0337    1.8267 C   0  0  0  0  0  0  0  0  0  0  0  0
    6.2022    0.2240    1.0305 C   0  0  0  0  0  0  0  0  0  0  0  0
    5.5639   -0.5275    0.1000 C   0  0  0  0  0  0  0  0  0  0  0  0
    4.1943   -0.4774   -0.0411 C   0  0  0  0  0  0  0  0  0  0  0  0
    3.6105   -1.2773   -1.1154 C   0  0  0  0  0  0  0  0  0  0  0  0
    4.6152   -2.2734   -1.6623 C   0  0  0  0  0  0  0  0  0  0  0  0
    3.3390   -0.2617   -2.2522 C   0  0  0  0  0  0  0  0  0  0  0  0
    3.4067    0.3157    0.7336 C   0  0  0  0  0  0  0  0  0  0  0  0
    2.0506    0.5148    0.7446 N   0  0  0  0  0  0  0  0  0  0  0  0
    1.0178   -0.2930    0.3291 C   0  0  0  0  0  0  0  0  0  0  0  0
    1.2544   -1.4022   -0.1389 O   0  0  0  0  0  0  0  0  0  0  0  0
   -0.4314    0.1236    0.4212 C   0  0  0  0  0  0  0  0  0  0  0  0
   -1.2239   -1.1386   -0.2523 C   0  0  1  0  0  0  0  0  0  0  0  0
   -2.6598   -0.5350   -0.0417 N   0  0  0  0  0  0  0  0  0  0  0  0
   -2.9603   -0.1114    1.2752 C   0  0  0  0  0  0  0  0  0  0  0  0
   -2.0788   -0.2396    2.1670 O   0  0  0  0  0  0  0  0  0  0  0  0
   -4.2626    0.4542    1.5620 C   0  0  0  0  0  0  0  0  0  0  0  0
   -5.3708   -0.0776    0.9538 C   0  0  0  0  0  0  0  0  0  0  0  0
   -6.5940    0.4415    1.2019 C   0  0  0  0  0  0  0  0  0  0  0  0
   -6.7955    1.5172    2.0658 C   0  0  0  0  0  0  0  0  0  0  0  0
   -5.6417    2.0261    2.6614 C   0  0  0  0  0  0  0  0  0  0  0  0
   -4.3951    1.5069    2.4166 C   0  0  0  0  0  0  0  0  0  0  0  0
   -1.0847   -0.6142   -1.7634 C   0  0  0  0  0  0  0  0  0  0  0  0
   -1.4642    0.6188   -2.1028 C   0  0  0  0  0  0  0  0  0  0  0  0
   -1.3501    1.0459   -3.4061 C   0  0  0  0  0  0  0  0  0  0  0  0
   -0.8332    0.1771   -4.3716 C   0  0  0  0  0  0  0  0  0  0  0  0
   -0.4504   -1.0906   -3.9864 C   0  0  0  0  0  0  0  0  0  0  0  0
   -0.5647   -1.5206   -2.6744 C   0  0  0  0  0  0  0  0  0  0  0  0
  1  2  1  0
  2  3  2  0
  3  4  1  0
  4  5  2  0
  5  6  1  0
  6  7  1  0
  7  8  1  0
  7  9  1  0
  6 10  2  0
 10 11  1  0
 11 12  1  0
 12 13  2  0
 12 14  1  0
 15 14  1  1
 15 16  1  0
 16 17  1  0
 17 18  2  0
 17 19  1  0
 19 20  2  0
 20 21  1  0
 21 22  2  0
 22 23  1  0
 23 24  2  0
 15 25  1  0
 25 26  2  0
 26 27  1  0
 27 28  2  0
 28 29  1  0
 29 30  2  0
 10  2  1  0
 24 19  1  0
 30 25  1  0
M  END
>  <zinc_id>  (1) 
ZINC000003349272

>  <smiles>  (1) 
Cc1cccc(C(C)C)c1NC(=O)C[C@@H](NC(=O)c1ccccc1)c1ccccc1

$$$$
