
     RDKit          3D

 31 35  0  0  0  0  0  0  0  0999 V2000
   -4.7626    4.4885    0.6436 C   0  0  0  0  0  0  0  0  0  0  0  0
   -4.8385    3.5017    1.7652 C   0  0  0  0  0  0  0  0  0  0  0  0
   -4.0828    2.2853    1.3231 C   0  0  0  0  0  0  0  0  0  0  0  0
   -2.7340    2.2162    1.6076 C   0  0  0  0  0  0  0  0  0  0  0  0
   -2.0148    1.1322    1.2189 C   0  0  0  0  0  0  0  0  0  0  0  0
   -2.6574    0.1125    0.5399 C   0  0  0  0  0  0  0  0  0  0  0  0
   -4.0157    0.1904    0.2579 C   0  0  0  0  0  0  0  0  0  0  0  0
   -4.7342    1.2780    0.6491 C   0  0  0  0  0  0  0  0  0  0  0  0
   -4.3274   -0.9583   -0.4169 C   0  0  0  0  0  0  0  0  0  0  0  0
   -5.5136   -1.4196   -0.9371 C   0  0  0  0  0  0  0  0  0  0  0  0
   -5.5739   -2.6400   -1.5871 C   0  0  0  0  0  0  0  0  0  0  0  0
   -4.4289   -3.3762   -1.7010 C   0  0  0  0  0  0  0  0  0  0  0  0
   -3.2206   -2.9575   -1.1979 C   0  0  0  0  0  0  0  0  0  0  0  0
   -3.1786   -1.7349   -0.5504 C   0  0  0  0  0  0  0  0  0  0  0  0
   -2.1746   -1.0410    0.0521 N   0  0  0  0  0  0  0  0  0  0  0  0
   -0.8278   -1.5565    0.0919 C   0  0  0  0  0  0  0  0  0  0  0  0
   -0.0930   -0.9894   -1.0969 C   0  0  0  0  0  0  0  0  0  0  0  0
    1.2876   -1.5536   -1.1414 C   0  0  0  0  0  0  0  0  0  0  0  0
    1.9954   -1.2409    0.0700 N   0  0  0  0  0  0  0  0  0  0  0  0
    3.3569   -1.8224    0.0104 C   0  0  0  0  0  0  0  0  0  0  0  0
    4.0463   -1.3008   -1.2428 C   0  0  0  0  0  0  0  0  0  0  0  0
    4.1137    0.2197   -1.1954 C   0  0  0  0  0  0  0  0  0  0  0  0
    4.7037    0.6408   -2.4016 O   0  0  0  0  0  0  0  0  0  0  0  0
    4.9501    0.6158   -0.0380 C   0  0  0  0  0  0  0  0  0  0  0  0
    6.1267   -0.1093    0.1338 C   0  0  0  0  0  0  0  0  0  0  0  0
    6.9492    0.2274    1.1818 C   0  0  0  0  0  0  0  0  0  0  0  0
    6.6611    1.2462    2.0651 C   0  0  0  0  0  0  0  0  0  0  0  0
    5.5023    1.9562    1.8923 C   0  0  0  0  0  0  0  0  0  0  0  0
    4.6605    1.6379    0.8478 C   0  0  0  0  0  0  0  0  0  0  0  0
    2.7339    0.7516   -1.0357 C   0  0  0  0  0  0  0  0  0  0  0  0
    2.0909    0.2001    0.1917 C   0  0  0  0  0  0  0  0  0  0  0  0
  1  2  1  0
  2  3  1  0
  3  4  2  0
  4  5  1  0
  5  6  2  0
  6  7  1  0
  7  8  2  0
  7  9  1  0
  9 10  2  0
 10 11  1  0
 11 12  2  0
 12 13  1  0
 13 14  2  0
 14 15  1  0
 15 16  1  0
 16 17  1  0
 17 18  1  0
 18 19  1  0
 19 20  1  0
 20 21  1  0
 21 22  1  0
 22 23  1  0
 22 24  1  0
 24 25  2  0
 25 26  1  0
 26 27  2  0
 27 28  1  0
 28 29  2  0
 22 30  1  0
 30 31  1  0
  8  3  1  0
 14  9  1  0
 31 19  1  0
 15  6  1  0
 29 24  1  0
M  END
>  <zinc_id>  (1) 
ZINC000001893139

>  <smiles>  (1) 
CCc1ccc2c(c1)c1ccccc1n2CCCN1CCC(O)(c2ccccc2)CC1

$$$$
