
     RDKit          3D

 30 33  0  0  0  0  0  0  0  0999 V2000
    5.9843    3.3109    0.5439 C   0  0  0  0  0  0  0  0  0  0  0  0
    7.0604    2.2504    0.4772 C   0  0  0  0  0  0  0  0  0  0  0  0
    6.6150    1.1100    1.1957 O   0  0  0  0  0  0  0  0  0  0  0  0
    5.4462    0.4466    0.8093 C   0  0  0  0  0  0  0  0  0  0  0  0
    4.6834    0.8656   -0.2735 C   0  0  0  0  0  0  0  0  0  0  0  0
    3.5455    0.1532   -0.5849 C   0  0  0  0  0  0  0  0  0  0  0  0
    3.1715   -0.9417    0.1518 C   0  0  0  0  0  0  0  0  0  0  0  0
    1.9794   -1.6904   -0.1724 N   0  0  0  0  0  0  0  0  0  0  0  0
    1.6247   -2.8216    0.6121 C   0  0  0  0  0  0  0  0  0  0  0  0
    2.3862   -3.1146    1.5675 O   0  0  0  0  0  0  0  0  0  0  0  0
    0.3970   -3.6353    0.3177 C   0  0  0  0  0  0  0  0  0  0  0  0
   -0.5130   -2.9516   -1.0823 S   0  0  0  0  0  0  0  0  0  0  0  0
   -1.2019   -1.3666   -0.6341 C   0  0  0  0  0  0  0  0  0  0  0  0
   -1.9366   -0.5305   -1.4637 C   0  0  0  0  0  0  0  0  0  0  0  0
   -2.2995    0.5732   -0.7855 N   0  0  0  0  0  0  0  0  0  0  0  0
   -3.0768    1.6969   -1.2884 C   0  0  0  0  0  0  0  0  0  0  0  0
   -4.5398    1.4834   -1.0744 C   0  0  0  0  0  0  0  0  0  0  0  0
   -5.1781    1.8958    0.0757 C   0  0  0  0  0  0  0  0  0  0  0  0
   -6.5290    1.6815    0.2365 C   0  0  0  0  0  0  0  0  0  0  0  0
   -7.2716    1.0554   -0.7381 C   0  0  0  0  0  0  0  0  0  0  0  0
   -6.6246    0.6480   -1.8819 C   0  0  0  0  0  0  0  0  0  0  0  0
   -5.2758    0.8557   -2.0556 C   0  0  0  0  0  0  0  0  0  0  0  0
   -1.8371    0.5127    0.4707 C   0  0  0  0  0  0  0  0  0  0  0  0
   -1.9133    1.3459    1.5673 C   0  0  0  0  0  0  0  0  0  0  0  0
   -1.3312    1.0297    2.7768 C   0  0  0  0  0  0  0  0  0  0  0  0
   -0.6532   -0.1718    2.8659 C   0  0  0  0  0  0  0  0  0  0  0  0
   -0.5692   -1.0144    1.7774 C   0  0  0  0  0  0  0  0  0  0  0  0
   -1.1500   -0.6960    0.5738 C   0  0  0  0  0  0  0  0  0  0  0  0
    3.9382   -1.3316    1.2097 C   0  0  0  0  0  0  0  0  0  0  0  0
    5.0692   -0.6490    1.5440 C   0  0  0  0  0  0  0  0  0  0  0  0
  1  2  1  0
  2  3  1  0
  3  4  1  0
  4  5  2  0
  5  6  1  0
  6  7  2  0
  7  8  1  0
  8  9  1  0
  9 10  2  0
  9 11  1  0
 11 12  1  0
 12 13  1  0
 13 14  2  0
 14 15  1  0
 15 16  1  0
 16 17  1  0
 17 18  2  0
 18 19  1  0
 19 20  2  0
 20 21  1  0
 21 22  2  0
 15 23  1  0
 23 24  2  0
 24 25  1  0
 25 26  2  0
 26 27  1  0
 27 28  2  0
  7 29  1  0
 29 30  2  0
 30  4  1  0
 28 13  1  0
 22 17  1  0
 28 23  1  0
M  END
>  <zinc_id>  (1) 
ZINC000004059647

>  <smiles>  (1) 
CCOc1ccc(NC(=O)CSc2cn(Cc3ccccc3)c3ccccc23)cc1

$$$$
