
     RDKit          3D

 31 33  0  0  0  0  0  0  0  0999 V2000
   -6.4560   -3.4623    0.4474 C   0  0  0  0  0  0  0  0  0  0  0  0
   -5.4114   -3.1303    1.5086 C   0  0  0  0  0  0  0  0  0  0  0  0
   -6.1872   -2.8301    2.7788 C   0  0  0  0  0  0  0  0  0  0  0  0
   -4.6860   -1.8731    1.1495 C   0  0  0  0  0  0  0  0  0  0  0  0
   -3.3371   -1.8945    0.8697 C   0  0  0  0  0  0  0  0  0  0  0  0
   -2.6780   -0.7360    0.5398 C   0  0  0  0  0  0  0  0  0  0  0  0
   -3.2966    0.5079    0.4643 C   0  0  0  0  0  0  0  0  0  0  0  0
   -2.6528    1.7133    0.1114 C   0  0  0  0  0  0  0  0  0  0  0  0
   -3.1194    2.8477   -0.0328 O   0  0  0  0  0  0  0  0  0  0  0  0
   -1.0753    1.7784   -0.1782 C   0  0  2  0  0  0  0  0  0  0  0  0
   -1.2529    1.5714   -1.8299 C   0  0  0  0  0  0  0  0  0  0  0  0
   -0.7554    0.2912    0.0642 O   0  0  0  0  0  0  0  0  0  0  0  0
    0.5811   -0.0417   -0.1053 C   0  0  0  0  0  0  0  0  0  0  0  0
    1.5213    0.9027   -0.4609 C   0  0  0  0  0  0  0  0  0  0  0  0
    2.8512    0.5741   -0.6303 C   0  0  0  0  0  0  0  0  0  0  0  0
    3.3114   -0.7113   -0.4541 C   0  0  0  0  0  0  0  0  0  0  0  0
    4.7011   -0.9965   -0.6440 N   0  0  0  0  0  0  0  0  0  0  0  0
    5.6453   -0.0089   -1.0018 C   0  0  0  0  0  0  0  0  0  0  0  0
    5.2016    1.1557   -1.1481 O   0  0  0  0  0  0  0  0  0  0  0  0
    7.0726   -0.3124   -1.1962 C   0  0  0  0  0  0  0  0  0  0  0  0
    8.0791    0.5345   -1.5450 C   0  0  0  0  0  0  0  0  0  0  0  0
    9.2357   -0.2130   -1.6021 C   0  0  0  0  0  0  0  0  0  0  0  0
    8.8828   -1.5155   -1.2793 C   0  0  0  0  0  0  0  0  0  0  0  0
    7.6051   -1.5010   -1.0541 O   0  0  0  0  0  0  0  0  0  0  0  0
    2.3891   -1.6627   -0.1000 C   0  0  0  0  0  0  0  0  0  0  0  0
    1.0634   -1.3173    0.0652 C   0  0  0  0  0  0  0  0  0  0  0  0
   -4.6459    0.5146    0.7474 C   0  0  0  0  0  0  0  0  0  0  0  0
   -5.3888    1.8031    0.7130 C   0  0  0  0  0  0  0  0  0  0  0  0
   -6.8797    1.4375    0.8163 C   0  0  0  0  0  0  0  0  0  0  0  0
   -5.0013    2.6640    1.9058 C   0  0  0  0  0  0  0  0  0  0  0  0
   -5.3174   -0.6518    1.0807 C   0  0  0  0  0  0  0  0  0  0  0  0
  1  2  1  0
  2  3  1  0
  2  4  1  0
  4  5  2  0
  5  6  1  0
  6  7  2  0
  7  8  1  0
  8  9  2  0
  8 10  1  0
 10 11  1  6
 10 12  1  0
 12 13  1  0
 13 14  2  0
 14 15  1  0
 15 16  2  0
 16 17  1  0
 17 18  1  0
 18 19  2  0
 18 20  1  0
 20 21  2  0
 21 22  1  0
 22 23  2  0
 23 24  1  0
 16 25  1  0
 25 26  2  0
  7 27  1  0
 27 28  1  0
 28 29  1  0
 28 30  1  0
 27 31  2  0
 31  4  1  0
 26 13  1  0
 24 20  1  0
M  END
>  <zinc_id>  (1) 
ZINC000002623394

>  <smiles>  (1) 
CC(C)c1ccc(C(=O)[C@H](C)Oc2ccc(NC(=O)c3ccco3)cc2)c(C(C)C)c1

$$$$
