
     RDKit          3D

 31 34  0  0  0  0  0  0  0  0999 V2000
    7.4037    0.2368    0.6663 C   0  0  0  0  0  0  0  0  0  0  0  0
    7.2216   -1.0197   -0.1815 C   0  0  0  0  0  0  0  0  0  0  0  0
    6.6984   -0.3309   -1.5925 C   0  0  1  0  0  0  0  0  0  0  0  0
    6.5620   -1.7962   -2.3528 C   0  0  0  0  0  0  0  0  0  0  0  0
    5.1833   -0.2123   -1.0856 C   0  0  0  0  0  0  0  0  0  0  0  0
    4.3858   -1.2238   -0.8747 C   0  0  0  0  0  0  0  0  0  0  0  0
    3.0885   -0.9469   -0.4314 C   0  0  0  0  0  0  0  0  0  0  0  0
    2.6625    0.3474   -0.2232 C   0  0  0  0  0  0  0  0  0  0  0  0
    1.3024    0.6151    0.2404 C   0  0  0  0  0  0  0  0  0  0  0  0
    0.4301   -0.4274    0.4745 C   0  0  0  0  0  0  0  0  0  0  0  0
   -0.8623   -0.1636    0.9155 C   0  0  0  0  0  0  0  0  0  0  0  0
   -1.8038   -1.2549    1.1690 C   0  0  0  0  0  0  0  0  0  0  0  0
   -1.4611   -2.4566    1.0059 O   0  0  0  0  0  0  0  0  0  0  0  0
   -3.0955   -0.9331    1.5975 N   0  0  0  0  0  0  0  0  0  0  0  0
   -4.0334   -1.9260    1.8551 N   0  0  0  0  0  0  0  0  0  0  0  0
   -4.8625   -2.2410    0.9266 C   0  0  0  0  0  0  0  0  0  0  0  0
   -4.7781   -1.5429   -0.3472 C   0  0  0  0  0  0  0  0  0  0  0  0
   -5.6761   -1.9011   -1.3176 C   0  0  0  0  0  0  0  0  0  0  0  0
   -5.6625   -1.2945   -2.5379 C   0  0  0  0  0  0  0  0  0  0  0  0
   -4.7449   -0.3181   -2.8005 C   0  0  0  0  0  0  0  0  0  0  0  0
   -3.8484    0.0189   -1.7894 C   0  0  0  0  0  0  0  0  0  0  0  0
   -3.8758   -0.5879   -0.5946 N   0  0  0  0  0  0  0  0  0  0  0  0
   -1.2157    1.1513    1.1008 C   0  0  0  0  0  0  0  0  0  0  0  0
   -2.4767    1.5015    1.5364 C   0  0  0  0  0  0  0  0  0  0  0  0
   -2.8416    2.8178    1.7260 C   0  0  0  0  0  0  0  0  0  0  0  0
   -1.9536    3.8454    1.4859 C   0  0  0  0  0  0  0  0  0  0  0  0
   -0.6903    3.5034    1.0499 C   0  0  0  0  0  0  0  0  0  0  0  0
   -0.3338    2.1849    0.8630 C   0  0  0  0  0  0  0  0  0  0  0  0
    0.9150    1.8893    0.4347 N   0  0  0  0  0  0  0  0  0  0  0  0
    3.5386    1.3673   -0.4596 C   0  0  0  0  0  0  0  0  0  0  0  0
    4.8241    1.0976   -0.8986 C   0  0  0  0  0  0  0  0  0  0  0  0
  1  2  1  0
  2  3  1  0
  3  4  1  6
  3  5  1  0
  5  6  2  0
  6  7  1  0
  7  8  2  0
  8  9  1  0
  9 10  2  0
 10 11  1  0
 11 12  1  0
 12 13  2  0
 12 14  1  0
 14 15  1  0
 15 16  2  0
 16 17  1  0
 17 18  2  0
 18 19  1  0
 19 20  2  0
 20 21  1  0
 21 22  2  0
 11 23  2  0
 23 24  1  0
 24 25  2  0
 25 26  1  0
 26 27  2  0
 27 28  1  0
 28 29  2  0
  8 30  1  0
 30 31  2  0
 31  5  1  0
 29  9  1  0
 22 17  1  0
 28 23  1  0
M  END
>  <zinc_id>  (1) 
ZINC000004470509

>  <smiles>  (1) 
CC[C@@H](C)c1ccc(-c2cc(C(=O)N/N=C\c3ccccn3)c3ccccc3n2)cc1

$$$$
