
     RDKit          3D

 32 35  0  0  0  0  0  0  0  0999 V2000
   -1.8872   -3.6628    1.1184 C   0  0  0  0  0  0  0  0  0  0  0  0
   -3.2359   -3.5161    0.7376 O   0  0  0  0  0  0  0  0  0  0  0  0
   -3.6117   -2.6945   -0.3108 C   0  0  0  0  0  0  0  0  0  0  0  0
   -4.9446   -2.5965   -0.6321 C   0  0  0  0  0  0  0  0  0  0  0  0
   -5.4191   -1.7987   -1.6674 C   0  0  0  0  0  0  0  0  0  0  0  0
   -4.4612   -1.0782   -2.3913 C   0  0  0  0  0  0  0  0  0  0  0  0
   -3.1177   -1.1495   -2.1003 C   0  0  0  0  0  0  0  0  0  0  0  0
   -2.1724   -0.3510   -2.9239 C   0  0  0  0  0  0  0  0  0  0  0  0
   -2.0468    0.9595   -2.3448 N   0  0  0  0  0  0  0  0  0  0  0  0
   -2.8052    2.0074   -2.6531 C   0  0  0  0  0  0  0  0  0  0  0  0
   -2.4282    3.1231   -1.9162 C   0  0  0  0  0  0  0  0  0  0  0  0
   -1.3857    2.6888   -1.1338 C   0  0  0  0  0  0  0  0  0  0  0  0
   -1.1782    1.3567   -1.4223 C   0  0  0  0  0  0  0  0  0  0  0  0
   -0.1498    0.5094   -0.8017 C   0  0  0  0  0  0  0  0  0  0  0  0
    0.4944    1.2148    0.2823 N   0  0  0  0  0  0  0  0  0  0  0  0
    1.0990    2.3918   -0.2454 C   0  0  0  0  0  0  0  0  0  0  0  0
    1.8060    3.2405    0.7658 C   0  0  0  0  0  0  0  0  0  0  0  0
    0.9081    3.7398    1.8624 C   0  0  0  0  0  0  0  0  0  0  0  0
    1.5093    3.4047    3.2071 C   0  0  0  0  0  0  0  0  0  0  0  0
    2.9249    3.8464    3.3430 C   0  0  0  0  0  0  0  0  0  0  0  0
    3.8333    3.3388    2.2508 C   0  0  0  0  0  0  0  0  0  0  0  0
    3.0299    2.5339    1.2897 C   0  0  0  0  0  0  0  0  0  0  0  0
    1.3756    0.3306    0.9653 C   0  0  0  0  0  0  0  0  0  0  0  0
    2.6301    0.0161   -0.0898 C   0  0  2  0  0  0  0  0  0  0  0  0
    1.7216   -0.6091   -1.1616 O   0  0  0  0  0  0  0  0  0  0  0  0
    3.0244   -1.4088    0.6081 C   0  0  0  0  0  0  0  0  0  0  0  0
    4.3493   -1.5665    0.8975 C   0  0  0  0  0  0  0  0  0  0  0  0
    4.6846   -2.7882    1.4965 C   0  0  0  0  0  0  0  0  0  0  0  0
    3.7103   -3.7383    1.7582 C   0  0  0  0  0  0  0  0  0  0  0  0
    2.3929   -3.4925    1.4308 C   0  0  0  0  0  0  0  0  0  0  0  0
    2.0473   -2.2924    0.8397 C   0  0  0  0  0  0  0  0  0  0  0  0
   -2.6973   -1.9593   -1.0588 C   0  0  0  0  0  0  0  0  0  0  0  0
  1  2  1  0
  2  3  1  0
  3  4  2  0
  4  5  1  0
  5  6  2  0
  6  7  1  0
  7  8  1  0
  8  9  1  0
  9 10  1  0
 10 11  2  0
 11 12  1  0
 12 13  2  0
 13 14  1  0
 14 15  1  0
 15 16  1  0
 16 17  1  0
 17 18  1  0
 18 19  1  0
 19 20  1  0
 20 21  1  0
 21 22  1  0
 15 23  1  0
 23 24  1  0
 24 25  1  6
 24 26  1  0
 26 27  2  0
 27 28  1  0
 28 29  2  0
 29 30  1  0
 30 31  2  0
  7 32  2  0
 32  3  1  0
 13  9  1  0
 22 17  1  0
 31 26  1  0
M  END
>  <zinc_id>  (1) 
ZINC000004357454

>  <smiles>  (1) 
COc1cccc(Cn2cccc2CN(CC2CCCCC2)C[C@H](O)c2ccccc2)c1

$$$$
