
     RDKit          3D

 34 38  0  0  0  0  0  0  0  0999 V2000
   -4.1722   -5.4159    0.5328 C   0  0  0  0  0  0  0  0  0  0  0  0
   -3.2940   -4.1906    0.3875 C   0  0  0  0  0  0  0  0  0  0  0  0
   -3.8488   -3.3450   -0.5867 O   0  0  0  0  0  0  0  0  0  0  0  0
   -3.2809   -2.1377   -0.9538 C   0  0  0  0  0  0  0  0  0  0  0  0
   -2.0987   -1.6695   -0.3720 C   0  0  0  0  0  0  0  0  0  0  0  0
   -1.6132   -0.4530   -0.8072 C   0  0  0  0  0  0  0  0  0  0  0  0
   -0.3930    0.1515   -0.2866 C   0  0  0  0  0  0  0  0  0  0  0  0
    0.6894   -0.6324   -0.1419 N   0  0  0  0  0  0  0  0  0  0  0  0
    1.8688   -0.1429    0.3385 C   0  0  0  0  0  0  0  0  0  0  0  0
    1.9358    1.1811    0.6771 C   0  0  0  0  0  0  0  0  0  0  0  0
    3.2262    1.3838    1.1228 C   0  0  0  0  0  0  0  0  0  0  0  0
    3.7566    2.7070    1.6038 C   0  0  0  0  0  0  0  0  0  0  0  0
    3.8784    0.2141    1.0424 N   0  0  0  0  0  0  0  0  0  0  0  0
    3.0621   -0.7084    0.5697 N   0  0  0  0  0  0  0  0  0  0  0  0
    3.3785   -2.0961    0.3337 C   0  0  0  0  0  0  0  0  0  0  0  0
    2.6328   -2.8774   -0.4999 C   0  0  0  0  0  0  0  0  0  0  0  0
    2.9902   -4.2004   -0.6826 C   0  0  0  0  0  0  0  0  0  0  0  0
    4.0905   -4.7621   -0.0408 C   0  0  0  0  0  0  0  0  0  0  0  0
    4.8478   -3.9542    0.8107 C   0  0  0  0  0  0  0  0  0  0  0  0
    4.4708   -2.6416    0.9750 C   0  0  0  0  0  0  0  0  0  0  0  0
    0.8222    1.9893    0.5287 C   0  0  0  0  0  0  0  0  0  0  0  0
    0.8756    3.3112    0.8627 C   0  0  0  0  0  0  0  0  0  0  0  0
   -0.2363    4.1159    0.7140 C   0  0  0  0  0  0  0  0  0  0  0  0
   -0.1878    5.4733    1.0550 O   0  0  0  0  0  0  0  0  0  0  0  0
    1.0237    6.0064    1.5558 C   0  0  0  0  0  0  0  0  0  0  0  0
   -1.4348    3.6352    0.2298 C   0  0  0  0  0  0  0  0  0  0  0  0
   -2.5453    4.4762    0.0903 O   0  0  0  0  0  0  0  0  0  0  0  0
   -3.7785    4.0039   -0.4025 C   0  0  0  0  0  0  0  0  0  0  0  0
   -1.4918    2.2989   -0.1087 C   0  0  0  0  0  0  0  0  0  0  0  0
   -0.3777    1.4923    0.0402 C   0  0  0  0  0  0  0  0  0  0  0  0
   -2.2905    0.2556   -1.7834 C   0  0  0  0  0  0  0  0  0  0  0  0
   -3.4475   -0.1982   -2.3556 C   0  0  0  0  0  0  0  0  0  0  0  0
   -3.9431   -1.4107   -1.9306 C   0  0  0  0  0  0  0  0  0  0  0  0
   -5.1156   -1.8592   -2.5180 O   0  0  0  0  0  0  0  0  0  0  0  0
  1  2  1  0
  2  3  1  0
  3  4  1  0
  4  5  2  0
  5  6  1  0
  6  7  1  0
  7  8  2  0
  8  9  1  0
  9 10  2  0
 10 11  1  0
 11 12  1  0
 11 13  2  0
 13 14  1  0
 14 15  1  0
 15 16  2  0
 16 17  1  0
 17 18  2  0
 18 19  1  0
 19 20  2  0
 10 21  1  0
 21 22  2  0
 22 23  1  0
 23 24  1  0
 24 25  1  0
 23 26  2  0
 26 27  1  0
 27 28  1  0
 26 29  1  0
 29 30  2  0
  6 31  2  0
 31 32  1  0
 32 33  2  0
 33 34  1  0
 33  4  1  0
 30  7  1  0
 14  9  1  0
 20 15  1  0
 30 21  1  0
M  END
>  <zinc_id>  (1) 
ZINC000000848438

>  <smiles>  (1) 
CCOc1cc(-c2nc3c(c(C)nn3-c3ccccc3)c3cc(OC)c(OC)cc23)ccc1O

$$$$
