
     RDKit          3D

 32 35  0  0  0  0  0  0  0  0999 V2000
    1.9230    4.8345   -1.2357 C   0  0  0  0  0  0  0  0  0  0  0  0
    0.7222    4.5050   -2.0683 C   0  0  0  0  0  0  0  0  0  0  0  0
   -0.4621    4.2361   -1.1836 C   0  0  0  0  0  0  0  0  0  0  0  0
   -1.4012    5.2556   -1.1150 C   0  0  0  0  0  0  0  0  0  0  0  0
   -2.5028    5.0604   -0.3209 C   0  0  0  0  0  0  0  0  0  0  0  0
   -2.6996    3.9010    0.3977 C   0  0  0  0  0  0  0  0  0  0  0  0
   -1.7272    2.9088    0.2939 C   0  0  0  0  0  0  0  0  0  0  0  0
   -0.6122    3.0628   -0.4874 C   0  0  0  0  0  0  0  0  0  0  0  0
    0.3428    2.0821   -0.5835 N   0  0  0  0  0  0  0  0  0  0  0  0
    0.3943    0.8191    0.0297 C   0  0  0  0  0  0  0  0  0  0  0  0
   -0.5157   -0.1203    0.1369 C   0  0  0  0  0  0  0  0  0  0  0  0
   -2.1649    0.0823   -0.5652 S   0  0  0  0  0  0  0  0  0  0  0  0
   -3.1643   -1.3753   -0.2470 C   0  0  0  0  0  0  0  0  0  0  0  0
   -3.9397   -1.5004    0.8802 C   0  0  0  0  0  0  0  0  0  0  0  0
   -4.7210   -2.6003    1.1640 C   0  0  0  0  0  0  0  0  0  0  0  0
   -4.7405   -3.6464    0.2797 C   0  0  0  0  0  0  0  0  0  0  0  0
   -5.5819   -4.8486    0.5688 C   0  0  0  0  0  0  0  0  0  0  0  0
   -3.9732   -3.5549   -0.8643 C   0  0  0  0  0  0  0  0  0  0  0  0
   -3.1913   -2.4430   -1.1382 C   0  0  0  0  0  0  0  0  0  0  0  0
   -0.0177   -1.2782    0.8647 C   0  0  0  0  0  0  0  0  0  0  0  0
   -0.6714   -2.3217    1.1147 O   0  0  0  0  0  0  0  0  0  0  0  0
    1.3364   -0.9732    1.2196 N   0  0  0  0  0  0  0  0  0  0  0  0
    2.1665   -1.9038    1.9624 C   0  0  0  0  0  0  0  0  0  0  0  0
    2.9311   -2.8295    1.0778 C   0  0  0  0  0  0  0  0  0  0  0  0
    3.8433   -2.1053    0.1579 C   0  0  0  0  0  0  0  0  0  0  0  0
    3.3758   -1.7162   -1.0814 C   0  0  0  0  0  0  0  0  0  0  0  0
    4.1894   -1.0363   -1.9805 C   0  0  0  0  0  0  0  0  0  0  0  0
    5.4748   -0.7507   -1.6247 C   0  0  0  0  0  0  0  0  0  0  0  0
    5.9556   -1.1386   -0.3774 C   0  0  0  0  0  0  0  0  0  0  0  0
    5.1416   -1.8090    0.4998 C   0  0  0  0  0  0  0  0  0  0  0  0
    1.5821    0.3084    0.7069 C   0  0  0  0  0  0  0  0  0  0  0  0
    2.7074    0.8955    0.8448 O   0  0  0  0  0  0  0  0  0  0  0  0
  1  2  1  0
  2  3  1  0
  3  4  2  0
  4  5  1  0
  5  6  2  0
  6  7  1  0
  7  8  2  0
  8  9  1  0
  9 10  1  0
 10 11  2  0
 11 12  1  0
 12 13  1  0
 13 14  2  0
 14 15  1  0
 15 16  2  0
 16 17  1  0
 16 18  1  0
 18 19  2  0
 11 20  1  0
 20 21  2  0
 20 22  1  0
 22 23  1  0
 23 24  1  0
 24 25  1  0
 25 26  2  0
 26 27  1  0
 27 28  2  0
 28 29  1  0
 29 30  2  0
 22 31  1  0
 31 32  2  0
  8  3  1  0
 31 10  1  0
 19 13  1  0
 30 25  1  0
M  END
>  <zinc_id>  (1) 
ZINC000001932065

>  <smiles>  (1) 
CCc1ccccc1NC1=C(Sc2ccc(C)cc2)C(=O)N(CCc2ccccc2)C1=O

$$$$
