
     RDKit          3D

 32 35  0  0  0  0  0  0  0  0999 V2000
    8.5532   -0.8280    0.3359 C   0  0  0  0  0  0  0  0  0  0  0  0
    7.0861   -0.9251    0.6400 C   0  0  0  0  0  0  0  0  0  0  0  0
    6.2911   -0.3161   -0.3652 O   0  0  0  0  0  0  0  0  0  0  0  0
    4.9076   -0.2905   -0.2833 C   0  0  0  0  0  0  0  0  0  0  0  0
    4.1861    0.3172   -1.2832 C   0  0  0  0  0  0  0  0  0  0  0  0
    2.8049    0.3782   -1.2676 C   0  0  0  0  0  0  0  0  0  0  0  0
    2.0869   -0.1795   -0.2276 C   0  0  0  0  0  0  0  0  0  0  0  0
    0.6667   -0.1190   -0.2096 N   0  0  0  0  0  0  0  0  0  0  0  0
   -0.2541   -1.2125   -0.3873 C   0  0  0  0  0  0  0  0  0  0  0  0
    0.1578   -2.3912   -0.5900 O   0  0  0  0  0  0  0  0  0  0  0  0
   -1.6324   -0.7594   -0.2978 C   0  0  0  0  0  0  0  0  0  0  0  0
   -2.8612   -1.4376   -0.3917 N   0  0  0  0  0  0  0  0  0  0  0  0
   -3.0263   -2.8089   -0.5639 C   0  0  0  0  0  0  0  0  0  0  0  0
   -4.3510   -3.3089   -0.5115 C   0  0  0  0  0  0  0  0  0  0  0  0
   -4.5519   -4.6476   -0.6775 C   0  0  0  0  0  0  0  0  0  0  0  0
   -3.5232   -5.5407   -0.8962 C   0  0  0  0  0  0  0  0  0  0  0  0
   -2.2191   -5.0566   -0.9496 C   0  0  0  0  0  0  0  0  0  0  0  0
   -1.1027   -6.0165   -1.1904 C   0  0  0  0  0  0  0  0  0  0  0  0
   -2.0497   -3.7282   -0.7813 C   0  0  0  0  0  0  0  0  0  0  0  0
   -1.5426    0.5722   -0.0732 C   0  0  0  0  0  0  0  0  0  0  0  0
   -2.9692    1.6401    0.1244 S   0  0  0  0  0  0  0  0  0  0  0  0
   -2.4670    3.3092    0.4774 C   0  0  0  0  0  0  0  0  0  0  0  0
   -2.2808    3.7614    1.7741 C   0  0  0  0  0  0  0  0  0  0  0  0
   -1.8907    5.0562    2.0259 C   0  0  0  0  0  0  0  0  0  0  0  0
   -1.6738    5.9415    0.9911 C   0  0  0  0  0  0  0  0  0  0  0  0
   -1.2536    7.3488    1.1678 C   0  0  0  0  0  0  0  0  0  0  0  0
   -1.8624    5.4790   -0.2905 C   0  0  0  0  0  0  0  0  0  0  0  0
   -2.2530    4.1829   -0.5439 C   0  0  0  0  0  0  0  0  0  0  0  0
   -0.1667    1.0045   -0.0115 C   0  0  0  0  0  0  0  0  0  0  0  0
    0.1954    2.2157    0.1916 O   0  0  0  0  0  0  0  0  0  0  0  0
    2.8075   -0.7914    0.7789 C   0  0  0  0  0  0  0  0  0  0  0  0
    4.1881   -0.8492    0.7578 C   0  0  0  0  0  0  0  0  0  0  0  0
  1  2  1  0
  2  3  1  0
  3  4  1  0
  4  5  2  0
  5  6  1  0
  6  7  2  0
  7  8  1  0
  8  9  1  0
  9 10  2  0
  9 11  1  0
 11 12  1  0
 12 13  1  0
 13 14  2  0
 14 15  1  0
 15 16  2  0
 16 17  1  0
 17 18  1  0
 17 19  2  0
 11 20  2  0
 20 21  1  0
 21 22  1  0
 22 23  2  0
 23 24  1  0
 24 25  2  0
 25 26  1  0
 25 27  1  0
 27 28  2  0
 20 29  1  0
 29 30  2  0
  7 31  1  0
 31 32  2  0
 32  4  1  0
 29  8  1  0
 19 13  1  0
 28 22  1  0
M  END
>  <zinc_id>  (1) 
ZINC000001928688

>  <smiles>  (1) 
CCOc1ccc(N2C(=O)C(Nc3cccc(C)c3)=C(Sc3ccc(C)cc3)C2=O)cc1

$$$$
