
     RDKit          3D

 32 36  0  0  0  0  0  0  0  0999 V2000
    8.6875    0.1802   -1.6560 C   0  0  0  0  0  0  0  0  0  0  0  0
    8.4788    0.3695   -0.1488 C   0  0  0  0  0  0  0  0  0  0  0  0
    8.1496    1.8569    0.0297 C   0  0  0  0  0  0  0  0  0  0  0  0
    7.2522   -0.4549    0.1868 C   0  0  0  0  0  0  0  0  0  0  0  0
    6.1954    0.1031   -0.6115 O   0  0  0  0  0  0  0  0  0  0  0  0
    4.9225   -0.4511   -0.5216 C   0  0  0  0  0  0  0  0  0  0  0  0
    4.6326   -1.5116    0.2999 C   0  0  0  0  0  0  0  0  0  0  0  0
    3.3300   -2.0521    0.3691 C   0  0  0  0  0  0  0  0  0  0  0  0
    2.3448   -1.5066   -0.3968 C   0  0  0  0  0  0  0  0  0  0  0  0
    0.8726   -2.1039   -0.3303 C   0  0  1  0  0  0  0  0  0  0  0  0
    0.8298   -2.2000    1.2693 N   0  0  0  0  0  0  0  0  0  0  0  0
   -0.4709   -2.7652    1.5227 C   0  0  0  0  0  0  0  0  0  0  0  0
   -1.5814   -2.1381    0.7148 C   0  0  0  0  0  0  0  0  0  0  0  0
   -1.1772   -0.8373    0.1710 C   0  0  0  0  0  0  0  0  0  0  0  0
    0.0636   -0.7170   -0.3900 C   0  0  0  0  0  0  0  0  0  0  0  0
    0.2532    0.4838   -0.8168 N   0  0  0  0  0  0  0  0  0  0  0  0
   -0.8300    1.2333   -0.5733 C   0  0  0  0  0  0  0  0  0  0  0  0
   -1.1529    2.5341   -0.8114 C   0  0  0  0  0  0  0  0  0  0  0  0
   -2.3927    3.0718   -0.4405 C   0  0  0  0  0  0  0  0  0  0  0  0
   -3.3430    2.2639    0.1957 C   0  0  0  0  0  0  0  0  0  0  0  0
   -4.5762    2.7813    0.5705 O   0  0  0  0  0  0  0  0  0  0  0  0
   -5.4754    1.9051    1.2008 C   0  0  0  0  0  0  0  0  0  0  0  0
   -5.7846    0.7935    0.2826 C   0  0  0  0  0  0  0  0  0  0  0  0
   -5.3975   -0.5193    0.4633 C   0  0  0  0  0  0  0  0  0  0  0  0
   -5.7498   -1.4704   -0.4700 C   0  0  0  0  0  0  0  0  0  0  0  0
   -6.4781   -1.1340   -1.5743 C   0  0  0  0  0  0  0  0  0  0  0  0
   -6.8679    0.1661   -1.7641 C   0  0  0  0  0  0  0  0  0  0  0  0
   -6.5315    1.1164   -0.8580 C   0  0  0  0  0  0  0  0  0  0  0  0
   -2.9666    0.9619    0.4115 C   0  0  0  0  0  0  0  0  0  0  0  0
   -1.7488    0.4164    0.0520 C   0  0  0  0  0  0  0  0  0  0  0  0
    2.6026   -0.4540   -1.2213 C   0  0  0  0  0  0  0  0  0  0  0  0
    3.9094    0.0784   -1.2822 C   0  0  0  0  0  0  0  0  0  0  0  0
  1  2  1  0
  2  3  1  0
  2  4  1  0
  4  5  1  0
  5  6  1  0
  6  7  2  0
  7  8  1  0
  8  9  2  0
 10  9  1  1
 10 11  1  0
 11 12  1  0
 12 13  1  0
 13 14  1  0
 14 15  2  0
 15 16  1  0
 16 17  1  0
 17 18  2  0
 18 19  1  0
 19 20  2  0
 20 21  1  0
 21 22  1  0
 22 23  1  0
 23 24  2  0
 24 25  1  0
 25 26  2  0
 26 27  1  0
 27 28  2  0
 20 29  1  0
 29 30  2  0
  9 31  1  0
 31 32  2  0
 32  6  1  0
 15 10  1  0
 30 17  1  0
 30 14  1  0
 28 23  1  0
M  END
>  <zinc_id>  (1) 
ZINC000003738251

>  <smiles>  (1) 
CC(C)COc1ccc([C@H]2NCCc3c2[nH]c2ccc(OCc4ccccc4)cc32)cc1

$$$$
