
     RDKit          3D

 32 35  0  0  0  0  0  0  0  0999 V2000
    0.2202    1.3349    4.5260 C   0  0  0  0  0  0  0  0  0  0  0  0
    0.0646    1.0862    3.0633 C   0  0  0  0  0  0  0  0  0  0  0  0
   -1.0867    1.2495    2.5133 N   0  0  0  0  0  0  0  0  0  0  0  0
   -1.2027    1.0083    1.1370 N   0  0  0  0  0  0  0  0  0  0  0  0
   -2.3404    0.3967    0.5618 C   0  0  0  0  0  0  0  0  0  0  0  0
   -3.2698    0.0719    1.3733 O   0  0  0  0  0  0  0  0  0  0  0  0
   -2.5010    0.1224   -0.8957 C   0  0  0  0  0  0  0  0  0  0  0  0
   -3.8263   -0.5373   -1.1401 C   0  0  0  0  0  0  0  0  0  0  0  0
   -3.8874   -1.8936   -1.3810 C   0  0  0  0  0  0  0  0  0  0  0  0
   -5.0713   -2.5602   -1.6084 C   0  0  0  0  0  0  0  0  0  0  0  0
   -6.2376   -1.8295   -1.5922 C   0  0  0  0  0  0  0  0  0  0  0  0
   -6.2375   -0.4811   -1.3585 C   0  0  0  0  0  0  0  0  0  0  0  0
   -7.4144    0.2603   -1.3426 C   0  0  0  0  0  0  0  0  0  0  0  0
   -7.3303    1.6073   -1.1025 C   0  0  0  0  0  0  0  0  0  0  0  0
   -6.1184    2.2257   -0.8809 C   0  0  0  0  0  0  0  0  0  0  0  0
   -4.9527    1.5063   -0.8939 C   0  0  0  0  0  0  0  0  0  0  0  0
   -5.0199    0.1566   -1.1329 C   0  0  0  0  0  0  0  0  0  0  0  0
    1.1724    0.6669    2.2416 C   0  0  0  0  0  0  0  0  0  0  0  0
    2.4086    0.4997    2.8729 C   0  0  0  0  0  0  0  0  0  0  0  0
    3.5375    0.1015    2.1815 C   0  0  0  0  0  0  0  0  0  0  0  0
    3.4590   -0.1420    0.8301 C   0  0  0  0  0  0  0  0  0  0  0  0
    4.5798   -0.5509    0.0698 N   0  0  0  0  0  0  0  0  0  0  0  0
    4.5270   -0.8051   -1.3237 C   0  0  0  0  0  0  0  0  0  0  0  0
    3.4092   -0.6524   -1.9004 O   0  0  0  0  0  0  0  0  0  0  0  0
    5.7121   -1.2336   -2.1094 C   0  0  0  0  0  0  0  0  0  0  0  0
    6.2871   -2.5478   -1.5921 C   0  0  0  0  0  0  0  0  0  0  0  0
    6.5144   -2.4079   -0.1031 C   0  0  0  0  0  0  0  0  0  0  0  0
    7.4490   -1.2737    0.1912 C   0  0  0  0  0  0  0  0  0  0  0  0
    6.9936    0.0127   -0.4229 C   0  0  0  0  0  0  0  0  0  0  0  0
    6.8027   -0.1916   -1.9114 C   0  0  0  0  0  0  0  0  0  0  0  0
    2.2511    0.0234    0.2238 C   0  0  0  0  0  0  0  0  0  0  0  0
    1.1080    0.4233    0.9059 C   0  0  0  0  0  0  0  0  0  0  0  0
  1  2  1  0
  2  3  2  0
  3  4  1  0
  4  5  1  0
  5  6  2  0
  5  7  1  0
  7  8  1  0
  8  9  2  0
  9 10  1  0
 10 11  2  0
 11 12  1  0
 12 13  2  0
 13 14  1  0
 14 15  2  0
 15 16  1  0
 16 17  2  0
  2 18  1  0
 18 19  2  0
 19 20  1  0
 20 21  2  0
 21 22  1  0
 22 23  1  0
 23 24  2  0
 23 25  1  0
 25 26  1  0
 26 27  1  0
 27 28  1  0
 28 29  1  0
 29 30  1  0
 21 31  1  0
 31 32  2  0
 17  8  1  0
 32 18  1  0
 17 12  1  0
 30 25  1  0
M  END
>  <zinc_id>  (1) 
ZINC000004155216

>  <smiles>  (1) 
C/C(=N/NC(=O)Cc1cccc2ccccc12)c1ccc(NC(=O)C2CCCCC2)cc1

$$$$
