
     RDKit          3D

 31 34  0  0  0  0  0  0  0  0999 V2000
    1.0675    3.5599    0.9514 O   0  0  0  0  0  0  0  0  0  0  0  0
    0.4742    2.4841    0.2484 C   0  0  1  0  0  0  0  0  0  0  0  0
   -0.8316    2.2148    0.9375 C   0  0  0  0  0  0  0  0  0  0  0  0
   -1.5969    1.1303    0.3528 C   0  0  0  0  0  0  0  0  0  0  0  0
   -2.2433    0.2511   -0.1277 C   0  0  0  0  0  0  0  0  0  0  0  0
   -3.0581   -0.8137   -0.7196 C   0  0  0  0  0  0  0  0  0  0  0  0
   -4.2040   -1.0197    0.1112 N   0  0  0  0  0  0  0  0  0  0  0  0
   -5.0783   -2.0534   -0.3872 C   0  0  0  0  0  0  0  0  0  0  0  0
   -5.0927   -3.1892    0.6114 C   0  0  0  0  0  0  0  0  0  0  0  0
   -5.5678   -2.6275    1.9357 C   0  0  0  0  0  0  0  0  0  0  0  0
   -6.4262   -1.4315    1.6578 C   0  0  0  0  0  0  0  0  0  0  0  0
   -5.6644   -0.1252    1.7807 C   0  0  0  0  0  0  0  0  0  0  0  0
   -4.8840    0.1720    0.5105 C   0  0  0  0  0  0  0  0  0  0  0  0
    0.2980    2.8952   -1.1627 C   0  0  0  0  0  0  0  0  0  0  0  0
    1.3413    3.3654   -1.9289 C   0  0  0  0  0  0  0  0  0  0  0  0
    1.1680    3.7488   -3.2536 C   0  0  0  0  0  0  0  0  0  0  0  0
   -0.0722    3.6658   -3.8402 C   0  0  0  0  0  0  0  0  0  0  0  0
   -1.1252    3.1982   -3.0887 C   0  0  0  0  0  0  0  0  0  0  0  0
   -0.9358    2.8191   -1.7664 C   0  0  0  0  0  0  0  0  0  0  0  0
    1.3730    1.2921    0.3596 C   0  0  0  0  0  0  0  0  0  0  0  0
    2.6986    1.3720   -0.0131 C   0  0  0  0  0  0  0  0  0  0  0  0
    3.5291    0.2749    0.0886 C   0  0  0  0  0  0  0  0  0  0  0  0
    3.0833   -0.9513    0.5642 C   0  0  0  0  0  0  0  0  0  0  0  0
    3.9621   -2.1044    0.6691 C   0  0  0  0  0  0  0  0  0  0  0  0
    4.9953   -2.2850   -0.2228 C   0  0  0  0  0  0  0  0  0  0  0  0
    5.8622   -3.3494   -0.1810 C   0  0  0  0  0  0  0  0  0  0  0  0
    5.7073   -4.2975    0.7967 C   0  0  0  0  0  0  0  0  0  0  0  0
    4.6924   -4.1612    1.7083 C   0  0  0  0  0  0  0  0  0  0  0  0
    3.8392   -3.0836    1.6412 C   0  0  0  0  0  0  0  0  0  0  0  0
    1.7574   -1.0253    0.9353 C   0  0  0  0  0  0  0  0  0  0  0  0
    0.9317    0.0743    0.8317 C   0  0  0  0  0  0  0  0  0  0  0  0
  2  1  1  1
  2  3  1  0
  3  4  1  0
  4  5  3  0
  5  6  1  0
  6  7  1  0
  7  8  1  0
  8  9  1  0
  9 10  1  0
 10 11  1  0
 11 12  1  0
 12 13  1  0
  2 14  1  0
 14 15  2  0
 15 16  1  0
 16 17  2  0
 17 18  1  0
 18 19  2  0
  2 20  1  0
 20 21  2  0
 21 22  1  0
 22 23  2  0
 23 24  1  0
 24 25  2  0
 25 26  1  0
 26 27  2  0
 27 28  1  0
 28 29  2  0
 23 30  1  0
 30 31  2  0
 13  7  1  0
 19 14  1  0
 31 20  1  0
 29 24  1  0
M  END
>  <zinc_id>  (1) 
ZINC000001787224

>  <smiles>  (1) 
O[C@@](CC#CCN1CCCCCC1)(c1ccccc1)c1ccc(-c2ccccc2)cc1

$$$$
