
     RDKit          3D

 31 35  0  0  0  0  0  0  0  0999 V2000
   -4.9579    3.1551   -0.0462 C   0  0  0  0  0  0  0  0  0  0  0  0
   -4.0011    2.3012   -0.5901 O   0  0  0  0  0  0  0  0  0  0  0  0
   -4.1020    0.9190   -0.3279 C   0  0  0  0  0  0  0  0  0  0  0  0
   -5.1245    0.4198    0.4499 C   0  0  0  0  0  0  0  0  0  0  0  0
   -5.2055   -0.9462    0.6957 C   0  0  0  0  0  0  0  0  0  0  0  0
   -4.2586   -1.7985    0.1580 C   0  0  0  0  0  0  0  0  0  0  0  0
   -4.3861   -3.1283    0.4276 O   0  0  0  0  0  0  0  0  0  0  0  0
   -5.3707   -3.7381    1.1935 C   0  0  0  0  0  0  0  0  0  0  0  0
   -3.2663   -1.2894   -0.5995 C   0  0  0  0  0  0  0  0  0  0  0  0
   -2.1748   -2.2743   -1.2119 C   0  0  2  0  0  0  0  0  0  0  0  0
   -1.8432   -3.1341    0.0751 N   0  0  0  0  0  0  0  0  0  0  0  0
   -1.9133   -2.4535    1.2499 C   0  0  0  0  0  0  0  0  0  0  0  0
   -1.5642   -0.9952    1.2933 C   0  0  0  0  0  0  0  0  0  0  0  0
   -0.6846   -0.7347    0.1559 C   0  0  0  0  0  0  0  0  0  0  0  0
   -0.9006   -1.2890   -1.0366 C   0  0  0  0  0  0  0  0  0  0  0  0
   -0.0151   -0.9485   -1.9481 N   0  0  0  0  0  0  0  0  0  0  0  0
    0.8462   -0.1088   -1.3072 C   0  0  0  0  0  0  0  0  0  0  0  0
    1.9740    0.5789   -1.7049 C   0  0  0  0  0  0  0  0  0  0  0  0
    2.6732    1.3796   -0.8273 C   0  0  0  0  0  0  0  0  0  0  0  0
    2.2931    1.5375    0.4766 C   0  0  0  0  0  0  0  0  0  0  0  0
    3.0113    2.3441    1.3304 O   0  0  0  0  0  0  0  0  0  0  0  0
    4.1492    3.0091    0.8559 C   0  0  0  0  0  0  0  0  0  0  0  0
    5.1325    2.0103    0.3955 C   0  0  0  0  0  0  0  0  0  0  0  0
    5.4863    1.8090   -0.9112 C   0  0  0  0  0  0  0  0  0  0  0  0
    6.4199    0.8388   -1.1907 C   0  0  0  0  0  0  0  0  0  0  0  0
    7.0020    0.0732   -0.2068 C   0  0  0  0  0  0  0  0  0  0  0  0
    6.6336    0.2927    1.0815 C   0  0  0  0  0  0  0  0  0  0  0  0
    5.7175    1.2393    1.3950 C   0  0  0  0  0  0  0  0  0  0  0  0
    1.1516    0.8477    0.8979 C   0  0  0  0  0  0  0  0  0  0  0  0
    0.4621    0.0506    0.0099 C   0  0  0  0  0  0  0  0  0  0  0  0
   -3.1839    0.0325   -0.8405 C   0  0  0  0  0  0  0  0  0  0  0  0
  1  2  1  0
  2  3  1  0
  3  4  2  0
  4  5  1  0
  5  6  2  0
  6  7  1  0
  7  8  1  0
  6  9  1  0
 10  9  1  1
 10 11  1  0
 11 12  1  0
 12 13  1  0
 13 14  1  0
 14 15  2  0
 15 16  1  0
 16 17  1  0
 17 18  2  0
 18 19  1  0
 19 20  2  0
 20 21  1  0
 21 22  1  0
 22 23  1  0
 23 24  2  0
 24 25  1  0
 25 26  2  0
 26 27  1  0
 27 28  2  0
 20 29  1  0
 29 30  2  0
  9 31  2  0
 31  3  1  0
 15 10  1  0
 30 17  1  0
 30 14  1  0
 28 23  1  0
M  END
>  <zinc_id>  (1) 
ZINC000003736289

>  <smiles>  (1) 
COc1ccc(OC)c([C@@H]2NCCc3c2[nH]c2ccc(OCc4ccccc4)cc32)c1

$$$$
