
     RDKit          3D

 32 36  0  0  0  0  0  0  0  0999 V2000
    3.0581   -2.5234   -1.0291 O   0  0  0  0  0  0  0  0  0  0  0  0
    3.2250   -1.2913   -0.9346 C   0  0  0  0  0  0  0  0  0  0  0  0
    2.3149   -0.4266   -1.6492 C   0  0  0  0  0  0  0  0  0  0  0  0
    2.5158    0.0102   -2.9318 C   0  0  0  0  0  0  0  0  0  0  0  0
    1.6518    0.8353   -3.6199 C   0  0  0  0  0  0  0  0  0  0  0  0
    0.5101    1.2430   -2.9631 C   0  0  0  0  0  0  0  0  0  0  0  0
    0.2718    0.8372   -1.6994 C   0  0  0  0  0  0  0  0  0  0  0  0
    1.1387    0.0014   -0.9909 C   0  0  0  0  0  0  0  0  0  0  0  0
    0.9767   -0.4495    0.2621 O   0  0  0  0  0  0  0  0  0  0  0  0
    0.1071   -0.3506    1.2659 C   0  0  0  0  0  0  0  0  0  0  0  0
   -0.0511    1.1602    1.8357 C   0  0  1  0  0  0  0  0  0  0  0  0
   -0.5901    1.7557    0.5588 O   0  0  0  0  0  0  0  0  0  0  0  0
   -1.5162    0.8725    2.5447 C   0  0  0  0  0  0  0  0  0  0  0  0
   -2.4459    0.4711    1.5471 N   0  0  0  0  0  0  0  0  0  0  0  0
   -2.6772   -0.8061    1.1994 C   0  0  0  0  0  0  0  0  0  0  0  0
   -2.1633   -2.0314    1.6424 C   0  0  0  0  0  0  0  0  0  0  0  0
   -2.5773   -3.2211    1.1152 C   0  0  0  0  0  0  0  0  0  0  0  0
   -3.5275   -3.2289    0.1180 C   0  0  0  0  0  0  0  0  0  0  0  0
   -4.0446   -2.0302   -0.3304 C   0  0  0  0  0  0  0  0  0  0  0  0
   -3.6267   -0.8274    0.2022 C   0  0  0  0  0  0  0  0  0  0  0  0
   -3.9448    0.4950   -0.0223 C   0  0  0  0  0  0  0  0  0  0  0  0
   -4.8271    1.0989   -0.8974 C   0  0  0  0  0  0  0  0  0  0  0  0
   -4.9614    2.4720   -0.9248 C   0  0  0  0  0  0  0  0  0  0  0  0
   -4.2130    3.2588   -0.0751 C   0  0  0  0  0  0  0  0  0  0  0  0
   -3.3238    2.6946    0.8106 C   0  0  0  0  0  0  0  0  0  0  0  0
   -3.2146    1.3042    0.8101 C   0  0  0  0  0  0  0  0  0  0  0  0
    4.2539   -0.7379   -0.1669 N   0  0  0  0  0  0  0  0  0  0  0  0
    4.3746    0.6796   -0.1124 C   0  0  0  0  0  0  0  0  0  0  0  0
    5.4323    1.2226    0.7644 C   0  0  0  0  0  0  0  0  0  0  0  0
    6.2605    0.2222    1.4844 C   0  0  0  0  0  0  0  0  0  0  0  0
    6.4967   -1.0301    0.6666 C   0  0  0  0  0  0  0  0  0  0  0  0
    5.1165   -1.6800    0.5136 C   0  0  0  0  0  0  0  0  0  0  0  0
  1  2  2  0
  2  3  1  0
  3  4  2  0
  4  5  1  0
  5  6  2  0
  6  7  1  0
  7  8  2  0
  8  9  1  0
  9 10  1  0
 10 11  1  0
 11 12  1  6
 11 13  1  0
 13 14  1  0
 14 15  1  0
 15 16  2  0
 16 17  1  0
 17 18  2  0
 18 19  1  0
 19 20  2  0
 20 21  1  0
 21 22  2  0
 22 23  1  0
 23 24  2  0
 24 25  1  0
 25 26  2  0
  2 27  1  0
 27 28  1  0
 28 29  1  0
 29 30  1  0
 30 31  1  0
 31 32  1  0
  8  3  1  0
 26 14  1  0
 32 27  1  0
 20 15  1  0
 26 21  1  0
M  END
>  <zinc_id>  (1) 
ZINC000002200241

>  <smiles>  (1) 
O=C(c1ccccc1OC[C@@H](O)Cn1c2ccccc2c2ccccc21)N1CCCCC1

$$$$
