
     RDKit          3D

 33 37  0  0  0  0  0  0  0  0999 V2000
   -8.3524   -3.1343   -2.8168 C   0  0  0  0  0  0  0  0  0  0  0  0
   -7.8695   -1.8420   -2.5361 O   0  0  0  0  0  0  0  0  0  0  0  0
   -6.5367   -1.6029   -2.3228 C   0  0  0  0  0  0  0  0  0  0  0  0
   -6.1492   -0.2939   -2.0516 C   0  0  0  0  0  0  0  0  0  0  0  0
   -4.8307    0.0441   -1.8234 C   0  0  0  0  0  0  0  0  0  0  0  0
   -3.8500   -0.9247   -1.8597 C   0  0  0  0  0  0  0  0  0  0  0  0
   -2.4144   -0.5756   -1.6145 C   0  0  0  0  0  0  0  0  0  0  0  0
   -2.2067   -0.7225   -0.1086 C   0  0  0  0  0  0  0  0  0  0  0  0
   -0.8475   -0.4115    0.2690 N   0  0  0  0  0  0  0  0  0  0  0  0
    0.1981   -1.2680    0.3445 C   0  0  0  0  0  0  0  0  0  0  0  0
    0.1243   -2.6512    0.0559 N   0  0  0  0  0  0  0  0  0  0  0  0
    1.3364   -0.6063    0.7395 C   0  0  0  0  0  0  0  0  0  0  0  0
    2.6790   -1.1889    0.9379 C   0  0  0  0  0  0  0  0  0  0  0  0
    2.8561   -2.4190    0.7377 O   0  0  0  0  0  0  0  0  0  0  0  0
    3.7415   -0.3930    1.3416 O   0  0  0  0  0  0  0  0  0  0  0  0
    4.9869   -1.0106    1.5105 C   0  0  0  0  0  0  0  0  0  0  0  0
    6.0634   -0.0489    1.9499 C   0  0  0  0  0  0  0  0  0  0  0  0
    7.4010   -0.7143    2.0494 C   0  0  0  0  0  0  0  0  0  0  0  0
    7.7602   -1.5489    0.8591 C   0  0  0  0  0  0  0  0  0  0  0  0
    6.6726   -2.5330    0.4756 C   0  0  0  0  0  0  0  0  0  0  0  0
    5.3971   -1.7786    0.2534 C   0  0  0  0  0  0  0  0  0  0  0  0
    0.9757    0.7119    0.9142 C   0  0  0  0  0  0  0  0  0  0  0  0
    1.6588    1.7841    1.2837 N   0  0  0  0  0  0  0  0  0  0  0  0
    1.0311    2.9876    1.3737 C   0  0  0  0  0  0  0  0  0  0  0  0
    1.7319    4.0938    1.7541 C   0  0  0  0  0  0  0  0  0  0  0  0
    1.1021    5.3064    1.8454 C   0  0  0  0  0  0  0  0  0  0  0  0
   -0.2395    5.4121    1.5536 C   0  0  0  0  0  0  0  0  0  0  0  0
   -0.9268    4.2781    1.1710 C   0  0  0  0  0  0  0  0  0  0  0  0
   -0.2982    3.0506    1.0764 C   0  0  0  0  0  0  0  0  0  0  0  0
   -1.0078    1.9801    0.7011 N   0  0  0  0  0  0  0  0  0  0  0  0
   -0.3670    0.8058    0.6199 C   0  0  0  0  0  0  0  0  0  0  0  0
   -4.2511   -2.2196   -2.1303 C   0  0  0  0  0  0  0  0  0  0  0  0
   -5.5685   -2.5667   -2.3598 C   0  0  0  0  0  0  0  0  0  0  0  0
  1  2  1  0
  2  3  1  0
  3  4  2  0
  4  5  1  0
  5  6  2  0
  6  7  1  0
  7  8  1  0
  8  9  1  0
  9 10  1  0
 10 11  1  0
 10 12  2  0
 12 13  1  0
 13 14  2  0
 13 15  1  0
 15 16  1  0
 16 17  1  0
 17 18  1  0
 18 19  1  0
 19 20  1  0
 20 21  1  0
 12 22  1  0
 22 23  2  0
 23 24  1  0
 24 25  2  0
 25 26  1  0
 26 27  2  0
 27 28  1  0
 28 29  2  0
 29 30  1  0
 30 31  2  0
  6 32  1  0
 32 33  2  0
 33  3  1  0
 31  9  1  0
 21 16  1  0
 31 22  1  0
 29 24  1  0
M  END
>  <zinc_id>  (1) 
ZINC000002445244

>  <smiles>  (1) 
COc1ccc(CCn2c(N)c(C(=O)OC3CCCCC3)c3nc4ccccc4nc32)cc1

$$$$
