
     RDKit          3D

 34 38  0  0  0  0  0  0  0  0999 V2000
   -0.1784   -2.4253   -2.1274 C   0  0  0  0  0  0  0  0  0  0  0  0
    0.6010   -1.6530   -1.4022 C   0  0  0  0  0  0  0  0  0  0  0  0
    0.3449   -0.1839   -1.1804 C   0  0  0  0  0  0  0  0  0  0  0  0
    0.2073   -0.0254    0.2518 N   0  0  0  0  0  0  0  0  0  0  0  0
   -0.9956   -0.1720    0.8977 C   0  0  0  0  0  0  0  0  0  0  0  0
   -2.5237   -0.5166    0.0801 S   0  0  0  0  0  0  0  0  0  0  0  0
   -2.8840   -2.2592   -0.1104 C   0  0  0  0  0  0  0  0  0  0  0  0
   -4.1448   -2.4919   -0.7749 C   0  0  0  0  0  0  0  0  0  0  0  0
   -4.3600   -3.6634   -1.2726 O   0  0  0  0  0  0  0  0  0  0  0  0
   -5.2002   -1.5295   -0.9398 C   0  0  0  0  0  0  0  0  0  0  0  0
   -6.1148   -1.4843   -2.0049 C   0  0  0  0  0  0  0  0  0  0  0  0
   -6.9157   -0.4332   -1.8350 N   0  0  0  0  0  0  0  0  0  0  0  0
   -6.6119    0.2373   -0.7310 C   0  0  0  0  0  0  0  0  0  0  0  0
   -7.1335    1.3545   -0.1158 C   0  0  0  0  0  0  0  0  0  0  0  0
   -6.6305    1.8519    1.0768 C   0  0  0  0  0  0  0  0  0  0  0  0
   -5.5699    1.1876    1.6483 C   0  0  0  0  0  0  0  0  0  0  0  0
   -5.0635    0.0813    1.0248 C   0  0  0  0  0  0  0  0  0  0  0  0
   -5.5353   -0.4475   -0.1654 C   0  0  0  0  0  0  0  0  0  0  0  0
   -0.7271    0.0033    2.1965 N   0  0  0  0  0  0  0  0  0  0  0  0
    0.5529    0.2420    2.3358 N   0  0  0  0  0  0  0  0  0  0  0  0
    1.1800    0.2317    1.1013 C   0  0  0  0  0  0  0  0  0  0  0  0
    2.6219    0.4343    0.9504 C   0  0  0  0  0  0  0  0  0  0  0  0
    3.4569    0.6112    2.0389 N   0  0  0  0  0  0  0  0  0  0  0  0
    4.7144    0.7872    1.6475 C   0  0  0  0  0  0  0  0  0  0  0  0
    5.8769    0.9936    2.3499 C   0  0  0  0  0  0  0  0  0  0  0  0
    7.0955    1.1491    1.6847 C   0  0  0  0  0  0  0  0  0  0  0  0
    7.1617    1.0992    0.3106 C   0  0  0  0  0  0  0  0  0  0  0  0
    8.3759    1.2541   -0.3403 O   0  0  0  0  0  0  0  0  0  0  0  0
    8.4646    1.2041   -1.7531 C   0  0  0  0  0  0  0  0  0  0  0  0
    5.9716    0.8895   -0.3758 C   0  0  0  0  0  0  0  0  0  0  0  0
    4.7695    0.7365    0.2799 C   0  0  0  0  0  0  0  0  0  0  0  0
    3.4406    0.5170   -0.1167 C   0  0  0  0  0  0  0  0  0  0  0  0
    3.0914    0.5014   -1.5509 C   0  0  0  0  0  0  0  0  0  0  0  0
    2.6620    1.9183   -1.9687 C   0  0  0  0  0  0  0  0  0  0  0  0
  1  2  2  0
  2  3  1  0
  3  4  1  0
  4  5  1  0
  5  6  1  0
  6  7  1  0
  7  8  1  0
  8  9  2  0
  8 10  1  0
 10 11  2  0
 11 12  1  0
 12 13  1  0
 13 14  2  0
 14 15  1  0
 15 16  2  0
 16 17  1  0
 17 18  2  0
  5 19  2  0
 19 20  1  0
 20 21  2  0
 21 22  1  0
 22 23  1  0
 23 24  1  0
 24 25  2  0
 25 26  1  0
 26 27  2  0
 27 28  1  0
 28 29  1  0
 27 30  1  0
 30 31  2  0
 31 32  1  0
 32 33  1  0
 33 34  1  0
 21  4  1  0
 32 22  2  0
 18 10  1  0
 31 24  1  0
 18 13  1  0
M  END
>  <zinc_id>  (1) 
ZINC000001144590

>  <smiles>  (1) 
C=CCn1c(SCC(=O)c2c[nH]c3ccccc23)nnc1-c1[nH]c2ccc(OC)cc2c1CC

$$$$
