
     RDKit          3D

 33 37  0  0  0  0  0  0  0  0999 V2000
   -7.1109    2.9658   -1.0187 C   0  0  0  0  0  0  0  0  0  0  0  0
   -6.9917    2.4354   -2.4482 C   0  0  0  0  0  0  0  0  0  0  0  0
   -5.7195    3.0462   -3.0084 C   0  0  0  0  0  0  0  0  0  0  0  0
   -6.8892    0.9128   -2.4005 C   0  0  0  0  0  0  0  0  0  0  0  0
   -5.7091    0.4903   -1.6298 C   0  0  0  0  0  0  0  0  0  0  0  0
   -5.7420    0.2655   -0.2608 C   0  0  0  0  0  0  0  0  0  0  0  0
   -4.5992   -0.1345    0.4129 C   0  0  0  0  0  0  0  0  0  0  0  0
   -3.4269   -0.3154   -0.2452 C   0  0  0  0  0  0  0  0  0  0  0  0
   -2.1831   -0.7341    0.3877 C   0  0  0  0  0  0  0  0  0  0  0  0
   -1.0151   -0.9060   -0.3206 C   0  0  0  0  0  0  0  0  0  0  0  0
    0.1636   -1.3007    0.2634 C   0  0  0  0  0  0  0  0  0  0  0  0
    1.3990   -1.4852   -0.4811 C   0  0  0  0  0  0  0  0  0  0  0  0
    1.3459   -1.2481   -1.7386 O   0  0  0  0  0  0  0  0  0  0  0  0
    2.6087   -1.8964    0.0855 N   0  0  0  0  0  0  0  0  0  0  0  0
    3.7759   -2.0408   -0.7921 C   0  0  0  0  0  0  0  0  0  0  0  0
    4.2757   -0.6745   -1.0755 C   0  0  0  0  0  0  0  0  0  0  0  0
    3.8063    0.1423   -2.0660 C   0  0  0  0  0  0  0  0  0  0  0  0
    4.3521    1.4027   -2.2445 C   0  0  0  0  0  0  0  0  0  0  0  0
    5.3803    1.8838   -1.4414 C   0  0  0  0  0  0  0  0  0  0  0  0
    5.8494    1.0565   -0.4450 C   0  0  0  0  0  0  0  0  0  0  0  0
    5.3046   -0.2142   -0.2591 C   0  0  0  0  0  0  0  0  0  0  0  0
    6.8529    1.7492    0.2044 O   0  0  0  0  0  0  0  0  0  0  0  0
    7.2248    2.8587   -0.6194 C   0  0  0  0  0  0  0  0  0  0  0  0
    6.0802    3.0894   -1.4227 O   0  0  0  0  0  0  0  0  0  0  0  0
    0.1737   -1.5345    1.6220 C   0  0  0  0  0  0  0  0  0  0  0  0
    1.3052   -1.9306    2.2869 C   0  0  0  0  0  0  0  0  0  0  0  0
    1.3590   -2.1742    3.6407 C   0  0  0  0  0  0  0  0  0  0  0  0
    0.1685   -1.9960    4.3447 C   0  0  0  0  0  0  0  0  0  0  0  0
   -0.9770   -1.5998    3.6982 C   0  0  0  0  0  0  0  0  0  0  0  0
   -1.0005   -1.3656    2.3563 C   0  0  0  0  0  0  0  0  0  0  0  0
   -2.1300   -0.9723    1.7083 N   0  0  0  0  0  0  0  0  0  0  0  0
   -3.4078   -0.0868   -1.6150 C   0  0  0  0  0  0  0  0  0  0  0  0
   -4.5238    0.3109   -2.3136 C   0  0  0  0  0  0  0  0  0  0  0  0
  1  2  1  0
  2  3  1  0
  2  4  1  0
  4  5  1  0
  5  6  2  0
  6  7  1  0
  7  8  2  0
  8  9  1  0
  9 10  2  0
 10 11  1  0
 11 12  1  0
 12 13  2  0
 12 14  1  0
 14 15  1  0
 15 16  1  0
 16 17  2  0
 17 18  1  0
 18 19  2  0
 19 20  1  0
 20 21  2  0
 20 22  1  0
 22 23  1  0
 23 24  1  0
 11 25  2  0
 25 26  1  0
 26 27  2  0
 27 28  1  0
 28 29  2  0
 29 30  1  0
 30 31  2  0
  8 32  1  0
 32 33  2  0
 33  5  1  0
 31  9  1  0
 21 16  1  0
 30 25  1  0
 24 19  1  0
M  END
>  <zinc_id>  (1) 
ZINC000000659387

>  <smiles>  (1) 
CC(C)Cc1ccc(-c2cc(C(=O)NCc3ccc4c(c3)OCO4)c3ccccc3n2)cc1

$$$$
