
     RDKit          3D

 31 34  0  0  0  0  0  0  0  0999 V2000
   -4.2172   -5.5086   -1.6774 C   0  0  0  0  0  0  0  0  0  0  0  0
   -4.8810   -4.2601   -1.7428 O   0  0  0  0  0  0  0  0  0  0  0  0
   -4.3717   -3.1572   -1.0637 C   0  0  0  0  0  0  0  0  0  0  0  0
   -3.2146   -3.2307   -0.3076 C   0  0  0  0  0  0  0  0  0  0  0  0
   -2.7406   -2.1100    0.3527 C   0  0  0  0  0  0  0  0  0  0  0  0
   -3.3681   -0.8839    0.3038 C   0  0  0  0  0  0  0  0  0  0  0  0
   -2.8665    0.2592    0.9865 N   0  0  0  0  0  0  0  0  0  0  0  0
   -1.6682    0.1748    1.7729 C   0  0  0  0  0  0  0  0  0  0  0  0
   -0.4877   -0.2551    0.9639 C   0  0  0  0  0  0  0  0  0  0  0  0
    0.0081   -1.4997    0.8508 N   0  0  0  0  0  0  0  0  0  0  0  0
    1.0558   -1.4706    0.0426 N   0  0  0  0  0  0  0  0  0  0  0  0
    1.2499   -0.2059   -0.3768 C   0  0  0  0  0  0  0  0  0  0  0  0
    2.5470    0.3686   -1.4941 S   0  0  0  0  0  0  0  0  0  0  0  0
    3.9700    0.8147   -0.4658 C   0  0  0  0  0  0  0  0  0  0  0  0
    4.4905   -0.4069    0.1615 C   0  0  0  0  0  0  0  0  0  0  0  0
    5.4548   -1.1244   -0.5071 C   0  0  0  0  0  0  0  0  0  0  0  0
    5.9839   -2.2684    0.0147 C   0  0  0  0  0  0  0  0  0  0  0  0
    5.5522   -2.7271    1.2386 C   0  0  0  0  0  0  0  0  0  0  0  0
    4.5895   -2.0161    1.9121 C   0  0  0  0  0  0  0  0  0  0  0  0
    4.0553   -0.8656    1.3903 C   0  0  0  0  0  0  0  0  0  0  0  0
    0.2898    0.5280    0.2011 N   0  0  0  0  0  0  0  0  0  0  0  0
    0.1131    1.9302    0.0329 C   0  0  0  0  0  0  0  0  0  0  0  0
   -1.0487    2.5327    0.3959 C   0  0  0  0  0  0  0  0  0  0  0  0
   -1.1840    3.9002    0.2152 C   0  0  0  0  0  0  0  0  0  0  0  0
   -0.1879    4.6706   -0.3173 C   0  0  0  0  0  0  0  0  0  0  0  0
   -0.2763    6.0390   -0.5168 O   0  0  0  0  0  0  0  0  0  0  0  0
   -1.4214    6.7978   -0.1871 C   0  0  0  0  0  0  0  0  0  0  0  0
    0.9769    4.0345   -0.6758 C   0  0  0  0  0  0  0  0  0  0  0  0
    1.1284    2.6916   -0.5057 C   0  0  0  0  0  0  0  0  0  0  0  0
   -4.5294   -0.8187   -0.4576 C   0  0  0  0  0  0  0  0  0  0  0  0
   -5.0018   -1.9329   -1.1147 C   0  0  0  0  0  0  0  0  0  0  0  0
  1  2  1  0
  2  3  1  0
  3  4  2  0
  4  5  1  0
  5  6  2  0
  6  7  1  0
  7  8  1  0
  8  9  1  0
  9 10  2  0
 10 11  1  0
 11 12  2  0
 12 13  1  0
 13 14  1  0
 14 15  1  0
 15 16  2  0
 16 17  1  0
 17 18  2  0
 18 19  1  0
 19 20  2  0
 12 21  1  0
 21 22  1  0
 22 23  2  0
 23 24  1  0
 24 25  2  0
 25 26  1  0
 26 27  1  0
 25 28  1  0
 28 29  2  0
  6 30  1  0
 30 31  2  0
 31  3  1  0
 21  9  1  0
 29 22  1  0
 20 15  1  0
M  END
>  <zinc_id>  (1) 
ZINC000000925396

>  <smiles>  (1) 
COc1ccc(NCc2nnc(SCc3ccccc3)n2-c2ccc(OC)cc2)cc1

$$$$
