
     RDKit          3D

 31 33  0  0  0  0  0  0  0  0999 V2000
    1.8530   -2.9004   -1.9343 C   0  0  0  0  0  0  0  0  0  0  0  0
    2.8072   -1.9424   -1.5184 O   0  0  0  0  0  0  0  0  0  0  0  0
    2.3809   -0.9509   -0.6380 C   0  0  0  0  0  0  0  0  0  0  0  0
    1.0736   -0.8937   -0.1790 C   0  0  0  0  0  0  0  0  0  0  0  0
    0.6555    0.0824    0.6871 C   0  0  0  0  0  0  0  0  0  0  0  0
   -0.7332    0.1056    1.1463 C   0  0  0  0  0  0  0  0  0  0  0  0
   -1.2049    0.9697    1.9455 N   0  0  0  0  0  0  0  0  0  0  0  0
   -2.5219    1.0123    2.3964 N   0  0  0  0  0  0  0  0  0  0  0  0
   -3.5748    0.2835    1.6833 C   0  0  0  0  0  0  0  0  0  0  0  0
   -3.1199   -0.3296    0.6854 O   0  0  0  0  0  0  0  0  0  0  0  0
   -4.9385    0.3374    2.1643 C   0  0  0  0  0  0  0  0  0  0  0  0
   -5.9306   -0.3365    1.5725 O   0  0  0  0  0  0  0  0  0  0  0  0
   -6.3477   -0.2255    0.2648 C   0  0  0  0  0  0  0  0  0  0  0  0
   -6.0117   -1.0615   -0.7658 C   0  0  0  0  0  0  0  0  0  0  0  0
   -5.1625   -2.2699   -0.4688 C   0  0  0  0  0  0  0  0  0  0  0  0
   -6.4843   -0.8429   -2.0420 C   0  0  0  0  0  0  0  0  0  0  0  0
   -7.3036    0.2259   -2.2783 C   0  0  0  0  0  0  0  0  0  0  0  0
   -7.6821    1.1044   -1.2854 C   0  0  0  0  0  0  0  0  0  0  0  0
   -7.1949    0.8608   -0.0279 C   0  0  0  0  0  0  0  0  0  0  0  0
   -7.5621    1.7746    1.1119 C   0  0  0  0  0  0  0  0  0  0  0  0
    1.5899    1.0142    1.0897 C   0  0  0  0  0  0  0  0  0  0  0  0
    2.9048    0.9653    0.6346 C   0  0  0  0  0  0  0  0  0  0  0  0
    3.3238   -0.0160   -0.2358 C   0  0  0  0  0  0  0  0  0  0  0  0
    4.6246   -0.0939   -0.7081 O   0  0  0  0  0  0  0  0  0  0  0  0
    5.5611    0.8834   -0.2721 C   0  0  0  0  0  0  0  0  0  0  0  0
    6.8932    0.6521   -0.8697 C   0  0  0  0  0  0  0  0  0  0  0  0
    7.2950    1.2059   -2.0742 C   0  0  0  0  0  0  0  0  0  0  0  0
    8.5745    0.9113   -2.5293 C   0  0  0  0  0  0  0  0  0  0  0  0
    9.4285    0.0957   -1.8166 C   0  0  0  0  0  0  0  0  0  0  0  0
    9.0389   -0.4565   -0.6238 C   0  0  0  0  0  0  0  0  0  0  0  0
    7.7682   -0.1645   -0.1708 C   0  0  0  0  0  0  0  0  0  0  0  0
  1  2  1  0
  2  3  1  0
  3  4  2  0
  4  5  1  0
  5  6  1  0
  6  7  2  0
  7  8  1  0
  8  9  1  0
  9 10  2  0
  9 11  1  0
 11 12  1  0
 12 13  1  0
 13 14  2  0
 14 15  1  0
 14 16  1  0
 16 17  2  0
 17 18  1  0
 18 19  2  0
 19 20  1  0
  5 21  2  0
 21 22  1  0
 22 23  2  0
 23 24  1  0
 24 25  1  0
 25 26  1  0
 26 27  2  0
 27 28  1  0
 28 29  2  0
 29 30  1  0
 30 31  2  0
 23  3  1  0
 31 26  1  0
 19 13  1  0
M  END
>  <zinc_id>  (1) 
ZINC000001103481

>  <smiles>  (1) 
COc1cc(/C=N/NC(=O)COc2c(C)cccc2C)ccc1OCc1ccccc1

$$$$
