
     RDKit          3D

 30 32  0  0  0  0  0  0  0  0999 V2000
    6.5405    2.0609    0.8129 C   0  0  0  0  0  0  0  0  0  0  0  0
    6.6089    1.8151    2.1208 C   0  0  0  0  0  0  0  0  0  0  0  0
    5.7066    0.8387    2.7527 C   0  0  0  0  0  0  0  0  0  0  0  0
    4.8205    0.2561    1.7798 N   0  0  0  0  0  0  0  0  0  0  0  0
    5.0705   -0.8583    1.0622 C   0  0  0  0  0  0  0  0  0  0  0  0
    6.3297   -1.6630    1.1776 C   0  0  0  0  0  0  0  0  0  0  0  0
    3.9919   -1.0983    0.2425 C   0  0  0  0  0  0  0  0  0  0  0  0
    3.0541   -0.0951    0.4698 C   0  0  0  0  0  0  0  0  0  0  0  0
    1.7610    0.0905   -0.1454 C   0  0  0  0  0  0  0  0  0  0  0  0
    1.0538    1.0630    0.1969 O   0  0  0  0  0  0  0  0  0  0  0  0
    1.2667   -0.8382   -1.1592 C   0  0  0  0  0  0  0  0  0  0  0  0
   -0.0026   -0.5230   -1.6560 O   0  0  0  0  0  0  0  0  0  0  0  0
   -1.0782   -0.4713   -0.7964 C   0  0  0  0  0  0  0  0  0  0  0  0
   -0.8818   -0.7107    0.4123 O   0  0  0  0  0  0  0  0  0  0  0  0
   -2.4652   -0.1480   -1.2118 C   0  0  0  0  0  0  0  0  0  0  0  0
   -2.5188    0.0968   -2.5975 O   0  0  0  0  0  0  0  0  0  0  0  0
   -3.0155    0.9841   -0.4329 C   0  0  0  0  0  0  0  0  0  0  0  0
   -4.2675    1.4899   -0.7083 C   0  0  0  0  0  0  0  0  0  0  0  0
   -4.7911    2.5475    0.0135 C   0  0  0  0  0  0  0  0  0  0  0  0
   -4.0862    3.1426    1.0390 C   0  0  0  0  0  0  0  0  0  0  0  0
   -2.8330    2.6406    1.3189 C   0  0  0  0  0  0  0  0  0  0  0  0
   -2.3232    1.5946    0.5999 C   0  0  0  0  0  0  0  0  0  0  0  0
   -3.2754   -1.3902   -0.9978 C   0  0  0  0  0  0  0  0  0  0  0  0
   -4.5806   -1.3512   -1.4517 C   0  0  0  0  0  0  0  0  0  0  0  0
   -5.4229   -2.4450   -1.3066 C   0  0  0  0  0  0  0  0  0  0  0  0
   -4.8860   -3.5557   -0.6913 C   0  0  0  0  0  0  0  0  0  0  0  0
   -3.5971   -3.6209   -0.2326 C   0  0  0  0  0  0  0  0  0  0  0  0
   -2.7696   -2.5096   -0.3896 C   0  0  0  0  0  0  0  0  0  0  0  0
    3.6113    0.7186    1.4282 C   0  0  0  0  0  0  0  0  0  0  0  0
    2.9791    1.9396    2.0040 C   0  0  0  0  0  0  0  0  0  0  0  0
  1  2  2  0
  2  3  1  0
  3  4  1  0
  4  5  1  0
  5  6  1  0
  5  7  2  0
  7  8  1  0
  8  9  1  0
  9 10  2  0
  9 11  1  0
 11 12  1  0
 12 13  1  0
 13 14  2  0
 13 15  1  0
 15 16  1  0
 15 17  1  0
 17 18  2  0
 18 19  1  0
 19 20  2  0
 20 21  1  0
 21 22  2  0
 15 23  1  0
 23 24  2  0
 24 25  1  0
 25 26  2  0
 26 27  1  0
 27 28  2  0
  8 29  2  0
 29 30  1  0
 29  4  1  0
 22 17  1  0
 28 23  1  0
M  END
>  <zinc_id>  (1) 
ZINC000002656792

>  <smiles>  (1) 
C=CCn1c(C)cc(C(=O)COC(=O)C(O)(c2ccccc2)c2ccccc2)c1C

$$$$
