
     RDKit          3D

 31 34  0  0  0  0  0  0  0  0999 V2000
   -6.6207    3.7760    1.9614 C   0  0  0  0  0  0  0  0  0  0  0  0
   -7.2940    2.5687    2.5573 C   0  0  0  0  0  0  0  0  0  0  0  0
   -7.2813    1.4698    1.6906 O   0  0  0  0  0  0  0  0  0  0  0  0
   -6.0991    0.9316    1.2445 C   0  0  0  0  0  0  0  0  0  0  0  0
   -6.0701   -0.1411    0.3981 C   0  0  0  0  0  0  0  0  0  0  0  0
   -4.8645   -0.6499   -0.0252 C   0  0  0  0  0  0  0  0  0  0  0  0
   -3.6594   -0.1242    0.3671 C   0  0  0  0  0  0  0  0  0  0  0  0
   -2.4220   -0.7089   -0.1166 C   0  0  0  0  0  0  0  0  0  0  0  0
   -1.1886   -0.1780    0.2794 C   0  0  0  0  0  0  0  0  0  0  0  0
   -0.0377   -0.7567   -0.1980 C   0  0  0  0  0  0  0  0  0  0  0  0
    1.2955   -0.2517    0.1757 C   0  0  0  0  0  0  0  0  0  0  0  0
    1.3790    0.7332    0.9509 O   0  0  0  0  0  0  0  0  0  0  0  0
    2.4856   -0.8325   -0.3042 N   0  0  0  0  0  0  0  0  0  0  0  0
    3.7682   -0.3832    0.0266 N   0  0  0  0  0  0  0  0  0  0  0  0
    4.1785    0.8212   -0.2032 C   0  0  0  0  0  0  0  0  0  0  0  0
    3.2294    1.7472   -0.8461 C   0  0  0  0  0  0  0  0  0  0  0  0
    5.5343    1.2518    0.1605 C   0  0  0  0  0  0  0  0  0  0  0  0
    6.0338    2.5174   -0.0558 C   0  0  0  0  0  0  0  0  0  0  0  0
    7.3473    2.5355    0.4228 C   0  0  0  0  0  0  0  0  0  0  0  0
    7.5546    1.2566    0.9038 C   0  0  0  0  0  0  0  0  0  0  0  0
    8.8425    0.8305    1.5134 C   0  0  0  0  0  0  0  0  0  0  0  0
    6.4595    0.5372    0.7276 O   0  0  0  0  0  0  0  0  0  0  0  0
   -0.1751   -1.8356   -1.0463 C   0  0  0  0  0  0  0  0  0  0  0  0
    0.9565   -2.4304   -1.5361 C   0  0  0  0  0  0  0  0  0  0  0  0
    0.9054   -3.5251   -2.3984 C   0  0  0  0  0  0  0  0  0  0  0  0
   -0.3062   -4.0363   -2.7793 C   0  0  0  0  0  0  0  0  0  0  0  0
   -1.4607   -3.4476   -2.2939 C   0  0  0  0  0  0  0  0  0  0  0  0
   -1.3912   -2.3526   -1.4317 C   0  0  0  0  0  0  0  0  0  0  0  0
   -2.4909   -1.7613   -0.9452 N   0  0  0  0  0  0  0  0  0  0  0  0
   -3.7005    0.9582    1.2214 C   0  0  0  0  0  0  0  0  0  0  0  0
   -4.9081    1.4801    1.6551 C   0  0  0  0  0  0  0  0  0  0  0  0
  1  2  1  0
  2  3  1  0
  3  4  1  0
  4  5  2  0
  5  6  1  0
  6  7  2  0
  7  8  1  0
  8  9  2  0
  9 10  1  0
 10 11  1  0
 11 12  2  0
 11 13  1  0
 13 14  1  0
 14 15  2  0
 15 16  1  0
 15 17  1  0
 17 18  2  0
 18 19  1  0
 19 20  2  0
 20 21  1  0
 20 22  1  0
 10 23  2  0
 23 24  1  0
 24 25  2  0
 25 26  1  0
 26 27  2  0
 27 28  1  0
 28 29  2  0
  7 30  1  0
 30 31  2  0
 31  4  1  0
 29  8  1  0
 22 17  1  0
 28 23  1  0
M  END
>  <zinc_id>  (1) 
ZINC000001003398

>  <smiles>  (1) 
CCOc1ccc(-c2cc(C(=O)N/N=C(\C)c3ccc(C)o3)c3ccccc3n2)cc1

$$$$
