
     RDKit          3D

 33 36  0  0  0  0  0  0  0  0999 V2000
   -5.6184   -0.0709   -3.3124 C   0  0  0  0  0  0  0  0  0  0  0  0
   -4.3715    0.6894   -2.8465 C   0  0  0  0  0  0  0  0  0  0  0  0
   -3.7616   -0.1344   -1.8441 O   0  0  0  0  0  0  0  0  0  0  0  0
   -2.6167    0.2095   -1.1869 C   0  0  0  0  0  0  0  0  0  0  0  0
   -2.0385    1.2932   -1.4445 O   0  0  0  0  0  0  0  0  0  0  0  0
   -2.0071   -0.6532   -0.1594 C   0  0  0  0  0  0  0  0  0  0  0  0
   -0.8603   -0.4109    0.5650 C   0  0  0  0  0  0  0  0  0  0  0  0
   -0.0125    0.7800    0.4452 C   0  0  0  0  0  0  0  0  0  0  0  0
   -0.2289    1.9043    1.2127 C   0  0  0  0  0  0  0  0  0  0  0  0
    0.5716    3.0384    1.1044 C   0  0  0  0  0  0  0  0  0  0  0  0
    0.2575    4.1958    1.9736 C   0  0  0  0  0  0  0  0  0  0  0  0
   -0.3865    5.3276    1.2221 C   0  0  0  0  0  0  0  0  0  0  0  0
   -0.4936    3.8057    3.2150 C   0  0  0  0  0  0  0  0  0  0  0  0
    1.6006    3.0379    0.2128 C   0  0  0  0  0  0  0  0  0  0  0  0
    1.8438    1.9463   -0.5610 C   0  0  0  0  0  0  0  0  0  0  0  0
    1.0384    0.8087   -0.4503 C   0  0  0  0  0  0  0  0  0  0  0  0
    1.3151   -0.2877   -1.2558 O   0  0  0  0  0  0  0  0  0  0  0  0
    2.3391   -0.3822   -2.1909 C   0  0  0  0  0  0  0  0  0  0  0  0
    3.6993   -0.2240   -1.6195 C   0  0  0  0  0  0  0  0  0  0  0  0
    4.3875   -1.3337   -1.1145 C   0  0  0  0  0  0  0  0  0  0  0  0
    5.6455   -1.2181   -0.5824 C   0  0  0  0  0  0  0  0  0  0  0  0
    6.2879   -0.0005   -0.5220 C   0  0  0  0  0  0  0  0  0  0  0  0
    5.6284    1.1067   -1.0139 C   0  0  0  0  0  0  0  0  0  0  0  0
    4.3733    0.9748   -1.5418 C   0  0  0  0  0  0  0  0  0  0  0  0
   -0.6867   -1.4951    1.4008 C   0  0  0  0  0  0  0  0  0  0  0  0
    0.3916   -1.6767    2.3472 C   0  0  0  0  0  0  0  0  0  0  0  0
    0.4459   -2.7008    3.0523 O   0  0  0  0  0  0  0  0  0  0  0  0
   -1.6870   -2.3797    1.2050 N   0  0  0  0  0  0  0  0  0  0  0  0
   -1.9739   -3.5862    1.7660 C   0  0  0  0  0  0  0  0  0  0  0  0
   -3.0789   -4.3062    1.3831 C   0  0  0  0  0  0  0  0  0  0  0  0
   -3.9141   -3.8014    0.4141 C   0  0  0  0  0  0  0  0  0  0  0  0
   -3.6108   -2.5793   -0.1444 C   0  0  0  0  0  0  0  0  0  0  0  0
   -2.4786   -1.8771    0.2710 C   0  0  0  0  0  0  0  0  0  0  0  0
  1  2  1  0
  2  3  1  0
  3  4  1  0
  4  5  2  0
  4  6  1  0
  6  7  1  0
  7  8  1  0
  8  9  2  0
  9 10  1  0
 10 11  1  0
 11 12  1  0
 11 13  1  0
 10 14  2  0
 14 15  1  0
 15 16  2  0
 16 17  1  0
 17 18  1  0
 18 19  1  0
 19 20  2  0
 20 21  1  0
 21 22  2  0
 22 23  1  0
 23 24  2  0
  7 25  2  0
 25 26  1  0
 26 27  2  0
 25 28  1  0
 28 29  1  0
 29 30  2  0
 30 31  1  0
 31 32  2  0
 32 33  1  0
 33  6  2  0
 16  8  1  0
 24 19  1  0
 33 28  1  0
M  END
>  <zinc_id>  (1) 
ZINC000003673877

>  <smiles>  (1) 
CCOC(=O)c1c(-c2cc(C(C)C)ccc2OCc2ccccc2)c(C=O)n2ccccc12

$$$$
