
     RDKit          3D

 31 34  0  0  0  0  0  0  0  0999 V2000
   -7.9538    1.5131    1.0896 C   0  0  0  0  0  0  0  0  0  0  0  0
   -7.4142    1.1953   -0.2770 C   0  0  0  0  0  0  0  0  0  0  0  0
   -5.8034    1.4210   -0.2104 C   0  0  2  0  0  0  0  0  0  0  0  0
   -5.5718    1.0008   -1.7919 C   0  0  0  0  0  0  0  0  0  0  0  0
   -5.4005    0.0393    0.3873 C   0  0  0  0  0  0  0  0  0  0  0  0
   -6.3476   -0.8027    0.8068 C   0  0  0  0  0  0  0  0  0  0  0  0
   -6.0529   -2.0634    1.3659 C   0  0  0  0  0  0  0  0  0  0  0  0
   -4.7113   -2.3637    1.4473 C   0  0  0  0  0  0  0  0  0  0  0  0
   -3.7415   -1.5195    1.0254 C   0  0  0  0  0  0  0  0  0  0  0  0
   -4.0806   -0.2994    0.4868 C   0  0  0  0  0  0  0  0  0  0  0  0
   -3.0449    0.6033    0.0411 N   0  0  0  0  0  0  0  0  0  0  0  0
   -1.6950    0.1810    0.1489 C   0  0  0  0  0  0  0  0  0  0  0  0
   -1.3997   -0.9439    0.6152 O   0  0  0  0  0  0  0  0  0  0  0  0
   -0.5940    1.0697   -0.2926 C   0  0  0  0  0  0  0  0  0  0  0  0
    0.6462    0.4283   -0.1103 O   0  0  0  0  0  0  0  0  0  0  0  0
    1.7996    1.1141   -0.4563 C   0  0  0  0  0  0  0  0  0  0  0  0
    1.7368    2.2673   -0.9139 O   0  0  0  0  0  0  0  0  0  0  0  0
    3.0764    0.4367   -0.2637 C   0  0  0  0  0  0  0  0  0  0  0  0
    3.7362    0.5585    0.9364 C   0  0  0  0  0  0  0  0  0  0  0  0
    3.2323    1.3012    1.9736 C   0  0  0  0  0  0  0  0  0  0  0  0
    3.9007    1.4242    3.1914 C   0  0  0  0  0  0  0  0  0  0  0  0
    5.0956    0.7719    3.3268 C   0  0  0  0  0  0  0  0  0  0  0  0
    5.6245    0.0188    2.2998 C   0  0  0  0  0  0  0  0  0  0  0  0
    4.9447   -0.0940    1.0900 C   0  0  0  0  0  0  0  0  0  0  0  0
    5.4429   -0.8411    0.0361 C   0  0  0  0  0  0  0  0  0  0  0  0
    4.7825   -0.9625   -1.1648 C   0  0  0  0  0  0  0  0  0  0  0  0
    5.2922   -1.7131   -2.2145 C   0  0  0  0  0  0  0  0  0  0  0  0
    4.6100   -1.8193   -3.4124 C   0  0  0  0  0  0  0  0  0  0  0  0
    3.4082   -1.1772   -3.5805 C   0  0  0  0  0  0  0  0  0  0  0  0
    2.9081   -0.4309   -2.5274 C   0  0  0  0  0  0  0  0  0  0  0  0
    3.5743   -0.3139   -1.3261 C   0  0  0  0  0  0  0  0  0  0  0  0
  1  2  1  0
  2  3  1  0
  3  4  1  6
  3  5  1  0
  5  6  2  0
  6  7  1  0
  7  8  2  0
  8  9  1  0
  9 10  2  0
 10 11  1  0
 11 12  1  0
 12 13  2  0
 12 14  1  0
 14 15  1  0
 15 16  1  0
 16 17  2  0
 16 18  1  0
 18 19  1  0
 19 20  2  0
 20 21  1  0
 21 22  2  0
 22 23  1  0
 23 24  2  0
 24 25  1  0
 25 26  2  0
 26 27  1  0
 27 28  2  0
 28 29  1  0
 29 30  2  0
 30 31  1  0
 10  5  1  0
 31 18  2  0
 24 19  1  0
 31 26  1  0
M  END
>  <zinc_id>  (1) 
ZINC000002655414

>  <smiles>  (1) 
CC[C@H](C)c1ccccc1NC(=O)COC(=O)c1c2ccccc2cc2ccccc12

$$$$
