
     RDKit          3D

 31 34  0  0  0  0  0  0  0  0999 V2000
    9.0154   -0.1538    1.0557 C   0  0  0  0  0  0  0  0  0  0  0  0
    7.6890   -0.9041    0.9639 C   0  0  0  0  0  0  0  0  0  0  0  0
    7.1889   -0.9607   -0.4678 C   0  0  0  0  0  0  0  0  0  0  0  0
    6.9702    0.4150   -1.0323 C   0  0  0  0  0  0  0  0  0  0  0  0
    6.0206    1.1768   -0.3142 O   0  0  0  0  0  0  0  0  0  0  0  0
    4.6985    0.7570   -0.1658 C   0  0  0  0  0  0  0  0  0  0  0  0
    4.2606   -0.4283   -0.7164 C   0  0  0  0  0  0  0  0  0  0  0  0
    2.9449   -0.8403   -0.5659 C   0  0  0  0  0  0  0  0  0  0  0  0
    2.0376   -0.0722    0.1407 C   0  0  0  0  0  0  0  0  0  0  0  0
    0.7218   -0.4935    0.2853 O   0  0  0  0  0  0  0  0  0  0  0  0
    0.2419   -1.6996   -0.2655 C   0  0  0  0  0  0  0  0  0  0  0  0
   -1.2129   -1.8559    0.0650 C   0  0  0  0  0  0  0  0  0  0  0  0
   -2.0008   -0.7628   -0.4700 N   0  0  0  0  0  0  0  0  0  0  0  0
   -2.5757   -0.7886   -1.7572 C   0  0  0  0  0  0  0  0  0  0  0  0
   -2.5272   -1.7021   -2.6353 O   0  0  0  0  0  0  0  0  0  0  0  0
   -3.2971    0.4666   -1.9849 C   0  0  0  0  0  0  0  0  0  0  0  0
   -4.0258    0.9392   -3.0822 C   0  0  0  0  0  0  0  0  0  0  0  0
   -4.6141    2.1830   -3.0409 C   0  0  0  0  0  0  0  0  0  0  0  0
   -4.4463    2.9119   -1.8864 C   0  0  0  0  0  0  0  0  0  0  0  0
   -3.7368    2.4736   -0.7944 C   0  0  0  0  0  0  0  0  0  0  0  0
   -3.1400    1.2045   -0.8443 C   0  0  0  0  0  0  0  0  0  0  0  0
   -2.3282    0.4682    0.1580 C   0  0  2  0  0  0  0  0  0  0  0  0
   -1.2016    1.2777    0.3837 O   0  0  0  0  0  0  0  0  0  0  0  0
   -3.1005    0.2940    1.4205 C   0  0  0  0  0  0  0  0  0  0  0  0
   -2.6655    0.8587    2.5984 C   0  0  0  0  0  0  0  0  0  0  0  0
   -3.3680    0.7112    3.7820 C   0  0  0  0  0  0  0  0  0  0  0  0
   -4.5408   -0.0131    3.8292 C   0  0  0  0  0  0  0  0  0  0  0  0
   -4.9856   -0.5825    2.6570 C   0  0  0  0  0  0  0  0  0  0  0  0
   -4.2710   -0.4299    1.4627 C   0  0  0  0  0  0  0  0  0  0  0  0
    2.4688    1.1080    0.6904 C   0  0  0  0  0  0  0  0  0  0  0  0
    3.7797    1.5022    0.5312 C   0  0  0  0  0  0  0  0  0  0  0  0
  1  2  1  0
  2  3  1  0
  3  4  1  0
  4  5  1  0
  5  6  1  0
  6  7  2  0
  7  8  1  0
  8  9  2  0
  9 10  1  0
 10 11  1  0
 11 12  1  0
 12 13  1  0
 13 14  1  0
 14 15  2  0
 14 16  1  0
 16 17  2  0
 17 18  1  0
 18 19  2  0
 19 20  1  0
 20 21  2  0
 21 22  1  0
 22 23  1  1
 22 24  1  0
 24 25  2  0
 25 26  1  0
 26 27  2  0
 27 28  1  0
 28 29  2  0
  9 30  1  0
 30 31  2  0
 31  6  1  0
 22 13  1  0
 29 24  1  0
 21 16  1  0
M  END
>  <zinc_id>  (1) 
ZINC000002876954

>  <smiles>  (1) 
CCCCOc1ccc(OCCN2C(=O)c3ccccc3[C@@]2(O)c2ccccc2)cc1

$$$$
