
     RDKit          3D

 32 35  0  0  0  0  0  0  0  0999 V2000
    8.3629    1.0750   -1.7447 C   0  0  0  0  0  0  0  0  0  0  0  0
    7.4277    0.7699   -0.6131 C   0  0  0  0  0  0  0  0  0  0  0  0
    7.6949    1.2080    0.5219 O   0  0  0  0  0  0  0  0  0  0  0  0
    6.2386   -0.0141   -0.8189 C   0  0  0  0  0  0  0  0  0  0  0  0
    5.3894   -0.2878    0.2225 C   0  0  0  0  0  0  0  0  0  0  0  0
    4.2440   -1.0373    0.0518 C   0  0  0  0  0  0  0  0  0  0  0  0
    3.9085   -1.5433   -1.1869 C   0  0  0  0  0  0  0  0  0  0  0  0
    2.6908   -2.3432   -1.3821 C   0  0  0  0  0  0  0  0  0  0  0  0
    1.5026   -1.5333   -1.7890 C   0  0  0  0  0  0  0  0  0  0  0  0
    1.1256   -0.5374   -0.8656 N   0  0  0  0  0  0  0  0  0  0  0  0
    2.0376    0.5790   -0.7212 C   0  0  0  0  0  0  0  0  0  0  0  0
    1.5534    1.3015    0.5500 C   0  0  0  0  0  0  0  0  0  0  0  0
    0.0547    1.2978    0.4281 C   0  0  0  0  0  0  0  0  0  0  0  0
   -0.4658   -0.1561    0.9943 C   0  0  1  0  0  0  0  0  0  0  0  0
   -1.3710   -0.4775   -0.3427 C   0  0  0  0  0  0  0  0  0  0  0  0
   -2.2956    0.5293   -0.4405 O   0  0  0  0  0  0  0  0  0  0  0  0
   -3.0748    0.5316    0.7142 C   0  0  0  0  0  0  0  0  0  0  0  0
   -4.1029    1.6074    0.6632 C   0  0  0  0  0  0  0  0  0  0  0  0
   -4.3787    2.4589    1.7099 C   0  0  0  0  0  0  0  0  0  0  0  0
   -5.3462    3.4458    1.6153 C   0  0  0  0  0  0  0  0  0  0  0  0
   -6.0629    3.6019    0.4622 C   0  0  0  0  0  0  0  0  0  0  0  0
   -5.8085    2.7635   -0.6031 C   0  0  0  0  0  0  0  0  0  0  0  0
   -4.8564    1.8022   -0.4912 C   0  0  0  0  0  0  0  0  0  0  0  0
   -3.7112   -0.7894    0.8210 C   0  0  0  0  0  0  0  0  0  0  0  0
   -3.7583   -1.4651    1.9976 C   0  0  0  0  0  0  0  0  0  0  0  0
   -4.3770   -2.7247    2.0540 C   0  0  0  0  0  0  0  0  0  0  0  0
   -4.9400   -3.2893    0.9286 C   0  0  0  0  0  0  0  0  0  0  0  0
   -4.8888   -2.6042   -0.2514 C   0  0  0  0  0  0  0  0  0  0  0  0
   -4.2719   -1.3518   -0.2995 C   0  0  0  0  0  0  0  0  0  0  0  0
    0.8254   -1.0143    0.4403 C   0  0  0  0  0  0  0  0  0  0  0  0
    4.7619   -1.2747   -2.2607 C   0  0  0  0  0  0  0  0  0  0  0  0
    5.8920   -0.5281   -2.0622 C   0  0  0  0  0  0  0  0  0  0  0  0
  1  2  1  0
  2  3  2  0
  2  4  1  0
  4  5  2  0
  5  6  1  0
  6  7  2  0
  7  8  1  0
  8  9  1  0
  9 10  1  0
 10 11  1  0
 11 12  1  0
 12 13  1  0
 13 14  1  0
 14 15  1  6
 15 16  1  0
 16 17  1  0
 17 18  1  0
 18 19  2  0
 19 20  1  0
 20 21  2  0
 21 22  1  0
 22 23  2  0
 17 24  1  0
 24 25  2  0
 25 26  1  0
 26 27  2  0
 27 28  1  0
 28 29  2  0
 14 30  1  0
  7 31  1  0
 31 32  2  0
 32  4  1  0
 30 10  1  0
 23 18  1  0
 29 24  1  0
M  END
>  <zinc_id>  (1) 
ZINC000003798280

>  <smiles>  (1) 
CC(=O)c1ccc(CCN2CCC[C@@H](COC(c3ccccc3)c3ccccc3)C2)cc1

$$$$
