
     RDKit          3D

 29 31  0  0  0  0  0  0  0  0999 V2000
    6.4509    2.6753    2.8294 C   0  0  0  0  0  0  0  0  0  0  0  0
    6.1894    1.2605    2.3380 C   0  0  0  0  0  0  0  0  0  0  0  0
    7.2859    0.8514    1.3619 C   0  0  0  0  0  0  0  0  0  0  0  0
    6.9415   -0.5760    0.9246 C   0  0  0  0  0  0  0  0  0  0  0  0
    5.6021   -0.5812    0.2709 C   0  0  0  0  0  0  0  0  0  0  0  0
    5.5302   -0.3800   -1.1015 C   0  0  0  0  0  0  0  0  0  0  0  0
    4.2828   -0.3849   -1.7082 C   0  0  0  0  0  0  0  0  0  0  0  0
    3.1352   -0.5851   -0.9689 C   0  0  0  0  0  0  0  0  0  0  0  0
    1.8374   -0.5886   -1.6030 N   0  0  0  0  0  0  0  0  0  0  0  0
    1.7769   -0.3798   -3.0153 C   0  0  0  0  0  0  0  0  0  0  0  0
    2.8468   -0.2034   -3.6477 O   0  0  0  0  0  0  0  0  0  0  0  0
    0.5092   -0.3614   -3.7696 C   0  0  0  0  0  0  0  0  0  0  0  0
   -0.6160   -0.5692   -2.9318 O   0  0  0  0  0  0  0  0  0  0  0  0
   -0.9239    0.2727   -1.8788 C   0  0  0  0  0  0  0  0  0  0  0  0
   -0.1536    1.2554   -1.6808 O   0  0  0  0  0  0  0  0  0  0  0  0
   -2.0882    0.0757   -0.9952 C   0  0  0  0  0  0  0  0  0  0  0  0
   -2.9427   -0.9842   -1.1989 C   0  0  0  0  0  0  0  0  0  0  0  0
   -4.0389   -1.1983   -0.3910 C   0  0  0  0  0  0  0  0  0  0  0  0
   -4.3230   -0.3461    0.6661 C   0  0  0  0  0  0  0  0  0  0  0  0
   -5.4726   -0.5512    1.5309 C   0  0  0  0  0  0  0  0  0  0  0  0
   -6.6125   -1.1080    1.0251 C   0  0  0  0  0  0  0  0  0  0  0  0
   -7.6932   -1.2881    1.8871 C   0  0  0  0  0  0  0  0  0  0  0  0
   -7.6080   -0.9124    3.2146 C   0  0  0  0  0  0  0  0  0  0  0  0
   -6.4511   -0.3529    3.7065 C   0  0  0  0  0  0  0  0  0  0  0  0
   -5.3826   -0.1787    2.8390 C   0  0  0  0  0  0  0  0  0  0  0  0
   -3.4445    0.7006    0.8360 C   0  0  0  0  0  0  0  0  0  0  0  0
   -2.3482    0.9319    0.0436 C   0  0  0  0  0  0  0  0  0  0  0  0
    3.2439   -0.7821    0.3947 C   0  0  0  0  0  0  0  0  0  0  0  0
    4.4665   -0.7822    1.0225 C   0  0  0  0  0  0  0  0  0  0  0  0
  1  2  1  0
  2  3  1  0
  3  4  1  0
  4  5  1  0
  5  6  2  0
  6  7  1  0
  7  8  2  0
  8  9  1  0
  9 10  1  0
 10 11  2  0
 10 12  1  0
 12 13  1  0
 13 14  1  0
 14 15  2  0
 14 16  1  0
 16 17  2  0
 17 18  1  0
 18 19  2  0
 19 20  1  0
 20 21  2  0
 21 22  1  0
 22 23  2  0
 23 24  1  0
 24 25  2  0
 19 26  1  0
 26 27  2  0
  8 28  1  0
 28 29  2  0
 29  5  1  0
 27 16  1  0
 25 20  1  0
M  END
>  <zinc_id>  (1) 
ZINC000001935137

>  <smiles>  (1) 
CCCCc1ccc(NC(=O)COC(=O)c2ccc(-c3ccccc3)cc2)cc1

$$$$
