
     RDKit          3D

 30 33  0  0  0  0  0  0  0  0999 V2000
   -1.6531    3.5662   -0.6824 O   0  0  0  0  0  0  0  0  0  0  0  0
   -0.9972    2.2723   -0.2596 S   0  0  0  0  0  0  0  0  0  0  0  0
   -0.4544    2.5147    1.1313 O   0  0  0  0  0  0  0  0  0  0  0  0
    0.2621    1.9421   -1.3660 N   0  0  0  0  0  0  0  0  0  0  0  0
    1.1196    0.8332   -1.1278 C   0  0  0  0  0  0  0  0  0  0  0  0
    1.4029    0.0195   -2.2060 C   0  0  0  0  0  0  0  0  0  0  0  0
    2.2249   -1.0771   -2.0652 C   0  0  0  0  0  0  0  0  0  0  0  0
    2.7446   -1.3248   -0.8235 C   0  0  0  0  0  0  0  0  0  0  0  0
    2.5079   -0.5632    0.2882 C   0  0  0  0  0  0  0  0  0  0  0  0
    3.0588   -0.8189    1.6217 C   0  0  0  0  0  0  0  0  0  0  0  0
    4.3214   -0.1253    1.9499 C   0  0  0  0  0  0  0  0  0  0  0  0
    5.4601   -0.4706    1.1004 C   0  0  0  0  0  0  0  0  0  0  0  0
    5.3689   -1.4126    0.1071 C   0  0  0  0  0  0  0  0  0  0  0  0
    6.3953   -1.7778   -0.7180 C   0  0  0  0  0  0  0  0  0  0  0  0
    7.6119   -1.1502   -0.5353 C   0  0  0  0  0  0  0  0  0  0  0  0
    7.6813   -0.2148    0.4598 C   0  0  0  0  0  0  0  0  0  0  0  0
    6.6712    0.1358    1.2621 N   0  0  0  0  0  0  0  0  0  0  0  0
    1.6653    0.5397    0.0891 C   0  0  0  0  0  0  0  0  0  0  0  0
   -2.1528    0.9742   -0.1358 C   0  0  0  0  0  0  0  0  0  0  0  0
   -3.2747    0.8858   -0.9314 C   0  0  0  0  0  0  0  0  0  0  0  0
   -4.1603   -0.1645   -0.7933 C   0  0  0  0  0  0  0  0  0  0  0  0
   -3.9749   -1.1687    0.1343 C   0  0  0  0  0  0  0  0  0  0  0  0
   -4.9329   -2.2968    0.2776 C   0  0  0  0  0  0  0  0  0  0  0  0
   -5.7700   -2.1477    1.5062 C   0  0  0  0  0  0  0  0  0  0  0  0
   -6.4497   -0.7912    1.5171 C   0  0  0  0  0  0  0  0  0  0  0  0
   -6.9127   -0.3982    0.1363 C   0  0  0  0  0  0  0  0  0  0  0  0
   -7.1244   -1.6179   -0.7247 C   0  0  0  0  0  0  0  0  0  0  0  0
   -5.8322   -2.3741   -0.9371 C   0  0  0  0  0  0  0  0  0  0  0  0
   -2.8503   -1.0775    0.9300 C   0  0  0  0  0  0  0  0  0  0  0  0
   -1.9566   -0.0233    0.7950 C   0  0  0  0  0  0  0  0  0  0  0  0
  1  2  2  0
  2  3  2  0
  2  4  1  0
  4  5  1  0
  5  6  2  0
  6  7  1  0
  7  8  2  0
  8  9  1  0
  9 10  1  0
 10 11  1  0
 11 12  1  0
 12 13  2  0
 13 14  1  0
 14 15  2  0
 15 16  1  0
 16 17  2  0
  9 18  2  0
  2 19  1  0
 19 20  2  0
 20 21  1  0
 21 22  2  0
 22 23  1  0
 23 24  1  0
 24 25  1  0
 25 26  1  0
 26 27  1  0
 27 28  1  0
 22 29  1  0
 29 30  2  0
 18  5  1  0
 30 19  1  0
 17 12  1  0
 28 23  1  0
M  END
>  <zinc_id>  (1) 
ZINC000001425970

>  <smiles>  (1) 
O=S(=O)(Nc1cccc(CCc2ccccn2)c1)c1ccc(C2CCCCC2)cc1

$$$$
