
     RDKit          3D

 30 33  0  0  0  0  0  0  0  0999 V2000
    8.0193   -0.2467    2.3569 C   0  0  0  0  0  0  0  0  0  0  0  0
    7.2685   -0.4133    1.1790 O   0  0  0  0  0  0  0  0  0  0  0  0
    6.1379    0.3588    0.9091 C   0  0  0  0  0  0  0  0  0  0  0  0
    5.6979    1.3283    1.7876 C   0  0  0  0  0  0  0  0  0  0  0  0
    4.5863    2.1036    1.5462 C   0  0  0  0  0  0  0  0  0  0  0  0
    3.8908    1.8798    0.3528 C   0  0  0  0  0  0  0  0  0  0  0  0
    2.7026    2.6768    0.0059 C   0  0  0  0  0  0  0  0  0  0  0  0
    1.4052    2.2044    0.5064 C   0  0  0  0  0  0  0  0  0  0  0  0
    1.0521    0.8601   -0.0081 C   0  0  0  0  0  0  0  0  0  0  0  0
    1.7717    0.2395   -0.8309 O   0  0  0  0  0  0  0  0  0  0  0  0
   -0.1301    0.1878    0.4016 N   0  0  0  0  0  0  0  0  0  0  0  0
   -0.4631   -1.1010   -0.0952 C   0  0  0  0  0  0  0  0  0  0  0  0
    0.3457   -1.7799   -1.0104 C   0  0  0  0  0  0  0  0  0  0  0  0
   -0.2531   -2.9823   -1.2412 C   0  0  0  0  0  0  0  0  0  0  0  0
    0.2003   -4.0987   -2.1455 C   0  0  0  0  0  0  0  0  0  0  0  0
   -1.3535   -2.9988   -0.4976 N   0  0  0  0  0  0  0  0  0  0  0  0
   -1.4994   -1.8736    0.2007 N   0  0  0  0  0  0  0  0  0  0  0  0
   -2.6122   -1.6054    1.0667 C   0  0  0  0  0  0  0  0  0  0  0  0
   -3.8320   -1.1036    0.4193 C   0  0  0  0  0  0  0  0  0  0  0  0
   -4.8785   -1.9981    0.1282 C   0  0  0  0  0  0  0  0  0  0  0  0
   -6.0322   -1.6028   -0.4905 C   0  0  0  0  0  0  0  0  0  0  0  0
   -6.2122   -0.2891   -0.8566 C   0  0  0  0  0  0  0  0  0  0  0  0
   -5.2188    0.6098   -0.5904 C   0  0  0  0  0  0  0  0  0  0  0  0
   -5.4420    1.9166   -0.9630 C   0  0  0  0  0  0  0  0  0  0  0  0
   -4.4844    2.8638   -0.7107 C   0  0  0  0  0  0  0  0  0  0  0  0
   -3.3077    2.4651   -0.0795 C   0  0  0  0  0  0  0  0  0  0  0  0
   -3.1111    1.1556    0.2808 C   0  0  0  0  0  0  0  0  0  0  0  0
   -4.0428    0.1896    0.0440 C   0  0  0  0  0  0  0  0  0  0  0  0
    4.3423    0.9125   -0.5082 C   0  0  0  0  0  0  0  0  0  0  0  0
    5.4524    0.1411   -0.2629 C   0  0  0  0  0  0  0  0  0  0  0  0
  1  2  1  0
  2  3  1  0
  3  4  2  0
  4  5  1  0
  5  6  2  0
  6  7  1  0
  7  8  1  0
  8  9  1  0
  9 10  2  0
  9 11  1  0
 11 12  1  0
 12 13  2  0
 13 14  1  0
 14 15  1  0
 14 16  2  0
 16 17  1  0
 17 18  1  0
 18 19  1  0
 19 20  2  0
 20 21  1  0
 21 22  2  0
 22 23  1  0
 23 24  2  0
 24 25  1  0
 25 26  2  0
 26 27  1  0
 27 28  2  0
  6 29  1  0
 29 30  2  0
 30  3  1  0
 17 12  1  0
 28 19  1  0
 28 23  1  0
M  END
>  <zinc_id>  (1) 
ZINC000001429206

>  <smiles>  (1) 
COc1ccc(CCC(=O)Nc2cc(C)nn2Cc2cccc3ccccc23)cc1

$$$$
