
     RDKit          3D

 34 38  0  0  0  0  0  0  0  0999 V2000
   -3.0714   -3.0702    3.0204 C   0  0  0  0  0  0  0  0  0  0  0  0
   -3.0754   -2.2788    1.8426 O   0  0  0  0  0  0  0  0  0  0  0  0
   -2.1510   -1.2688    1.6210 C   0  0  0  0  0  0  0  0  0  0  0  0
   -1.1588   -0.9685    2.5431 C   0  0  0  0  0  0  0  0  0  0  0  0
   -0.2584    0.0775    2.2342 C   0  0  0  0  0  0  0  0  0  0  0  0
   -0.3410    0.7658    1.1005 C   0  0  0  0  0  0  0  0  0  0  0  0
   -1.3300    0.4575    0.1946 C   0  0  0  0  0  0  0  0  0  0  0  0
   -2.2577   -0.5693    0.4379 C   0  0  0  0  0  0  0  0  0  0  0  0
   -3.2372   -0.8921   -0.4314 O   0  0  0  0  0  0  0  0  0  0  0  0
   -3.5825   -0.3831   -1.6569 C   0  0  0  0  0  0  0  0  0  0  0  0
   -3.9460    1.0085   -1.7404 C   0  0  0  0  0  0  0  0  0  0  0  0
   -3.8610    1.8163   -0.6384 C   0  0  0  0  0  0  0  0  0  0  0  0
   -4.1964    3.1562   -0.6709 C   0  0  0  0  0  0  0  0  0  0  0  0
   -4.6276    3.6895   -1.8460 C   0  0  0  0  0  0  0  0  0  0  0  0
   -4.7309    2.9328   -2.9705 C   0  0  0  0  0  0  0  0  0  0  0  0
   -4.3840    1.5726   -2.9119 C   0  0  0  0  0  0  0  0  0  0  0  0
    0.6114    1.9441    0.6703 C   0  0  2  0  0  0  0  0  0  0  0  0
    1.8844    1.0872    0.2687 C   0  0  0  0  0  0  0  0  0  0  0  0
    1.7629   -0.1338   -0.2968 C   0  0  0  0  0  0  0  0  0  0  0  0
    2.8665   -0.8695   -0.6410 C   0  0  0  0  0  0  0  0  0  0  0  0
    2.7744   -2.2026   -1.2568 C   0  0  0  0  0  0  0  0  0  0  0  0
    3.7524   -2.6024   -2.1323 C   0  0  0  0  0  0  0  0  0  0  0  0
    3.7424   -3.8544   -2.7639 C   0  0  0  0  0  0  0  0  0  0  0  0
    2.7193   -4.7281   -2.5062 C   0  0  0  0  0  0  0  0  0  0  0  0
    1.7308   -4.3500   -1.6345 C   0  0  0  0  0  0  0  0  0  0  0  0
    1.7587   -3.0937   -1.0130 C   0  0  0  0  0  0  0  0  0  0  0  0
    4.0953   -0.2894   -0.3755 C   0  0  0  0  0  0  0  0  0  0  0  0
    4.2026    0.9609    0.2036 C   0  0  0  0  0  0  0  0  0  0  0  0
    3.0836    1.6965    0.5477 C   0  0  0  0  0  0  0  0  0  0  0  0
    3.2291    2.9305    1.1184 O   0  0  0  0  0  0  0  0  0  0  0  0
    4.4027    3.5875    1.4196 C   0  0  0  0  0  0  0  0  0  0  0  0
    1.0798    2.3238    2.1108 N   0  0  0  0  0  0  0  0  0  0  0  0
    1.7615    1.2491    2.7068 C   0  0  0  0  0  0  0  0  0  0  0  0
    0.7514    0.2983    3.3023 C   0  0  0  0  0  0  0  0  0  0  0  0
  1  2  1  0
  2  3  1  0
  3  4  2  0
  4  5  1  0
  5  6  2  0
  6  7  1  0
  7  8  2  0
  8  9  1  0
  9 10  1  0
 10 11  1  0
 11 12  2  0
 12 13  1  0
 13 14  2  0
 14 15  1  0
 15 16  2  0
  6 17  1  0
 17 18  1  6
 18 19  2  0
 19 20  1  0
 20 21  1  0
 21 22  2  0
 22 23  1  0
 23 24  2  0
 24 25  1  0
 25 26  2  0
 20 27  2  0
 27 28  1  0
 28 29  2  0
 29 30  1  0
 30 31  1  0
 17 32  1  0
 32 33  1  0
 33 34  1  0
  8  3  1  0
 16 11  1  0
 29 18  1  0
 34  5  1  0
 26 21  1  0
M  END
>  <zinc_id>  (1) 
ZINC000003737042

>  <smiles>  (1) 
COc1cc2c(cc1OCc1ccccc1)[C@H](c1cc(-c3ccccc3)ccc1OC)NCC2

$$$$
