
     RDKit          3D

 31 33  0  0  0  0  0  0  0  0999 V2000
    6.9488   -5.1512    0.5434 C   0  0  0  0  0  0  0  0  0  0  0  0
    6.1182   -3.9026    0.4373 C   0  0  0  0  0  0  0  0  0  0  0  0
    6.7092   -2.7745    1.2575 C   0  0  0  0  0  0  0  0  0  0  0  0
    4.7644   -4.1246    0.7304 O   0  0  0  0  0  0  0  0  0  0  0  0
    3.7990   -3.1542    0.7051 C   0  0  0  0  0  0  0  0  0  0  0  0
    4.0155   -1.8411    0.3931 C   0  0  0  0  0  0  0  0  0  0  0  0
    2.9672   -0.9690    0.4032 C   0  0  0  0  0  0  0  0  0  0  0  0
    1.6703   -1.3222    0.7129 C   0  0  0  0  0  0  0  0  0  0  0  0
    0.6093   -0.3295    0.7005 C   0  0  0  0  0  0  0  0  0  0  0  0
    0.8771    0.9282    0.3919 C   0  0  0  0  0  0  0  0  0  0  0  0
   -0.1604    1.9007    0.3795 N   0  0  0  0  0  0  0  0  0  0  0  0
    0.1834    3.2387    0.0402 C   0  0  0  0  0  0  0  0  0  0  0  0
    1.3754    3.4807   -0.2266 O   0  0  0  0  0  0  0  0  0  0  0  0
   -0.8233    4.3120    0.0014 C   0  0  0  0  0  0  0  0  0  0  0  0
   -2.1425    4.0940    0.2787 C   0  0  0  0  0  0  0  0  0  0  0  0
   -3.0414    5.1054    0.2332 C   0  0  0  0  0  0  0  0  0  0  0  0
   -2.6694    6.3898   -0.0924 C   0  0  0  0  0  0  0  0  0  0  0  0
   -1.3238    6.5989   -0.3725 C   0  0  0  0  0  0  0  0  0  0  0  0
   -0.4147    5.5723   -0.3255 C   0  0  0  0  0  0  0  0  0  0  0  0
   -0.7608   -0.6631    1.0181 C   0  0  0  0  0  0  0  0  0  0  0  0
   -1.0182   -1.8585    1.3110 O   0  0  0  0  0  0  0  0  0  0  0  0
   -1.8166    0.2557    1.0205 N   0  0  0  0  0  0  0  0  0  0  0  0
   -3.1516   -0.1644    1.3487 C   0  0  0  0  0  0  0  0  0  0  0  0
   -3.8060   -0.9013    0.2402 C   0  0  0  0  0  0  0  0  0  0  0  0
   -3.7086   -2.2694    0.0945 C   0  0  0  0  0  0  0  0  0  0  0  0
   -4.3396   -2.9224   -0.9614 C   0  0  0  0  0  0  0  0  0  0  0  0
   -5.0736   -2.2383   -1.8862 C   0  0  0  0  0  0  0  0  0  0  0  0
   -5.1797   -0.8620   -1.7515 C   0  0  0  0  0  0  0  0  0  0  0  0
   -4.5630   -0.2209   -0.7189 C   0  0  0  0  0  0  0  0  0  0  0  0
    1.4568   -2.6461    1.0267 C   0  0  0  0  0  0  0  0  0  0  0  0
    2.4988   -3.5608    1.0266 C   0  0  0  0  0  0  0  0  0  0  0  0
  1  2  1  0
  2  3  1  0
  2  4  1  0
  4  5  1  0
  5  6  2  0
  6  7  1  0
  7  8  2  0
  8  9  1  0
  9 10  2  0
 10 11  1  0
 11 12  1  0
 12 13  2  0
 12 14  1  0
 14 15  2  0
 15 16  1  0
 16 17  2  0
 17 18  1  0
 18 19  2  0
  9 20  1  0
 20 21  2  0
 20 22  1  0
 22 23  1  0
 23 24  1  0
 24 25  2  0
 25 26  1  0
 26 27  2  0
 27 28  1  0
 28 29  2  0
  8 30  1  0
 30 31  2  0
 31  5  1  0
 19 14  1  0
 29 24  1  0
M  END
>  <zinc_id>  (1) 
ZINC000003208795

>  <smiles>  (1) 
CC(C)Oc1ccc(/C(=C/NC(=O)c2ccccc2)C(=O)NCc2ccccc2)cc1

$$$$
