
     RDKit          3D

 32 35  0  0  0  0  0  0  0  0999 V2000
    8.3972   -1.8885   -1.7282 C   0  0  0  0  0  0  0  0  0  0  0  0
    7.3083   -1.4936   -0.7675 C   0  0  0  0  0  0  0  0  0  0  0  0
    6.0713   -1.2453   -1.3964 O   0  0  0  0  0  0  0  0  0  0  0  0
    4.9961   -0.8701   -0.5884 C   0  0  0  0  0  0  0  0  0  0  0  0
    3.7571   -0.6101   -1.1311 C   0  0  0  0  0  0  0  0  0  0  0  0
    2.7094   -0.2413   -0.3247 C   0  0  0  0  0  0  0  0  0  0  0  0
    2.8548   -0.1194    1.0351 C   0  0  0  0  0  0  0  0  0  0  0  0
    1.7439    0.2706    1.8083 N   0  0  0  0  0  0  0  0  0  0  0  0
    0.4751    0.6106    1.2140 C   0  0  0  0  0  0  0  0  0  0  0  0
   -0.4845   -0.2645    0.8918 C   0  0  0  0  0  0  0  0  0  0  0  0
   -0.2873   -2.0045    1.1734 S   0  0  0  0  0  0  0  0  0  0  0  0
   -1.6213   -2.9938    0.6162 C   0  0  0  0  0  0  0  0  0  0  0  0
   -2.7598   -2.5826   -0.0193 C   0  0  0  0  0  0  0  0  0  0  0  0
   -3.7677   -3.4320   -0.4282 C   0  0  0  0  0  0  0  0  0  0  0  0
   -3.6722   -4.7957   -0.2063 C   0  0  0  0  0  0  0  0  0  0  0  0
   -4.7288   -5.7461   -0.6269 C   0  0  0  0  0  0  0  0  0  0  0  0
   -2.5313   -5.2291    0.4327 C   0  0  0  0  0  0  0  0  0  0  0  0
   -1.5330   -4.3772    0.8365 C   0  0  0  0  0  0  0  0  0  0  0  0
   -1.5835    0.4966    0.3229 C   0  0  0  0  0  0  0  0  0  0  0  0
   -2.6663    0.0542   -0.1019 O   0  0  0  0  0  0  0  0  0  0  0  0
   -1.2322    1.8961    0.3187 N   0  0  0  0  0  0  0  0  0  0  0  0
   -2.0363    2.9916   -0.1525 C   0  0  0  0  0  0  0  0  0  0  0  0
   -2.3079    4.0737    0.6546 C   0  0  0  0  0  0  0  0  0  0  0  0
   -3.0877    5.1400    0.2070 C   0  0  0  0  0  0  0  0  0  0  0  0
   -3.6168    5.1471   -1.0672 C   0  0  0  0  0  0  0  0  0  0  0  0
   -4.4482    6.2760   -1.5531 C   0  0  0  0  0  0  0  0  0  0  0  0
   -3.3415    4.0622   -1.8707 C   0  0  0  0  0  0  0  0  0  0  0  0
   -2.5612    2.9943   -1.4234 C   0  0  0  0  0  0  0  0  0  0  0  0
    0.0623    1.9575    0.8798 C   0  0  0  0  0  0  0  0  0  0  0  0
    0.6738    3.0436    1.0249 O   0  0  0  0  0  0  0  0  0  0  0  0
    4.0861   -0.3750    1.6031 C   0  0  0  0  0  0  0  0  0  0  0  0
    5.1321   -0.7451    0.7807 C   0  0  0  0  0  0  0  0  0  0  0  0
  1  2  1  0
  2  3  1  0
  3  4  1  0
  4  5  2  0
  5  6  1  0
  6  7  2  0
  7  8  1  0
  8  9  1  0
  9 10  2  0
 10 11  1  0
 11 12  1  0
 12 13  2  0
 13 14  1  0
 14 15  2  0
 15 16  1  0
 15 17  1  0
 17 18  2  0
 10 19  1  0
 19 20  2  0
 19 21  1  0
 21 22  1  0
 22 23  2  0
 23 24  1  0
 24 25  2  0
 25 26  1  0
 25 27  1  0
 27 28  2  0
 21 29  1  0
 29 30  2  0
  7 31  1  0
 31 32  2  0
 32  4  1  0
 29  9  1  0
 18 12  1  0
 28 22  1  0
M  END
>  <zinc_id>  (1) 
ZINC000001929127

>  <smiles>  (1) 
CCOc1ccc(NC2=C(Sc3ccc(C)cc3)C(=O)N(c3ccc(C)cc3)C2=O)cc1

$$$$
