
     RDKit          3D

 31 33  0  0  0  0  0  0  0  0999 V2000
   -3.4447    6.3649   -0.8618 C   0  0  0  0  0  0  0  0  0  0  0  0
   -4.3228    5.5447   -0.0853 O   0  0  0  0  0  0  0  0  0  0  0  0
   -4.0152    4.1648   -0.0206 C   0  0  0  0  0  0  0  0  0  0  0  0
   -2.8972    3.6887   -0.6862 C   0  0  0  0  0  0  0  0  0  0  0  0
   -2.5556    2.3562   -0.6377 C   0  0  0  0  0  0  0  0  0  0  0  0
   -3.3640    1.4853    0.0938 C   0  0  0  0  0  0  0  0  0  0  0  0
   -2.9185    0.0864    0.1715 N   0  0  0  0  0  0  0  0  0  0  0  0
   -1.5473   -0.1691    0.0759 C   0  0  0  0  0  0  0  0  0  0  0  0
   -0.8394    0.9093   -0.0495 O   0  0  0  0  0  0  0  0  0  0  0  0
   -0.7865   -1.4090    0.0722 C   0  0  0  0  0  0  0  0  0  0  0  0
   -1.3566   -2.5206    0.1400 C   0  0  0  0  0  0  0  0  0  0  0  0
   -2.7664   -2.8630    0.2370 C   0  0  0  0  0  0  0  0  0  0  0  0
   -3.3800   -3.8849   -0.5100 C   0  0  0  0  0  0  0  0  0  0  0  0
   -4.6584   -4.0987   -0.2974 C   0  0  0  0  0  0  0  0  0  0  0  0
   -5.3228   -3.3130    0.6247 C   0  0  0  0  0  0  0  0  0  0  0  0
   -4.0634   -2.2890    1.1696 S   0  0  0  0  0  0  0  0  0  0  0  0
    0.6060   -1.2438    0.0259 N   0  0  0  0  0  0  0  0  0  0  0  0
    1.6548   -2.1459    0.1057 C   0  0  0  0  0  0  0  0  0  0  0  0
    1.3769   -3.3358    0.2403 O   0  0  0  0  0  0  0  0  0  0  0  0
    3.0552   -1.5996    0.0290 C   0  0  0  0  0  0  0  0  0  0  0  0
    4.1315   -2.1271    0.6257 C   0  0  0  0  0  0  0  0  0  0  0  0
    5.3559   -1.4436    0.5641 C   0  0  0  0  0  0  0  0  0  0  0  0
    5.4816   -0.2548   -0.0920 C   0  0  0  0  0  0  0  0  0  0  0  0
    6.7580    0.5237   -0.1430 C   0  0  0  0  0  0  0  0  0  0  0  0
    7.6563    0.1584    0.9829 C   0  0  0  0  0  0  0  0  0  0  0  0
    7.4595    0.2932   -1.4575 C   0  0  0  0  0  0  0  0  0  0  0  0
    6.4634    2.0260   -0.0081 C   0  0  0  0  0  0  0  0  0  0  0  0
    4.3473    0.2429   -0.6970 C   0  0  0  0  0  0  0  0  0  0  0  0
    3.1650   -0.3719   -0.6603 C   0  0  0  0  0  0  0  0  0  0  0  0
   -4.4482    1.9260    0.7380 C   0  0  0  0  0  0  0  0  0  0  0  0
   -4.8247    3.2995    0.7106 C   0  0  0  0  0  0  0  0  0  0  0  0
  1  2  1  0
  2  3  1  0
  3  4  2  0
  4  5  1  0
  5  6  2  0
  6  7  1  0
  7  8  1  0
  8  9  2  0
  8 10  1  0
 10 11  2  0
 11 12  1  0
 12 13  2  0
 13 14  1  0
 14 15  2  0
 15 16  1  0
 10 17  1  0
 17 18  1  0
 18 19  2  0
 18 20  1  0
 20 21  2  0
 21 22  1  0
 22 23  2  0
 23 24  1  0
 24 25  1  0
 24 26  1  0
 24 27  1  0
 23 28  1  0
 28 29  2  0
  6 30  1  0
 30 31  2  0
 31  3  1  0
 16 12  1  0
 29 20  1  0
M  END
>  <zinc_id>  (1) 
ZINC000002060332

>  <smiles>  (1) 
COc1ccc(NC(=O)/C(=C\c2cccs2)NC(=O)c2ccc(C(C)(C)C)cc2)cc1

$$$$
