
     RDKit          3D

 31 34  0  0  0  0  0  0  0  0999 V2000
   -4.3240   -3.0593   -2.0642 C   0  0  0  0  0  0  0  0  0  0  0  0
   -3.1066   -2.5361   -2.7846 C   0  0  0  0  0  0  0  0  0  0  0  0
   -1.9970   -2.4342   -1.8164 C   0  0  0  0  0  0  0  0  0  0  0  0
   -0.9576   -3.3246   -1.8139 C   0  0  0  0  0  0  0  0  0  0  0  0
    0.0756   -3.1730   -0.8810 C   0  0  0  0  0  0  0  0  0  0  0  0
    0.0784   -2.1542    0.0357 C   0  0  0  0  0  0  0  0  0  0  0  0
   -0.9457   -1.2541    0.0540 C   0  0  0  0  0  0  0  0  0  0  0  0
   -0.9939   -0.2238    0.9640 C   0  0  0  0  0  0  0  0  0  0  0  0
    0.2274    0.0284    2.1960 S   0  0  0  0  0  0  0  0  0  0  0  0
    1.5975   -1.0460    2.2109 C   0  0  0  0  0  0  0  0  0  0  0  0
    2.6834   -0.9057    1.2653 C   0  0  0  0  0  0  0  0  0  0  0  0
    3.0985   -1.8912    0.6080 O   0  0  0  0  0  0  0  0  0  0  0  0
    3.3645    0.3398    1.0148 N   0  0  0  0  0  0  0  0  0  0  0  0
    4.4240    0.3409    0.0750 C   0  0  0  0  0  0  0  0  0  0  0  0
    4.7593   -0.7684   -0.6510 C   0  0  0  0  0  0  0  0  0  0  0  0
    5.7999   -0.6951   -1.5492 C   0  0  0  0  0  0  0  0  0  0  0  0
    6.5080    0.4687   -1.7302 C   0  0  0  0  0  0  0  0  0  0  0  0
    6.1447    1.5677   -0.9842 C   0  0  0  0  0  0  0  0  0  0  0  0
    5.1136    1.5220   -0.0828 C   0  0  0  0  0  0  0  0  0  0  0  0
    4.7558    2.6581    0.6783 O   0  0  0  0  0  0  0  0  0  0  0  0
    5.4919    3.8243    0.4742 C   0  0  0  0  0  0  0  0  0  0  0  0
   -2.0834    0.5917    0.8756 N   0  0  0  0  0  0  0  0  0  0  0  0
   -3.0607    0.4565    0.0027 C   0  0  0  0  0  0  0  0  0  0  0  0
   -4.2063    1.3832   -0.0264 C   0  0  0  0  0  0  0  0  0  0  0  0
   -4.2004    2.4490    0.8344 C   0  0  0  0  0  0  0  0  0  0  0  0
   -5.2778    3.3400    0.8395 C   0  0  0  0  0  0  0  0  0  0  0  0
   -6.3407    3.1434   -0.0177 C   0  0  0  0  0  0  0  0  0  0  0  0
   -6.3659    2.0913   -0.8776 C   0  0  0  0  0  0  0  0  0  0  0  0
   -5.2737    1.2208   -0.8589 C   0  0  0  0  0  0  0  0  0  0  0  0
   -3.0091   -0.5566   -0.8882 N   0  0  0  0  0  0  0  0  0  0  0  0
   -1.9797   -1.4034   -0.8761 C   0  0  0  0  0  0  0  0  0  0  0  0
  1  2  1  0
  2  3  1  0
  3  4  2  0
  4  5  1  0
  5  6  2  0
  6  7  1  0
  7  8  2  0
  8  9  1  0
  9 10  1  0
 10 11  1  0
 11 12  2  0
 11 13  1  0
 13 14  1  0
 14 15  2  0
 15 16  1  0
 16 17  2  0
 17 18  1  0
 18 19  2  0
 19 20  1  0
 20 21  1  0
  8 22  1  0
 22 23  2  0
 23 24  1  0
 24 25  2  0
 25 26  1  0
 26 27  2  0
 27 28  1  0
 28 29  2  0
 23 30  1  0
 30 31  2  0
 31  3  1  0
 31  7  1  0
 19 14  1  0
 29 24  1  0
M  END
>  <zinc_id>  (1) 
ZINC000000648342

>  <smiles>  (1) 
CCc1cccc2c(SCC(=O)Nc3ccccc3OC)nc(-c3ccccc3)nc12

$$$$
