
     RDKit          3D

 30 33  0  0  0  0  0  0  0  0999 V2000
   -0.4080   -3.7531    1.1392 O   0  0  0  0  0  0  0  0  0  0  0  0
   -0.5357   -2.5499    0.7836 C   0  0  0  0  0  0  0  0  0  0  0  0
   -1.9028   -2.0207    0.5115 C   0  0  0  0  0  0  0  0  0  0  0  0
   -1.8369   -0.6738    0.1324 O   0  0  0  0  0  0  0  0  0  0  0  0
   -3.0024    0.0115   -0.1672 C   0  0  0  0  0  0  0  0  0  0  0  0
   -2.8576    1.3455   -0.5402 C   0  0  0  0  0  0  0  0  0  0  0  0
   -3.9944    2.0322   -0.8411 C   0  0  0  0  0  0  0  0  0  0  0  0
   -5.2520    1.5040   -0.7986 C   0  0  0  0  0  0  0  0  0  0  0  0
   -6.3862    2.2183   -1.1062 C   0  0  0  0  0  0  0  0  0  0  0  0
   -7.6390    1.6507   -1.0520 C   0  0  0  0  0  0  0  0  0  0  0  0
   -7.7843    0.3125   -0.6767 C   0  0  0  0  0  0  0  0  0  0  0  0
   -6.6481   -0.3942   -0.3701 C   0  0  0  0  0  0  0  0  0  0  0  0
   -5.4001    0.1863   -0.4289 C   0  0  0  0  0  0  0  0  0  0  0  0
   -4.2601   -0.5491   -0.1149 C   0  0  0  0  0  0  0  0  0  0  0  0
    0.6305   -1.7300    0.6502 N   0  0  0  0  0  0  0  0  0  0  0  0
    1.9188   -2.2732    0.9131 C   0  0  0  0  0  0  0  0  0  0  0  0
    2.1030   -3.5952    1.2865 C   0  0  0  0  0  0  0  0  0  0  0  0
    3.3650   -4.0682    1.5223 C   0  0  0  0  0  0  0  0  0  0  0  0
    4.4819   -3.2551    1.3985 C   0  0  0  0  0  0  0  0  0  0  0  0
    4.2707   -1.9384    1.0249 C   0  0  0  0  0  0  0  0  0  0  0  0
    3.0186   -1.4311    0.7799 C   0  0  0  0  0  0  0  0  0  0  0  0
    2.8165   -0.0252    0.3909 C   0  0  0  0  0  0  0  0  0  0  0  0
    1.6616    0.4211    0.1745 O   0  0  0  0  0  0  0  0  0  0  0  0
    3.8938    0.8676    0.2470 N   0  0  0  0  0  0  0  0  0  0  0  0
    3.8304    2.2464   -0.1224 C   0  0  0  0  0  0  0  0  0  0  0  0
    4.7291    3.1357    0.6790 C   0  0  0  0  0  0  0  0  0  0  0  0
    6.1343    3.2030    0.1046 C   0  0  0  0  0  0  0  0  0  0  0  0
    5.9856    3.7900   -1.2951 C   0  0  0  0  0  0  0  0  0  0  0  0
    5.2161    2.8258   -2.1390 C   0  0  0  0  0  0  0  0  0  0  0  0
    3.8516    2.5067   -1.5886 C   0  0  0  0  0  0  0  0  0  0  0  0
  1  2  2  0
  2  3  1  0
  3  4  1  0
  4  5  1  0
  5  6  2  0
  6  7  1  0
  7  8  2  0
  8  9  1  0
  9 10  2  0
 10 11  1  0
 11 12  2  0
 12 13  1  0
 13 14  2  0
  2 15  1  0
 15 16  1  0
 16 17  2  0
 17 18  1  0
 18 19  2  0
 19 20  1  0
 20 21  2  0
 21 22  1  0
 22 23  2  0
 22 24  1  0
 24 25  1  0
 25 26  1  0
 26 27  1  0
 27 28  1  0
 28 29  1  0
 29 30  1  0
 14  5  1  0
 21 16  1  0
 30 25  1  0
 13  8  1  0
M  END
>  <zinc_id>  (1) 
ZINC000002136970

>  <smiles>  (1) 
O=C(COc1ccc2ccccc2c1)Nc1ccccc1C(=O)NC1CCCCC1

$$$$
