
     RDKit          3D

 30 32  0  0  0  0  0  0  0  0999 V2000
    8.1301    2.7155    1.4879 C   0  0  0  0  0  0  0  0  0  0  0  0
    8.3666    1.3438    0.8688 C   0  0  0  0  0  0  0  0  0  0  0  0
    7.1208    0.6500    0.8936 O   0  0  0  0  0  0  0  0  0  0  0  0
    5.9983    1.1282    0.2445 C   0  0  0  0  0  0  0  0  0  0  0  0
    6.0578    2.2028   -0.3905 O   0  0  0  0  0  0  0  0  0  0  0  0
    4.7470    0.3871    0.2963 C   0  0  0  0  0  0  0  0  0  0  0  0
    4.5260   -0.7927    0.9438 N   0  0  0  0  0  0  0  0  0  0  0  0
    3.2580   -1.1903    0.7813 C   0  0  0  0  0  0  0  0  0  0  0  0
    2.6980   -2.4330    1.3589 C   0  0  0  0  0  0  0  0  0  0  0  0
    2.6004   -0.2604    0.0057 C   0  0  0  0  0  0  0  0  0  0  0  0
    1.2110   -0.2861   -0.4220 C   0  0  0  0  0  0  0  0  0  0  0  0
    0.7371    0.6354   -1.1337 O   0  0  0  0  0  0  0  0  0  0  0  0
    0.3401   -1.3451   -0.0554 N   0  0  0  0  0  0  0  0  0  0  0  0
   -1.0481   -1.3906   -0.4705 C   0  0  0  0  0  0  0  0  0  0  0  0
   -1.8179   -0.1820    0.0351 C   0  0  0  0  0  0  0  0  0  0  0  0
   -3.2281   -0.3044   -0.4321 C   0  0  0  0  0  0  0  0  0  0  0  0
   -3.9254   -1.5083    0.0416 C   0  0  0  0  0  0  0  0  0  0  0  0
   -3.8947   -1.9457    1.3544 C   0  0  0  0  0  0  0  0  0  0  0  0
   -4.5664   -3.0868    1.7598 C   0  0  0  0  0  0  0  0  0  0  0  0
   -5.2917   -3.8299    0.8671 C   0  0  0  0  0  0  0  0  0  0  0  0
   -5.3375   -3.4145   -0.4465 C   0  0  0  0  0  0  0  0  0  0  0  0
   -4.6616   -2.2702   -0.8439 C   0  0  0  0  0  0  0  0  0  0  0  0
   -4.0134    0.9242   -0.3612 C   0  0  0  0  0  0  0  0  0  0  0  0
   -4.7877    1.2683   -1.4752 C   0  0  0  0  0  0  0  0  0  0  0  0
   -5.5591    2.3975   -1.5114 C   0  0  0  0  0  0  0  0  0  0  0  0
   -5.5905    3.2326   -0.4359 C   0  0  0  0  0  0  0  0  0  0  0  0
   -4.8459    2.9350    0.6807 C   0  0  0  0  0  0  0  0  0  0  0  0
   -4.0672    1.7830    0.7009 C   0  0  0  0  0  0  0  0  0  0  0  0
    3.5316    0.7024   -0.2832 C   0  0  0  0  0  0  0  0  0  0  0  0
    3.3123    1.9340   -1.1027 C   0  0  0  0  0  0  0  0  0  0  0  0
  1  2  1  0
  2  3  1  0
  3  4  1  0
  4  5  2  0
  4  6  1  0
  6  7  1  0
  7  8  1  0
  8  9  1  0
  8 10  2  0
 10 11  1  0
 11 12  2  0
 11 13  1  0
 13 14  1  0
 14 15  1  0
 15 16  1  0
 16 17  1  0
 17 18  2  0
 18 19  1  0
 19 20  2  0
 20 21  1  0
 21 22  2  0
 16 23  1  0
 23 24  2  0
 24 25  1  0
 25 26  2  0
 26 27  1  0
 27 28  2  0
 10 29  1  0
 29 30  1  0
 29  6  2  0
 22 17  1  0
 28 23  1  0
M  END
>  <zinc_id>  (1) 
ZINC000004162875

>  <smiles>  (1) 
CCOC(=O)c1[nH]c(C)c(C(=O)NCCC(c2ccccc2)c2ccccc2)c1C

$$$$
