
     RDKit          3D

 30 32  0  0  0  0  0  0  0  0999 V2000
    9.3622    0.6807   -1.7279 C   0  0  0  0  0  0  0  0  0  0  0  0
    8.1848   -0.0861   -1.2217 C   0  0  0  0  0  0  0  0  0  0  0  0
    8.3851   -1.3902   -0.8381 C   0  0  0  0  0  0  0  0  0  0  0  0
    7.3102   -2.1081   -0.3701 C   0  0  0  0  0  0  0  0  0  0  0  0
    6.0584   -1.5361   -0.2862 C   0  0  0  0  0  0  0  0  0  0  0  0
    5.8357   -0.2315   -0.6652 C   0  0  0  0  0  0  0  0  0  0  0  0
    4.5632    0.3859   -0.5916 N   0  0  0  0  0  0  0  0  0  0  0  0
    3.4745   -0.4152   -0.0934 C   0  0  0  0  0  0  0  0  0  0  0  0
    3.6341   -1.5663    0.2489 O   0  0  0  0  0  0  0  0  0  0  0  0
    2.0752    0.3383   -0.0370 C   0  0  2  0  0  0  0  0  0  0  0  0
    2.3517    0.9986    1.4462 C   0  0  0  0  0  0  0  0  0  0  0  0
    1.2801   -0.8352    0.5195 O   0  0  0  0  0  0  0  0  0  0  0  0
   -0.0692   -0.6275    0.7438 C   0  0  0  0  0  0  0  0  0  0  0  0
   -0.5216    0.5090    0.4697 O   0  0  0  0  0  0  0  0  0  0  0  0
   -0.8567   -1.7410    1.2790 C   0  0  0  0  0  0  0  0  0  0  0  0
   -2.2900   -1.4708    1.5010 C   0  0  0  0  0  0  0  0  0  0  0  0
   -2.6064   -0.3672    2.4600 C   0  0  0  0  0  0  0  0  0  0  0  0
   -4.0182   -0.2724    2.5293 O   0  0  0  0  0  0  0  0  0  0  0  0
   -4.8018    0.0038    1.4194 C   0  0  0  0  0  0  0  0  0  0  0  0
   -4.1842    0.1918    0.2106 C   0  0  0  0  0  0  0  0  0  0  0  0
   -4.8718    0.4713   -0.9537 C   0  0  0  0  0  0  0  0  0  0  0  0
   -6.2566    0.5597   -0.8626 C   0  0  0  0  0  0  0  0  0  0  0  0
   -6.9967    0.8407   -2.0139 C   0  0  0  0  0  0  0  0  0  0  0  0
   -8.3772    0.9355   -1.9570 C   0  0  0  0  0  0  0  0  0  0  0  0
   -9.0082    0.7485   -0.7478 C   0  0  0  0  0  0  0  0  0  0  0  0
   -8.2534    0.4687    0.3917 C   0  0  0  0  0  0  0  0  0  0  0  0
   -6.8922    0.3765    0.3290 C   0  0  0  0  0  0  0  0  0  0  0  0
   -6.1733    0.0945    1.4942 C   0  0  0  0  0  0  0  0  0  0  0  0
    6.9322    0.4600   -1.1292 C   0  0  0  0  0  0  0  0  0  0  0  0
    6.7300    1.8697   -1.5470 C   0  0  0  0  0  0  0  0  0  0  0  0
  1  2  1  0
  2  3  2  0
  3  4  1  0
  4  5  2  0
  5  6  1  0
  6  7  1  0
  7  8  1  0
  8  9  2  0
  8 10  1  0
 10 11  1  1
 10 12  1  0
 12 13  1  0
 13 14  2  0
 13 15  1  0
 15 16  1  0
 16 17  1  0
 17 18  1  0
 18 19  1  0
 19 20  2  0
 20 21  1  0
 21 22  2  0
 22 23  1  0
 23 24  2  0
 24 25  1  0
 25 26  2  0
 26 27  1  0
 27 28  2  0
  6 29  2  0
 29 30  1  0
 29  2  1  0
 28 19  1  0
 27 22  1  0
M  END
>  <zinc_id>  (1) 
ZINC000002611774

>  <smiles>  (1) 
Cc1cccc(NC(=O)[C@H](C)OC(=O)CCCOc2ccc3ccccc3c2)c1C

$$$$
