
     RDKit          3D

 30 32  0  0  0  0  0  0  0  0999 V2000
   -5.5518    3.1970    1.7684 C   0  0  0  0  0  0  0  0  0  0  0  0
   -5.8383    1.9479    1.1142 O   0  0  0  0  0  0  0  0  0  0  0  0
   -4.8315    1.0316    0.8360 C   0  0  0  0  0  0  0  0  0  0  0  0
   -3.5038    1.2988    1.2064 C   0  0  0  0  0  0  0  0  0  0  0  0
   -2.4650    0.4152    0.9454 C   0  0  0  0  0  0  0  0  0  0  0  0
   -1.0885    0.6649    1.4152 C   0  0  0  0  0  0  0  0  0  0  0  0
   -0.0207    0.1939    0.6335 N   0  0  0  0  0  0  0  0  0  0  0  0
    0.2979   -1.1740    0.4382 C   0  0  0  0  0  0  0  0  0  0  0  0
   -0.4146   -2.0528    0.9540 O   0  0  0  0  0  0  0  0  0  0  0  0
    1.4571   -1.5130   -0.3745 C   0  0  0  0  0  0  0  0  0  0  0  0
    1.3903   -2.3403   -1.4733 C   0  0  0  0  0  0  0  0  0  0  0  0
    2.4887   -2.6185   -2.2524 C   0  0  0  0  0  0  0  0  0  0  0  0
    3.7304   -2.0668   -1.9508 C   0  0  0  0  0  0  0  0  0  0  0  0
    3.7864   -1.2409   -0.8428 C   0  0  0  0  0  0  0  0  0  0  0  0
    2.7083   -0.9528   -0.0626 C   0  0  0  0  0  0  0  0  0  0  0  0
    2.7749    0.0278    1.4243 S   0  0  0  0  0  0  0  0  0  0  0  0
    4.3951    0.4864    1.9534 C   0  0  0  0  0  0  0  0  0  0  0  0
    5.0775    1.4142    1.0618 C   0  0  0  0  0  0  0  0  0  0  0  0
    5.8924    0.9074    0.0629 C   0  0  0  0  0  0  0  0  0  0  0  0
    6.5752    1.7279   -0.8128 C   0  0  0  0  0  0  0  0  0  0  0  0
    6.3993    3.0925   -0.6370 C   0  0  0  0  0  0  0  0  0  0  0  0
    5.6033    3.6391    0.3392 C   0  0  0  0  0  0  0  0  0  0  0  0
    4.9350    2.7928    1.1947 C   0  0  0  0  0  0  0  0  0  0  0  0
   -2.8116   -0.7670    0.2834 C   0  0  0  0  0  0  0  0  0  0  0  0
   -4.1382   -1.0250   -0.0776 C   0  0  0  0  0  0  0  0  0  0  0  0
   -4.4758   -2.2060   -0.7364 O   0  0  0  0  0  0  0  0  0  0  0  0
   -3.4691   -3.1454   -1.0486 C   0  0  0  0  0  0  0  0  0  0  0  0
   -5.1581   -0.1267    0.1983 C   0  0  0  0  0  0  0  0  0  0  0  0
   -6.4648   -0.4486   -0.1822 O   0  0  0  0  0  0  0  0  0  0  0  0
   -7.2799   -1.1595    0.7871 C   0  0  0  0  0  0  0  0  0  0  0  0
  1  2  1  0
  2  3  1  0
  3  4  2  0
  4  5  1  0
  5  6  1  0
  6  7  1  0
  7  8  1  0
  8  9  2  0
  8 10  1  0
 10 11  2  0
 11 12  1  0
 12 13  2  0
 13 14  1  0
 14 15  2  0
 15 16  1  0
 16 17  1  0
 17 18  1  0
 18 19  2  0
 19 20  1  0
 20 21  2  0
 21 22  1  0
 22 23  2  0
  5 24  2  0
 24 25  1  0
 25 26  1  0
 26 27  1  0
 25 28  2  0
 28 29  1  0
 29 30  1  0
 28  3  1  0
 15 10  1  0
 23 18  1  0
M  END
>  <zinc_id>  (1) 
ZINC000001160167

>  <smiles>  (1) 
COc1cc(CNC(=O)c2ccccc2SCc2ccccc2)cc(OC)c1OC

$$$$
