
     RDKit          3D

 30 33  0  0  0  0  0  0  0  0999 V2000
    5.9095    3.6415    1.6160 C   0  0  0  0  0  0  0  0  0  0  0  0
    5.4290    2.3272    1.1028 C   0  0  0  0  0  0  0  0  0  0  0  0
    6.1736    1.2159    1.4680 C   0  0  0  0  0  0  0  0  0  0  0  0
    5.7543   -0.0245    1.0073 C   0  0  0  0  0  0  0  0  0  0  0  0
    4.6389   -0.1771    0.2118 C   0  0  0  0  0  0  0  0  0  0  0  0
    4.2844   -1.5507   -0.2228 C   0  0  0  0  0  0  0  0  0  0  0  0
    3.1128   -1.5151   -1.0353 N   0  0  0  0  0  0  0  0  0  0  0  0
    1.7892   -1.3449   -0.5795 C   0  0  0  0  0  0  0  0  0  0  0  0
    1.6205   -1.2122    0.6577 O   0  0  0  0  0  0  0  0  0  0  0  0
    0.6742   -1.3267   -1.5243 C   0  0  0  0  0  0  0  0  0  0  0  0
    0.9250   -1.4671   -2.7580 O   0  0  0  0  0  0  0  0  0  0  0  0
   -0.6699   -1.1570   -1.0983 N   0  0  0  0  0  0  0  0  0  0  0  0
   -1.6820   -1.1512   -2.0801 C   0  0  0  0  0  0  0  0  0  0  0  0
   -3.1285   -0.9390   -1.3048 C   0  0  1  0  0  0  0  0  0  0  0  0
   -3.0678   -2.2274   -0.3881 C   0  0  0  0  0  0  0  0  0  0  0  0
   -3.4528   -2.3519    0.8789 C   0  0  0  0  0  0  0  0  0  0  0  0
   -3.3027   -3.5633    1.4396 C   0  0  0  0  0  0  0  0  0  0  0  0
   -2.7794   -4.5544    0.6895 C   0  0  0  0  0  0  0  0  0  0  0  0
   -2.5024   -3.7486   -0.8210 S   0  0  0  0  0  0  0  0  0  0  0  0
   -2.5867    0.1421   -0.3159 N   0  0  0  0  0  0  0  0  0  0  0  0
   -1.5905    0.1205    0.6360 C   0  0  0  0  0  0  0  0  0  0  0  0
   -1.8643    1.2954    1.5521 C   0  0  0  0  0  0  0  0  0  0  0  0
   -2.7941    2.1687    0.7619 C   0  0  0  0  0  0  0  0  0  0  0  0
   -3.2351    3.4480    0.9787 C   0  0  0  0  0  0  0  0  0  0  0  0
   -4.1000    4.0177    0.0769 C   0  0  0  0  0  0  0  0  0  0  0  0
   -4.5205    3.3242   -1.0256 C   0  0  0  0  0  0  0  0  0  0  0  0
   -4.0621    2.0455   -1.2160 C   0  0  0  0  0  0  0  0  0  0  0  0
   -3.1917    1.4244   -0.3412 C   0  0  0  0  0  0  0  0  0  0  0  0
    3.9108    0.9386   -0.1415 C   0  0  0  0  0  0  0  0  0  0  0  0
    4.3083    2.2013    0.3072 C   0  0  0  0  0  0  0  0  0  0  0  0
  1  2  1  0
  2  3  2  0
  3  4  1  0
  4  5  2  0
  5  6  1  0
  6  7  1  0
  7  8  1  0
  8  9  2  0
  8 10  1  0
 10 11  2  0
 10 12  1  0
 12 13  1  0
 14 13  1  6
 14 15  1  0
 15 16  2  0
 16 17  1  0
 17 18  2  0
 18 19  1  0
 14 20  1  0
 20 21  1  0
 21 22  1  0
 22 23  1  0
 23 24  2  0
 24 25  1  0
 25 26  2  0
 26 27  1  0
 27 28  2  0
  5 29  1  0
 29 30  2  0
 30  2  1  0
 19 15  1  0
 28 20  1  0
 28 23  1  0
M  END
>  <zinc_id>  (1) 
ZINC000004305622

>  <smiles>  (1) 
Cc1ccc(CNC(=O)C(=O)NC[C@@H](c2cccs2)N2CCc3ccccc32)cc1

$$$$
