
     RDKit          3D

 34 37  0  0  0  0  0  0  0  0999 V2000
    6.3398   -2.2445   -2.7012 C   0  0  0  0  0  0  0  0  0  0  0  0
    5.2823   -2.5415   -1.6564 C   0  0  0  0  0  0  0  0  0  0  0  0
    4.6375   -1.2962   -1.3803 O   0  0  0  0  0  0  0  0  0  0  0  0
    3.6177   -1.2191   -0.4652 C   0  0  0  0  0  0  0  0  0  0  0  0
    3.2776   -2.2819    0.1157 O   0  0  0  0  0  0  0  0  0  0  0  0
    2.9003    0.0330   -0.1246 C   0  0  0  0  0  0  0  0  0  0  0  0
    3.7733    1.0767    0.4213 C   0  0  0  0  0  0  0  0  0  0  0  0
    3.3840    1.8066    1.5499 C   0  0  0  0  0  0  0  0  0  0  0  0
    4.1881    2.7897    2.0789 C   0  0  0  0  0  0  0  0  0  0  0  0
    5.4107    3.0948    1.5167 C   0  0  0  0  0  0  0  0  0  0  0  0
    5.7880    2.3639    0.3954 C   0  0  0  0  0  0  0  0  0  0  0  0
    4.9966    1.3805   -0.1432 C   0  0  0  0  0  0  0  0  0  0  0  0
    2.2764    0.5346   -1.4213 C   0  0  0  0  0  0  0  0  0  0  0  0
    0.8119    0.2946   -1.5062 C   0  0  0  0  0  0  0  0  0  0  0  0
    0.3642   -0.9630   -1.0050 N   0  0  0  0  0  0  0  0  0  0  0  0
   -1.0947   -0.8727   -0.8685 C   0  0  0  0  0  0  0  0  0  0  0  0
   -1.3447    0.1171    0.2496 C   0  0  0  0  0  0  0  0  0  0  0  0
   -2.8225    0.3172    0.5130 C   0  0  0  0  0  0  0  0  0  0  0  0
   -2.9284    1.2854    1.6018 C   0  0  0  0  0  0  0  0  0  0  0  0
   -2.9960    2.0681    2.4715 N   0  0  0  0  0  0  0  0  0  0  0  0
   -3.4118    0.8788   -0.7459 C   0  0  0  0  0  0  0  0  0  0  0  0
   -4.7214    1.3129   -0.7843 C   0  0  0  0  0  0  0  0  0  0  0  0
   -5.2868    1.8331   -1.9294 C   0  0  0  0  0  0  0  0  0  0  0  0
   -4.5439    1.9322   -3.0799 C   0  0  0  0  0  0  0  0  0  0  0  0
   -3.2453    1.5072   -3.0610 C   0  0  0  0  0  0  0  0  0  0  0  0
   -2.6853    0.9881   -1.9128 C   0  0  0  0  0  0  0  0  0  0  0  0
   -3.4858   -0.9400    0.9173 C   0  0  0  0  0  0  0  0  0  0  0  0
   -3.3968   -2.0725    0.1290 C   0  0  0  0  0  0  0  0  0  0  0  0
   -4.0029   -3.2328    0.4924 C   0  0  0  0  0  0  0  0  0  0  0  0
   -4.7168   -3.2717    1.6700 C   0  0  0  0  0  0  0  0  0  0  0  0
   -4.8215   -2.1531    2.4770 C   0  0  0  0  0  0  0  0  0  0  0  0
   -4.2000   -0.9785    2.0954 C   0  0  0  0  0  0  0  0  0  0  0  0
    0.8651   -1.3037    0.3051 C   0  0  0  0  0  0  0  0  0  0  0  0
    1.7909   -0.2430    0.8547 C   0  0  0  0  0  0  0  0  0  0  0  0
  1  2  1  0
  2  3  1  0
  3  4  1  0
  4  5  2  0
  4  6  1  0
  6  7  1  0
  7  8  2  0
  8  9  1  0
  9 10  2  0
 10 11  1  0
 11 12  2  0
  6 13  1  0
 13 14  1  0
 14 15  1  0
 15 16  1  0
 16 17  1  0
 17 18  1  0
 18 19  1  0
 19 20  3  0
 18 21  1  0
 21 22  2  0
 22 23  1  0
 23 24  2  0
 24 25  1  0
 25 26  2  0
 18 27  1  0
 27 28  2  0
 28 29  1  0
 29 30  2  0
 30 31  1  0
 31 32  2  0
 15 33  1  0
 33 34  1  0
 34  6  1  0
 12  7  1  0
 26 21  1  0
 32 27  1  0
M  END
>  <zinc_id>  (1) 
ZINC000003830716

>  <smiles>  (1) 
CCOC(=O)C1(c2ccccc2)CCN(CCC(C#N)(c2ccccc2)c2ccccc2)CC1

$$$$
