
     RDKit          3D

 30 33  0  0  0  0  0  0  0  0999 V2000
   -5.7927    4.6672    0.2738 C   0  0  0  0  0  0  0  0  0  0  0  0
   -6.0181    3.4215    0.9062 O   0  0  0  0  0  0  0  0  0  0  0  0
   -5.1562    2.3475    0.7711 C   0  0  0  0  0  0  0  0  0  0  0  0
   -5.3389    1.1216    1.3680 C   0  0  0  0  0  0  0  0  0  0  0  0
   -4.4447    0.0629    1.2062 C   0  0  0  0  0  0  0  0  0  0  0  0
   -3.3269    0.2268    0.4227 C   0  0  0  0  0  0  0  0  0  0  0  0
   -2.3638   -0.8428    0.2196 C   0  0  0  0  0  0  0  0  0  0  0  0
   -2.4732   -2.1041    0.7710 C   0  0  0  0  0  0  0  0  0  0  0  0
   -1.3589   -2.7996    0.3374 C   0  0  0  0  0  0  0  0  0  0  0  0
   -0.9411   -4.1059    0.5742 C   0  0  0  0  0  0  0  0  0  0  0  0
    0.2355   -4.5770    0.0142 C   0  0  0  0  0  0  0  0  0  0  0  0
    0.9844   -3.7341   -0.7788 C   0  0  0  0  0  0  0  0  0  0  0  0
    0.5677   -2.4195   -1.0194 C   0  0  0  0  0  0  0  0  0  0  0  0
   -0.6087   -1.9434   -0.4614 C   0  0  0  0  0  0  0  0  0  0  0  0
   -1.2419   -0.7621   -0.5161 N   0  0  0  0  0  0  0  0  0  0  0  0
   -0.8531    0.4337   -1.2116 C   0  0  0  0  0  0  0  0  0  0  0  0
    0.0662    1.2756   -0.0933 C   0  0  2  0  0  0  0  0  0  0  0  0
    0.2989    2.4347   -1.1087 O   0  0  0  0  0  0  0  0  0  0  0  0
    1.4785    0.5084   -0.6240 C   0  0  0  0  0  0  0  0  0  0  0  0
    2.5093    1.4668   -0.3508 N   0  0  0  0  0  0  0  0  0  0  0  0
    2.7452    1.6620    1.0764 C   0  0  0  0  0  0  0  0  0  0  0  0
    3.3542    0.3362    1.5425 C   0  0  0  0  0  0  0  0  0  0  0  0
    4.6274    0.0951    0.7645 C   0  0  0  0  0  0  0  0  0  0  0  0
    5.8064    0.5595    1.2754 C   0  0  0  0  0  0  0  0  0  0  0  0
    6.9795    0.3572    0.5889 C   0  0  0  0  0  0  0  0  0  0  0  0
    7.0070   -0.3077   -0.6153 C   0  0  0  0  0  0  0  0  0  0  0  0
    5.8026   -0.7602   -1.0968 C   0  0  0  0  0  0  0  0  0  0  0  0
    4.6157   -0.5688   -0.4263 C   0  0  0  0  0  0  0  0  0  0  0  0
   -3.1383    1.4521   -0.1774 C   0  0  0  0  0  0  0  0  0  0  0  0
   -4.0222    2.4966   -0.0175 C   0  0  0  0  0  0  0  0  0  0  0  0
  1  2  1  0
  2  3  1  0
  3  4  2  0
  4  5  1  0
  5  6  2  0
  6  7  1  0
  7  8  2  0
  8  9  1  0
  9 10  2  0
 10 11  1  0
 11 12  2  0
 12 13  1  0
 13 14  2  0
 14 15  1  0
 15 16  1  0
 16 17  1  0
 17 18  1  6
 17 19  1  0
 19 20  1  0
 20 21  1  0
 21 22  1  0
 22 23  1  0
 23 24  2  0
 24 25  1  0
 25 26  2  0
 26 27  1  0
 27 28  2  0
  6 29  1  0
 29 30  2  0
 30  3  1  0
 15  7  1  0
 28 23  1  0
 14  9  1  0
M  END
>  <zinc_id>  (1) 
ZINC000001889545

>  <smiles>  (1) 
COc1ccc(-c2cc3ccccc3n2C[C@H](O)CNCCc2ccccc2)cc1

$$$$
