
     RDKit          3D

 31 35  0  0  0  0  0  0  0  0999 V2000
    0.0037   -2.8561   -1.6354 N   0  0  0  0  0  0  0  0  0  0  0  0
   -0.3580   -1.5350   -1.2431 C   0  0  0  0  0  0  0  0  0  0  0  0
    0.4991   -0.4690   -1.1676 C   0  0  0  0  0  0  0  0  0  0  0  0
    1.9254   -0.4757   -1.4670 C   0  0  0  0  0  0  0  0  0  0  0  0
    2.4723   -1.5443   -1.8376 O   0  0  0  0  0  0  0  0  0  0  0  0
    2.7381    0.6774   -1.3610 N   0  0  0  0  0  0  0  0  0  0  0  0
    4.1490    0.5725   -1.6819 C   0  0  0  0  0  0  0  0  0  0  0  0
    4.9334   -0.0958   -0.6096 C   0  0  0  0  0  0  0  0  0  0  0  0
    5.1226   -1.4744   -0.5896 C   0  0  0  0  0  0  0  0  0  0  0  0
    5.8413   -2.0932    0.3858 C   0  0  0  0  0  0  0  0  0  0  0  0
    6.4206   -1.3547    1.4141 C   0  0  0  0  0  0  0  0  0  0  0  0
    6.2480    0.0209    1.4186 C   0  0  0  0  0  0  0  0  0  0  0  0
    5.5153    0.6088    0.4154 C   0  0  0  0  0  0  0  0  0  0  0  0
   -0.2691    0.6148   -0.7480 C   0  0  0  0  0  0  0  0  0  0  0  0
    0.0490    1.8995   -0.5108 N   0  0  0  0  0  0  0  0  0  0  0  0
   -0.9553    2.7173   -0.1095 C   0  0  0  0  0  0  0  0  0  0  0  0
   -0.6998    4.0564    0.1528 C   0  0  0  0  0  0  0  0  0  0  0  0
   -1.7176    4.9054    0.5641 C   0  0  0  0  0  0  0  0  0  0  0  0
   -3.0200    4.4414    0.7253 C   0  0  0  0  0  0  0  0  0  0  0  0
   -3.2514    3.1099    0.4596 C   0  0  0  0  0  0  0  0  0  0  0  0
   -2.2402    2.2589    0.0490 C   0  0  0  0  0  0  0  0  0  0  0  0
   -2.5160    0.9726   -0.1970 N   0  0  0  0  0  0  0  0  0  0  0  0
   -1.5505    0.1208   -0.5987 C   0  0  0  0  0  0  0  0  0  0  0  0
   -1.6084   -1.1778   -0.8966 N   0  0  0  0  0  0  0  0  0  0  0  0
   -2.8141   -1.9967   -0.8354 C   0  0  0  0  0  0  0  0  0  0  0  0
   -2.8925   -2.5857    0.5512 C   0  0  0  0  0  0  0  0  0  0  0  0
   -2.9594   -1.3989    1.5130 C   0  0  0  0  0  0  0  0  0  0  0  0
   -4.3642   -0.9424    1.7604 C   0  0  0  0  0  0  0  0  0  0  0  0
   -5.1785   -1.0772    0.4702 C   0  0  0  0  0  0  0  0  0  0  0  0
   -5.3352   -2.5469    0.1024 C   0  0  0  0  0  0  0  0  0  0  0  0
   -4.1875   -3.3525    0.6732 C   0  0  0  0  0  0  0  0  0  0  0  0
  1  2  1  0
  2  3  2  0
  3  4  1  0
  4  5  2  0
  4  6  1  0
  6  7  1  0
  7  8  1  0
  8  9  2  0
  9 10  1  0
 10 11  2  0
 11 12  1  0
 12 13  2  0
  3 14  1  0
 14 15  2  0
 15 16  1  0
 16 17  2  0
 17 18  1  0
 18 19  2  0
 19 20  1  0
 20 21  2  0
 21 22  1  0
 22 23  2  0
 23 24  1  0
 24 25  1  0
 25 26  1  0
 26 27  1  0
 27 28  1  0
 28 29  1  0
 29 30  1  0
 30 31  1  0
 24  2  1  0
 31 26  1  0
 13  8  1  0
 23 14  1  0
 21 16  1  0
M  END
>  <zinc_id>  (1) 
ZINC000002296827

>  <smiles>  (1) 
Nc1c(C(=O)NCc2ccccc2)c2nc3ccccc3nc2n1CC1CCCCC1

$$$$
