
     RDKit          3D

 31 34  0  0  0  0  0  0  0  0999 V2000
   -1.3916   -1.6533    3.9059 C   0  0  0  0  0  0  0  0  0  0  0  0
   -0.8267   -2.4614    2.7667 C   0  0  0  0  0  0  0  0  0  0  0  0
    0.4343   -1.9636    2.3509 O   0  0  0  0  0  0  0  0  0  0  0  0
    0.6168   -0.6731    1.8772 C   0  0  0  0  0  0  0  0  0  0  0  0
   -0.4061    0.2418    1.7653 C   0  0  0  0  0  0  0  0  0  0  0  0
   -0.2507    1.5270    1.2988 C   0  0  0  0  0  0  0  0  0  0  0  0
   -1.2833    2.5052    1.1619 C   0  0  0  0  0  0  0  0  0  0  0  0
   -2.4239    2.3064    0.6104 C   0  0  0  0  0  0  0  0  0  0  0  0
   -3.3721    3.4156    0.5577 C   0  0  0  0  0  0  0  0  0  0  0  0
   -4.1133    4.3007    0.5136 N   0  0  0  0  0  0  0  0  0  0  0  0
   -2.7806    1.0417   -0.0063 C   0  0  0  0  0  0  0  0  0  0  0  0
   -4.0119    0.7885   -0.5545 N   0  0  0  0  0  0  0  0  0  0  0  0
   -4.0546   -0.4432   -1.0752 C   0  0  0  0  0  0  0  0  0  0  0  0
   -5.0599   -1.1660   -1.7379 C   0  0  0  0  0  0  0  0  0  0  0  0
   -4.8325   -2.4474   -2.1844 C   0  0  0  0  0  0  0  0  0  0  0  0
   -3.5910   -3.0001   -1.9630 C   0  0  0  0  0  0  0  0  0  0  0  0
   -2.6009   -2.2934   -1.3126 C   0  0  0  0  0  0  0  0  0  0  0  0
   -2.8222   -1.0121   -0.8639 C   0  0  0  0  0  0  0  0  0  0  0  0
   -2.1094   -0.0743   -0.2219 N   0  0  0  0  0  0  0  0  0  0  0  0
    1.0633    1.8651    0.9282 C   0  0  0  0  0  0  0  0  0  0  0  0
    2.1042    0.9528    1.0358 C   0  0  0  0  0  0  0  0  0  0  0  0
    1.9128   -0.3160    1.5042 C   0  0  0  0  0  0  0  0  0  0  0  0
    2.9241   -1.2486    1.6245 O   0  0  0  0  0  0  0  0  0  0  0  0
    4.2579   -1.1343    1.3228 C   0  0  0  0  0  0  0  0  0  0  0  0
    4.4484   -0.8614   -0.1157 C   0  0  0  0  0  0  0  0  0  0  0  0
    5.7221   -0.8206   -0.6901 C   0  0  0  0  0  0  0  0  0  0  0  0
    5.8668   -0.5756   -2.0439 C   0  0  0  0  0  0  0  0  0  0  0  0
    4.7879   -0.3643   -2.8707 C   0  0  0  0  0  0  0  0  0  0  0  0
    4.8981   -0.1064   -4.3159 C   0  0  0  0  0  0  0  0  0  0  0  0
    3.5107   -0.3999   -2.3186 C   0  0  0  0  0  0  0  0  0  0  0  0
    3.3835   -0.6497   -0.9492 C   0  0  0  0  0  0  0  0  0  0  0  0
  1  2  1  0
  2  3  1  0
  3  4  1  0
  4  5  2  0
  5  6  1  0
  6  7  1  0
  7  8  2  0
  8  9  1  0
  9 10  3  0
  8 11  1  0
 11 12  2  0
 12 13  1  0
 13 14  2  0
 14 15  1  0
 15 16  2  0
 16 17  1  0
 17 18  2  0
 18 19  1  0
  6 20  2  0
 20 21  1  0
 21 22  2  0
 22 23  1  0
 23 24  1  0
 24 25  1  0
 25 26  2  0
 26 27  1  0
 27 28  2  0
 28 29  1  0
 28 30  1  0
 30 31  2  0
 22  4  1  0
 31 25  1  0
 19 11  1  0
 18 13  1  0
M  END
>  <zinc_id>  (1) 
ZINC000004423466

>  <smiles>  (1) 
CCOc1cc(/C=C(/C#N)c2nc3ccccc3[nH]2)ccc1OCc1ccc(C)cc1

$$$$
