
     RDKit          3D

 30 33  0  0  0  0  0  0  0  0999 V2000
    5.7120    2.9246    0.2764 C   0  0  0  0  0  0  0  0  0  0  0  0
    6.4506    2.0850   -0.7632 C   0  0  0  0  0  0  0  0  0  0  0  0
    6.3798    0.7184   -0.4487 O   0  0  0  0  0  0  0  0  0  0  0  0
    5.1311    0.0840   -0.3585 C   0  0  0  0  0  0  0  0  0  0  0  0
    5.0153   -1.2441   -0.0550 C   0  0  0  0  0  0  0  0  0  0  0  0
    3.7557   -1.8492    0.0279 C   0  0  0  0  0  0  0  0  0  0  0  0
    2.6084   -1.1313   -0.1916 C   0  0  0  0  0  0  0  0  0  0  0  0
    1.3058   -1.6839   -0.1229 N   0  0  0  0  0  0  0  0  0  0  0  0
    0.1349   -0.9101   -0.3472 C   0  0  0  0  0  0  0  0  0  0  0  0
    0.2886    0.2803   -0.6091 O   0  0  0  0  0  0  0  0  0  0  0  0
   -1.2407   -1.5109   -0.2680 C   0  0  0  0  0  0  0  0  0  0  0  0
   -2.3375   -0.7195   -0.3366 C   0  0  0  0  0  0  0  0  0  0  0  0
   -2.6736    0.6239   -0.1325 N   0  0  0  0  0  0  0  0  0  0  0  0
   -2.1338    1.6750    0.5330 C   0  0  0  0  0  0  0  0  0  0  0  0
   -1.0972    1.5718    1.2031 O   0  0  0  0  0  0  0  0  0  0  0  0
   -2.7586    3.0413    0.5027 C   0  0  0  0  0  0  0  0  0  0  0  0
   -3.9081    3.2063   -0.2228 C   0  0  0  0  0  0  0  0  0  0  0  0
   -4.5031    4.4510   -0.2678 C   0  0  0  0  0  0  0  0  0  0  0  0
   -3.9589    5.5255    0.4043 C   0  0  0  0  0  0  0  0  0  0  0  0
   -2.8109    5.3484    1.1253 C   0  0  0  0  0  0  0  0  0  0  0  0
   -2.2163    4.0936    1.1672 C   0  0  0  0  0  0  0  0  0  0  0  0
   -3.6253   -1.9200   -0.5034 S   0  0  0  0  0  0  0  0  0  0  0  0
   -2.6914   -3.3294   -0.4638 C   0  0  0  0  0  0  0  0  0  0  0  0
   -1.4227   -2.8710   -0.3295 C   0  0  0  0  0  0  0  0  0  0  0  0
   -0.2829   -3.9036   -0.2491 C   0  0  0  0  0  0  0  0  0  0  0  0
   -0.8874   -5.1198    0.4171 C   0  0  0  0  0  0  0  0  0  0  0  0
   -1.8843   -5.6586   -0.6218 C   0  0  0  0  0  0  0  0  0  0  0  0
   -3.0752   -4.7936   -0.5476 C   0  0  0  0  0  0  0  0  0  0  0  0
    2.7413    0.2040   -0.4960 C   0  0  0  0  0  0  0  0  0  0  0  0
    3.9842    0.8119   -0.5803 C   0  0  0  0  0  0  0  0  0  0  0  0
  1  2  1  0
  2  3  1  0
  3  4  1  0
  4  5  2  0
  5  6  1  0
  6  7  2  0
  7  8  1  0
  8  9  1  0
  9 10  2  0
  9 11  1  0
 11 12  2  0
 12 13  1  0
 13 14  1  0
 14 15  2  0
 14 16  1  0
 16 17  2  0
 17 18  1  0
 18 19  2  0
 19 20  1  0
 20 21  2  0
 12 22  1  0
 22 23  1  0
 23 24  2  0
 24 25  1  0
 25 26  1  0
 26 27  1  0
 27 28  1  0
  7 29  1  0
 29 30  2  0
 30  4  1  0
 24 11  1  0
 21 16  1  0
 28 23  1  0
M  END
>  <zinc_id>  (1) 
ZINC000002904844

>  <smiles>  (1) 
CCOc1ccc(NC(=O)c2c(NC(=O)c3ccccc3)sc3c2CCCC3)cc1

$$$$
