
     RDKit          3D

 31 33  0  0  0  0  0  0  0  0999 V2000
    4.7878    1.3853    2.3649 C   0  0  0  0  0  0  0  0  0  0  0  0
    5.1363    0.6458    1.1159 C   0  0  0  0  0  0  0  0  0  0  0  0
    6.2983   -0.0922    1.0374 C   0  0  0  0  0  0  0  0  0  0  0  0
    6.6072   -0.7698   -0.1218 C   0  0  0  0  0  0  0  0  0  0  0  0
    5.7156   -0.6716   -1.1687 C   0  0  0  0  0  0  0  0  0  0  0  0
    4.5489    0.0723   -1.0831 C   0  0  0  0  0  0  0  0  0  0  0  0
    3.5903    0.1767   -2.2112 C   0  0  0  0  0  0  0  0  0  0  0  0
    4.0447   -0.6239   -3.4102 C   0  0  0  0  0  0  0  0  0  0  0  0
    3.2588    1.5951   -2.5560 C   0  0  0  0  0  0  0  0  0  0  0  0
    4.2353    0.7518    0.0742 C   0  0  0  0  0  0  0  0  0  0  0  0
    3.0422    1.5162    0.1694 N   0  0  0  0  0  0  0  0  0  0  0  0
    1.8748    0.8128    0.6481 C   0  0  0  0  0  0  0  0  0  0  0  0
    1.9737   -0.4089    0.9465 O   0  0  0  0  0  0  0  0  0  0  0  0
    0.5738    1.5060    0.7908 C   0  0  0  0  0  0  0  0  0  0  0  0
   -0.3750    0.6074    1.2566 O   0  0  0  0  0  0  0  0  0  0  0  0
   -0.7607   -0.5630    0.5937 C   0  0  0  0  0  0  0  0  0  0  0  0
   -0.1972   -0.7937   -0.4922 O   0  0  0  0  0  0  0  0  0  0  0  0
   -1.7826   -1.3897    1.2446 C   0  0  0  0  0  0  0  0  0  0  0  0
   -3.1808   -1.1419    0.8118 C   0  0  0  0  0  0  0  0  0  0  0  0
   -3.4622   -1.3568   -0.6104 C   0  0  0  0  0  0  0  0  0  0  0  0
   -2.6953   -0.8360   -1.6281 C   0  0  0  0  0  0  0  0  0  0  0  0
   -3.0486   -1.0988   -2.9227 C   0  0  0  0  0  0  0  0  0  0  0  0
   -4.1474   -1.8674   -3.2112 C   0  0  0  0  0  0  0  0  0  0  0  0
   -4.9221   -2.3937   -2.1901 C   0  0  0  0  0  0  0  0  0  0  0  0
   -4.5719   -2.1332   -0.9092 C   0  0  0  0  0  0  0  0  0  0  0  0
   -3.7998    0.0806    1.3744 C   0  0  0  0  0  0  0  0  0  0  0  0
   -3.1264    1.2870    1.3644 C   0  0  0  0  0  0  0  0  0  0  0  0
   -3.7929    2.3695    1.9152 C   0  0  0  0  0  0  0  0  0  0  0  0
   -5.0446    2.2729    2.4435 C   0  0  0  0  0  0  0  0  0  0  0  0
   -5.7142    1.0743    2.4536 C   0  0  0  0  0  0  0  0  0  0  0  0
   -5.0660   -0.0130    1.9098 C   0  0  0  0  0  0  0  0  0  0  0  0
  1  2  1  0
  2  3  2  0
  3  4  1  0
  4  5  2  0
  5  6  1  0
  6  7  1  0
  7  8  1  0
  7  9  1  0
  6 10  2  0
 10 11  1  0
 11 12  1  0
 12 13  2  0
 12 14  1  0
 14 15  1  0
 15 16  1  0
 16 17  2  0
 16 18  1  0
 18 19  1  0
 19 20  1  0
 20 21  2  0
 21 22  1  0
 22 23  2  0
 23 24  1  0
 24 25  2  0
 19 26  1  0
 26 27  2  0
 27 28  1  0
 28 29  2  0
 29 30  1  0
 30 31  2  0
 10  2  1  0
 25 20  1  0
 31 26  1  0
M  END
>  <zinc_id>  (1) 
ZINC000003217623

>  <smiles>  (1) 
Cc1cccc(C(C)C)c1NC(=O)COC(=O)CC(c1ccccc1)c1ccccc1

$$$$
