
     RDKit          3D

 30 33  0  0  0  0  0  0  0  0999 V2000
   -1.2101    0.8850    1.9125 O   0  0  0  0  0  0  0  0  0  0  0  0
   -0.8106    1.3253    0.7874 C   0  0  0  0  0  0  0  0  0  0  0  0
    0.5240    1.8187    0.7456 N   0  0  0  0  0  0  0  0  0  0  0  0
    1.3523    1.7993    1.9614 C   0  0  0  0  0  0  0  0  0  0  0  0
    1.4837    0.3662    2.4180 C   0  0  0  0  0  0  0  0  0  0  0  0
    2.0969   -0.3778    1.3856 O   0  0  0  0  0  0  0  0  0  0  0  0
    3.3679   -0.0420    0.9358 C   0  0  0  0  0  0  0  0  0  0  0  0
    4.1173    0.9988    1.4298 C   0  0  0  0  0  0  0  0  0  0  0  0
    5.3882    1.2868    0.9373 C   0  0  0  0  0  0  0  0  0  0  0  0
    5.9490    0.5347   -0.0720 C   0  0  0  0  0  0  0  0  0  0  0  0
    5.2027   -0.5124   -0.5735 C   0  0  0  0  0  0  0  0  0  0  0  0
    3.9448   -0.8008   -0.0890 C   0  0  0  0  0  0  0  0  0  0  0  0
    5.8270   -1.3137   -1.6667 C   0  0  0  0  0  0  0  0  0  0  0  0
    7.2681   -1.6210   -1.3804 C   0  0  0  0  0  0  0  0  0  0  0  0
    8.0116   -0.5415   -0.6714 C   0  0  0  0  0  0  0  0  0  0  0  0
    7.3000    0.7913   -0.6392 C   0  0  0  0  0  0  0  0  0  0  0  0
   -1.6785    1.3218   -0.3914 C   0  0  0  0  0  0  0  0  0  0  0  0
   -1.6774    2.3363   -1.3139 C   0  0  0  0  0  0  0  0  0  0  0  0
   -2.5120    2.3077   -2.4223 C   0  0  0  0  0  0  0  0  0  0  0  0
   -3.3516    1.2301   -2.5823 C   0  0  0  0  0  0  0  0  0  0  0  0
   -3.3505    0.2223   -1.6626 C   0  0  0  0  0  0  0  0  0  0  0  0
   -2.5207    0.2513   -0.5612 C   0  0  0  0  0  0  0  0  0  0  0  0
   -2.5213   -1.0721    0.6412 S   0  0  0  0  0  0  0  0  0  0  0  0
   -3.6918   -2.3639    0.2225 C   0  0  0  0  0  0  0  0  0  0  0  0
   -5.0980   -1.9166    0.2879 C   0  0  0  0  0  0  0  0  0  0  0  0
   -5.8673   -2.0019    1.4249 C   0  0  0  0  0  0  0  0  0  0  0  0
   -7.1730   -1.5539    1.3762 C   0  0  0  0  0  0  0  0  0  0  0  0
   -7.7437   -1.0266    0.2484 C   0  0  0  0  0  0  0  0  0  0  0  0
   -6.9644   -0.9444   -0.8897 C   0  0  0  0  0  0  0  0  0  0  0  0
   -5.6624   -1.3870   -0.8545 C   0  0  0  0  0  0  0  0  0  0  0  0
  1  2  2  0
  2  3  1  0
  3  4  1  0
  4  5  1  0
  5  6  1  0
  6  7  1  0
  7  8  2  0
  8  9  1  0
  9 10  2  0
 10 11  1  0
 11 12  2  0
 11 13  1  0
 13 14  1  0
 14 15  1  0
 15 16  1  0
  2 17  1  0
 17 18  2  0
 18 19  1  0
 19 20  2  0
 20 21  1  0
 21 22  2  0
 22 23  1  0
 23 24  1  0
 24 25  1  0
 25 26  2  0
 26 27  1  0
 27 28  2  0
 28 29  1  0
 29 30  2  0
 12  7  1  0
 22 17  1  0
 30 25  1  0
 16 10  1  0
M  END
>  <zinc_id>  (1) 
ZINC000002877109

>  <smiles>  (1) 
O=C(NCCOc1ccc2c(c1)CCCC2)c1ccccc1SCc1ccccc1

$$$$
