
     RDKit          3D

 30 32  0  0  0  0  0  0  0  0999 V2000
  -10.4092   -1.3422    1.2143 C   0  0  0  0  0  0  0  0  0  0  0  0
  -10.5495    0.1744    1.1621 C   0  0  0  0  0  0  0  0  0  0  0  0
   -9.7357    0.7485    0.1768 O   0  0  0  0  0  0  0  0  0  0  0  0
   -8.3543    0.6276    0.1621 C   0  0  0  0  0  0  0  0  0  0  0  0
   -7.6450    1.2322   -0.8544 C   0  0  0  0  0  0  0  0  0  0  0  0
   -6.2595    1.1355   -0.9063 C   0  0  0  0  0  0  0  0  0  0  0  0
   -5.5782    0.4389    0.0504 C   0  0  0  0  0  0  0  0  0  0  0  0
   -4.1282    0.2837    0.0778 C   0  0  0  0  0  0  0  0  0  0  0  0
   -3.3268    0.7727   -0.7769 N   0  0  0  0  0  0  0  0  0  0  0  0
   -1.9352    0.6126   -0.7338 N   0  0  0  0  0  0  0  0  0  0  0  0
   -1.2881   -0.1907    0.2413 C   0  0  0  0  0  0  0  0  0  0  0  0
   -1.9983   -0.7752    1.0923 O   0  0  0  0  0  0  0  0  0  0  0  0
    0.1831   -0.3261    0.2426 C   0  0  0  0  0  0  0  0  0  0  0  0
    0.9425    0.3270   -0.7041 C   0  0  0  0  0  0  0  0  0  0  0  0
    2.3168    0.2228   -0.7322 C   0  0  0  0  0  0  0  0  0  0  0  0
    2.9747   -0.5602    0.2151 C   0  0  0  0  0  0  0  0  0  0  0  0
    4.3479   -0.7056    0.2411 O   0  0  0  0  0  0  0  0  0  0  0  0
    5.0929   -0.0199   -0.7465 C   0  0  0  0  0  0  0  0  0  0  0  0
    6.5520   -0.2596   -0.6072 C   0  0  0  0  0  0  0  0  0  0  0  0
    7.0825   -1.3415   -1.2960 C   0  0  0  0  0  0  0  0  0  0  0  0
    8.4369   -1.6145   -1.2044 C   0  0  0  0  0  0  0  0  0  0  0  0
    9.2920   -0.8255   -0.4317 C   0  0  0  0  0  0  0  0  0  0  0  0
    8.7572    0.2481    0.2500 C   0  0  0  0  0  0  0  0  0  0  0  0
    9.6045    1.0340    1.0186 O   0  0  0  0  0  0  0  0  0  0  0  0
    9.1929    2.1451    1.7551 C   0  0  0  0  0  0  0  0  0  0  0  0
    7.3944    0.5023    0.1426 C   0  0  0  0  0  0  0  0  0  0  0  0
    2.1929   -1.1980    1.1444 C   0  0  0  0  0  0  0  0  0  0  0  0
    0.8177   -1.1046    1.1866 C   0  0  0  0  0  0  0  0  0  0  0  0
   -6.2895   -0.1652    1.0664 C   0  0  0  0  0  0  0  0  0  0  0  0
   -7.6834   -0.0764    1.1314 C   0  0  0  0  0  0  0  0  0  0  0  0
  1  2  1  0
  2  3  1  0
  3  4  1  0
  4  5  2  0
  5  6  1  0
  6  7  2  0
  7  8  1  0
  8  9  2  0
  9 10  1  0
 10 11  1  0
 11 12  2  0
 11 13  1  0
 13 14  2  0
 14 15  1  0
 15 16  2  0
 16 17  1  0
 17 18  1  0
 18 19  1  0
 19 20  2  0
 20 21  1  0
 21 22  2  0
 22 23  1  0
 23 24  1  0
 24 25  1  0
 23 26  2  0
 16 27  1  0
 27 28  2  0
  7 29  1  0
 29 30  2  0
 30  4  1  0
 28 13  1  0
 26 19  1  0
M  END
>  <zinc_id>  (1) 
ZINC000001434130

>  <smiles>  (1) 
CCOc1ccc(/C=N/NC(=O)c2ccc(OCc3cccc(OC)c3)cc2)cc1

$$$$
