
     RDKit          3D

 32 35  0  0  0  0  0  0  0  0999 V2000
   -7.5912   -3.6967    0.0032 C   0  0  0  0  0  0  0  0  0  0  0  0
   -6.2904   -4.1207   -0.3060 O   0  0  0  0  0  0  0  0  0  0  0  0
   -5.2471   -3.2192   -0.3380 C   0  0  0  0  0  0  0  0  0  0  0  0
   -5.5423   -1.9078   -0.0620 C   0  0  0  0  0  0  0  0  0  0  0  0
   -4.6032   -0.9166   -0.0609 C   0  0  0  0  0  0  0  0  0  0  0  0
   -3.2666   -1.3413   -0.3666 C   0  0  0  0  0  0  0  0  0  0  0  0
   -2.2515   -0.3222   -0.3341 C   0  0  0  0  0  0  0  0  0  0  0  0
   -0.9065   -0.6836   -0.4521 C   0  0  0  0  0  0  0  0  0  0  0  0
    0.0990    0.2330   -0.3757 C   0  0  0  0  0  0  0  0  0  0  0  0
    1.5341   -0.1935   -0.3187 C   0  0  0  0  0  0  0  0  0  0  0  0
    2.0550   -0.6719   -1.3750 O   0  0  0  0  0  0  0  0  0  0  0  0
    2.2437   -0.0796    0.8398 N   0  0  0  0  0  0  0  0  0  0  0  0
    3.5962   -0.3712    1.2993 C   0  0  1  0  0  0  0  0  0  0  0  0
    3.2729   -1.7388    2.1338 C   0  0  0  0  0  0  0  0  0  0  0  0
    4.3730   -0.9130    0.1290 C   0  0  0  0  0  0  0  0  0  0  0  0
    4.6973   -0.1254   -0.9642 C   0  0  0  0  0  0  0  0  0  0  0  0
    5.4314   -0.5833   -2.0182 C   0  0  0  0  0  0  0  0  0  0  0  0
    5.8958   -1.9171   -2.0322 C   0  0  0  0  0  0  0  0  0  0  0  0
    5.5557   -2.7027   -0.9186 C   0  0  0  0  0  0  0  0  0  0  0  0
    4.8207   -2.2082    0.1164 C   0  0  0  0  0  0  0  0  0  0  0  0
   -0.2238    1.5644   -0.1802 C   0  0  0  0  0  0  0  0  0  0  0  0
    0.7746    2.5182   -0.1105 C   0  0  0  0  0  0  0  0  0  0  0  0
    0.3937    3.8447    0.0744 C   0  0  0  0  0  0  0  0  0  0  0  0
    1.4806    4.8486    0.1328 C   0  0  0  0  0  0  0  0  0  0  0  0
    0.9338    6.2209    0.4926 C   0  0  0  0  0  0  0  0  0  0  0  0
    2.5864    4.4144    1.0569 C   0  0  0  0  0  0  0  0  0  0  0  0
   -0.9400    4.2106    0.1847 C   0  0  0  0  0  0  0  0  0  0  0  0
   -1.8998    3.2342    0.1143 C   0  0  0  0  0  0  0  0  0  0  0  0
   -1.5658    1.9029   -0.0718 C   0  0  0  0  0  0  0  0  0  0  0  0
   -2.5096    0.9537   -0.1502 N   0  0  0  0  0  0  0  0  0  0  0  0
   -2.9614   -2.6177   -0.6407 C   0  0  0  0  0  0  0  0  0  0  0  0
   -3.9448   -3.6151   -0.6366 C   0  0  0  0  0  0  0  0  0  0  0  0
  1  2  1  0
  2  3  1  0
  3  4  2  0
  4  5  1  0
  5  6  2  0
  6  7  1  0
  7  8  2  0
  8  9  1  0
  9 10  1  0
 10 11  2  0
 10 12  1  0
 12 13  1  0
 13 14  1  6
 13 15  1  0
 15 16  2  0
 16 17  1  0
 17 18  2  0
 18 19  1  0
 19 20  2  0
  9 21  2  0
 21 22  1  0
 22 23  2  0
 23 24  1  0
 24 25  1  0
 24 26  1  0
 23 27  1  0
 27 28  2  0
 28 29  1  0
 29 30  2  0
  6 31  1  0
 31 32  2  0
 32  3  1  0
 30  7  1  0
 20 15  1  0
 29 21  1  0
M  END
>  <zinc_id>  (1) 
ZINC000003046896

>  <smiles>  (1) 
COc1ccc(-c2cc(C(=O)N[C@H](C)c3ccccc3)c3cc(C(C)C)ccc3n2)cc1

$$$$
