
     RDKit          3D

 33 36  0  0  0  0  0  0  0  0999 V2000
    8.5720   -2.0043   -0.8973 C   0  0  0  0  0  0  0  0  0  0  0  0
    7.2278   -1.3091   -0.8035 C   0  0  0  0  0  0  0  0  0  0  0  0
    6.2045   -2.2549   -0.5471 O   0  0  0  0  0  0  0  0  0  0  0  0
    4.8989   -1.7693   -0.4326 C   0  0  0  0  0  0  0  0  0  0  0  0
    4.6103   -0.4305   -0.5626 C   0  0  0  0  0  0  0  0  0  0  0  0
    3.3203   -0.0165   -0.4401 C   0  0  0  0  0  0  0  0  0  0  0  0
    2.2796   -0.8897   -0.1886 C   0  0  0  0  0  0  0  0  0  0  0  0
    0.9778   -0.3411   -0.0754 N   0  0  0  0  0  0  0  0  0  0  0  0
    0.6280    1.0613   -0.0434 C   0  0  0  0  0  0  0  0  0  0  0  0
    1.4921    1.9754   -0.1196 O   0  0  0  0  0  0  0  0  0  0  0  0
   -0.8187    1.1841    0.0851 C   0  0  0  0  0  0  0  0  0  0  0  0
   -1.6086    2.3526    0.1535 N   0  0  0  0  0  0  0  0  0  0  0  0
   -1.2818    3.6705   -0.1281 C   0  0  0  0  0  0  0  0  0  0  0  0
   -0.0426    4.0846   -0.5298 C   0  0  0  0  0  0  0  0  0  0  0  0
    0.2691    5.3816   -0.7988 C   0  0  0  0  0  0  0  0  0  0  0  0
   -0.6828    6.3600   -0.6724 C   0  0  0  0  0  0  0  0  0  0  0  0
   -1.9424    5.9831   -0.2702 C   0  0  0  0  0  0  0  0  0  0  0  0
   -2.2558    4.6696    0.0012 C   0  0  0  0  0  0  0  0  0  0  0  0
   -3.6275    4.3377    0.4233 C   0  0  0  0  0  0  0  0  0  0  0  0
   -3.7275    4.0700    1.8956 C   0  0  0  0  0  0  0  0  0  0  0  0
   -1.3579   -0.0565    0.1326 C   0  0  0  0  0  0  0  0  0  0  0  0
   -3.1189   -0.3897    0.2880 S   0  0  0  0  0  0  0  0  0  0  0  0
   -3.3882   -2.1319    0.2733 C   0  0  0  0  0  0  0  0  0  0  0  0
   -3.3746   -2.9109    1.4070 C   0  0  0  0  0  0  0  0  0  0  0  0
   -3.5906   -4.2849    1.3749 C   0  0  0  0  0  0  0  0  0  0  0  0
   -3.8287   -4.9078    0.1710 C   0  0  0  0  0  0  0  0  0  0  0  0
   -4.0680   -6.3857    0.0693 C   0  0  0  0  0  0  0  0  0  0  0  0
   -3.8461   -4.1413   -0.9789 C   0  0  0  0  0  0  0  0  0  0  0  0
   -3.6319   -2.7832   -0.9416 C   0  0  0  0  0  0  0  0  0  0  0  0
   -0.2726   -1.0018    0.0351 C   0  0  0  0  0  0  0  0  0  0  0  0
   -0.4584   -2.2605    0.0511 O   0  0  0  0  0  0  0  0  0  0  0  0
    2.5683   -2.2255   -0.0597 C   0  0  0  0  0  0  0  0  0  0  0  0
    3.8748   -2.6356   -0.1850 C   0  0  0  0  0  0  0  0  0  0  0  0
  1  2  1  0
  2  3  1  0
  3  4  1  0
  4  5  2  0
  5  6  1  0
  6  7  2  0
  7  8  1  0
  8  9  1  0
  9 10  2  0
  9 11  1  0
 11 12  1  0
 12 13  1  0
 13 14  2  0
 14 15  1  0
 15 16  2  0
 16 17  1  0
 17 18  2  0
 18 19  1  0
 19 20  1  0
 11 21  2  0
 21 22  1  0
 22 23  1  0
 23 24  2  0
 24 25  1  0
 25 26  2  0
 26 27  1  0
 26 28  1  0
 28 29  2  0
 21 30  1  0
 30 31  2  0
  7 32  1  0
 32 33  2  0
 33  4  1  0
 30  8  1  0
 18 13  1  0
 29 23  1  0
M  END
>  <zinc_id>  (1) 
ZINC000001928693

>  <smiles>  (1) 
CCOc1ccc(N2C(=O)C(Nc3ccccc3CC)=C(Sc3ccc(C)cc3)C2=O)cc1

$$$$
