
     RDKit          3D

 30 33  0  0  0  0  0  0  0  0999 V2000
    2.6290    2.0364   -4.9130 C   0  0  0  0  0  0  0  0  0  0  0  0
    2.8529    0.5675   -4.5423 C   0  0  0  0  0  0  0  0  0  0  0  0
    2.2887    0.3790   -3.2589 O   0  0  0  0  0  0  0  0  0  0  0  0
    2.7484    1.1112   -2.1518 C   0  0  0  0  0  0  0  0  0  0  0  0
    3.7688    2.0366   -2.2981 C   0  0  0  0  0  0  0  0  0  0  0  0
    4.1699    2.7213   -1.1617 C   0  0  0  0  0  0  0  0  0  0  0  0
    3.5944    2.5086    0.0715 C   0  0  0  0  0  0  0  0  0  0  0  0
    2.5866    1.5805    0.1632 C   0  0  0  0  0  0  0  0  0  0  0  0
    2.1455    0.8680   -0.9361 C   0  0  0  0  0  0  0  0  0  0  0  0
    1.0935   -0.0943   -0.8162 N   0  0  0  0  0  0  0  0  0  0  0  0
    0.4744   -0.3414    0.4425 C   0  0  0  0  0  0  0  0  0  0  0  0
    0.9091    0.3265    1.3992 O   0  0  0  0  0  0  0  0  0  0  0  0
   -0.6248   -1.3406    0.5894 C   0  0  0  0  0  0  0  0  0  0  0  0
   -1.2160   -1.5109    1.8027 C   0  0  0  0  0  0  0  0  0  0  0  0
   -1.1584   -0.8917    3.0569 N   0  0  0  0  0  0  0  0  0  0  0  0
   -0.5883    0.2028    3.6526 C   0  0  0  0  0  0  0  0  0  0  0  0
   -1.3020    1.4650    3.2271 C   0  0  0  0  0  0  0  0  0  0  0  0
   -0.8737    2.6795    3.7225 C   0  0  0  0  0  0  0  0  0  0  0  0
   -1.5590    3.8039    3.3033 C   0  0  0  0  0  0  0  0  0  0  0  0
   -2.6226    3.7301    2.4312 C   0  0  0  0  0  0  0  0  0  0  0  0
   -3.0052    2.5153    1.9729 N   0  0  0  0  0  0  0  0  0  0  0  0
   -2.3677    1.3936    2.3536 C   0  0  0  0  0  0  0  0  0  0  0  0
   -2.3286   -2.8108    1.4899 S   0  0  0  0  0  0  0  0  0  0  0  0
   -1.9831   -3.0643   -0.1678 C   0  0  0  0  0  0  0  0  0  0  0  0
   -1.0297   -2.1504   -0.4299 C   0  0  0  0  0  0  0  0  0  0  0  0
   -0.4809   -2.0909   -1.8581 C   0  0  0  0  0  0  0  0  0  0  0  0
   -0.7205   -3.4337   -2.4669 C   0  0  0  0  0  0  0  0  0  0  0  0
   -2.3850   -3.3512   -2.6073 C   0  0  1  0  0  0  0  0  0  0  0  0
   -2.4501   -4.7865   -3.4236 C   0  0  0  0  0  0  0  0  0  0  0  0
   -2.5656   -4.0596   -1.1478 C   0  0  0  0  0  0  0  0  0  0  0  0
  1  2  1  0
  2  3  1  0
  3  4  1  0
  4  5  2  0
  5  6  1  0
  6  7  2  0
  7  8  1  0
  8  9  2  0
  9 10  1  0
 10 11  1  0
 11 12  2  0
 11 13  1  0
 13 14  2  0
 14 15  1  0
 15 16  1  0
 16 17  1  0
 17 18  2  0
 18 19  1  0
 19 20  2  0
 20 21  1  0
 21 22  2  0
 14 23  1  0
 23 24  1  0
 24 25  2  0
 25 26  1  0
 26 27  1  0
 27 28  1  0
 28 29  1  6
 28 30  1  0
  9  4  1  0
 25 13  1  0
 22 17  1  0
 30 24  1  0
M  END
>  <zinc_id>  (1) 
ZINC000000920924

>  <smiles>  (1) 
CCOc1ccccc1NC(=O)c1c(NCc2cccnc2)sc2c1CC[C@@H](C)C2

$$$$
