
     RDKit          3D

 30 33  0  0  0  0  0  0  0  0999 V2000
    9.0199   -2.0462    1.6902 C   0  0  0  0  0  0  0  0  0  0  0  0
    9.0197   -0.6855    1.0261 C   0  0  0  0  0  0  0  0  0  0  0  0
    8.6610   -0.8173   -0.4401 C   0  0  0  0  0  0  0  0  0  0  0  0
    8.6591    0.5225   -1.1015 C   0  0  0  0  0  0  0  0  0  0  0  0
    7.7420    1.4144   -0.5335 O   0  0  0  0  0  0  0  0  0  0  0  0
    6.3729    1.0955   -0.5255 C   0  0  0  0  0  0  0  0  0  0  0  0
    5.8907   -0.0672   -1.0572 C   0  0  0  0  0  0  0  0  0  0  0  0
    4.5432   -0.3531   -1.0351 C   0  0  0  0  0  0  0  0  0  0  0  0
    3.6298    0.5228   -0.4757 C   0  0  0  0  0  0  0  0  0  0  0  0
    2.2089    0.2604   -0.4325 C   0  0  0  0  0  0  0  0  0  0  0  0
    1.7462   -0.7938   -0.9116 O   0  0  0  0  0  0  0  0  0  0  0  0
    1.3374    1.1972    0.1527 N   0  0  0  0  0  0  0  0  0  0  0  0
   -0.0474    0.9605    0.2044 C   0  0  0  0  0  0  0  0  0  0  0  0
   -0.9436    1.8524    0.7700 C   0  0  0  0  0  0  0  0  0  0  0  0
   -2.2970    1.5871    0.8032 C   0  0  0  0  0  0  0  0  0  0  0  0
   -2.7624    0.4238    0.2689 C   0  0  0  0  0  0  0  0  0  0  0  0
   -4.1992    0.0893    0.2774 C   0  0  0  0  0  0  0  0  0  0  0  0
   -4.8048   -0.9832   -0.1933 N   0  0  0  0  0  0  0  0  0  0  0  0
   -6.0971   -1.1000   -0.0920 C   0  0  0  0  0  0  0  0  0  0  0  0
   -6.8690   -2.1875   -0.5496 C   0  0  0  0  0  0  0  0  0  0  0  0
   -8.2073   -2.2012   -0.3902 C   0  0  0  0  0  0  0  0  0  0  0  0
   -8.9116   -1.1934    0.2105 C   0  0  0  0  0  0  0  0  0  0  0  0
  -10.3749   -1.2907    0.3430 C   0  0  0  0  0  0  0  0  0  0  0  0
   -8.1812   -0.1158    0.6683 C   0  0  0  0  0  0  0  0  0  0  0  0
   -6.7845   -0.0846    0.5104 C   0  0  0  0  0  0  0  0  0  0  0  0
   -5.5209    0.9954    0.9031 S   0  0  0  0  0  0  0  0  0  0  0  0
   -1.9034   -0.4739   -0.2949 C   0  0  0  0  0  0  0  0  0  0  0  0
   -0.5575   -0.2003   -0.3230 C   0  0  0  0  0  0  0  0  0  0  0  0
    4.1472    1.6903    0.0541 C   0  0  0  0  0  0  0  0  0  0  0  0
    5.4840    1.9822    0.0363 C   0  0  0  0  0  0  0  0  0  0  0  0
  1  2  1  0
  2  3  1  0
  3  4  1  0
  4  5  1  0
  5  6  1  0
  6  7  2  0
  7  8  1  0
  8  9  2  0
  9 10  1  0
 10 11  2  0
 10 12  1  0
 12 13  1  0
 13 14  2  0
 14 15  1  0
 15 16  2  0
 16 17  1  0
 17 18  2  0
 18 19  1  0
 19 20  2  0
 20 21  1  0
 21 22  2  0
 22 23  1  0
 22 24  1  0
 24 25  2  0
 25 26  1  0
 16 27  1  0
 27 28  2  0
  9 29  1  0
 29 30  2  0
 30  6  1  0
 28 13  1  0
 26 17  1  0
 25 19  1  0
M  END
>  <zinc_id>  (1) 
ZINC000002027713

>  <smiles>  (1) 
CCCCOc1ccc(C(=O)Nc2ccc(-c3nc4ccc(C)cc4s3)cc2)cc1

$$$$
