
     RDKit          3D

 32 35  0  0  0  0  0  0  0  0999 V2000
   -6.9915   -0.8358    4.4445 C   0  0  0  0  0  0  0  0  0  0  0  0
   -6.2150   -1.3403    3.3528 O   0  0  0  0  0  0  0  0  0  0  0  0
   -4.9817   -0.7346    3.0708 C   0  0  0  0  0  0  0  0  0  0  0  0
   -4.5137    0.3243    3.8225 C   0  0  0  0  0  0  0  0  0  0  0  0
   -3.3014    0.9285    3.5527 C   0  0  0  0  0  0  0  0  0  0  0  0
   -2.5070    0.4864    2.5069 C   0  0  0  0  0  0  0  0  0  0  0  0
   -1.2811    1.1644    2.2992 N   0  0  0  0  0  0  0  0  0  0  0  0
   -0.3784    0.8749    1.2428 C   0  0  0  0  0  0  0  0  0  0  0  0
   -0.6663    0.7770   -0.0355 C   0  0  0  0  0  0  0  0  0  0  0  0
   -2.3346    1.0067   -0.6753 S   0  0  0  0  0  0  0  0  0  0  0  0
   -2.3160    0.7992   -2.4453 C   0  0  0  0  0  0  0  0  0  0  0  0
   -2.5033   -0.4319   -3.0339 C   0  0  0  0  0  0  0  0  0  0  0  0
   -2.4871   -0.5642   -4.4090 C   0  0  0  0  0  0  0  0  0  0  0  0
   -2.2844    0.5206   -5.2326 C   0  0  0  0  0  0  0  0  0  0  0  0
   -2.0975    1.7458   -4.6557 C   0  0  0  0  0  0  0  0  0  0  0  0
   -2.1160    1.8727   -3.2542 C   0  0  0  0  0  0  0  0  0  0  0  0
    0.5281    0.4675   -0.8177 C   0  0  0  0  0  0  0  0  0  0  0  0
    0.6199    0.3039   -2.0671 O   0  0  0  0  0  0  0  0  0  0  0  0
    1.6224    0.3758    0.0999 N   0  0  0  0  0  0  0  0  0  0  0  0
    2.9903    0.0889   -0.2129 C   0  0  0  0  0  0  0  0  0  0  0  0
    4.0118    0.9164    0.2037 C   0  0  0  0  0  0  0  0  0  0  0  0
    5.3424    0.6444   -0.0981 C   0  0  0  0  0  0  0  0  0  0  0  0
    5.6958   -0.4675   -0.8286 C   0  0  0  0  0  0  0  0  0  0  0  0
    7.1235   -0.7752   -1.1629 C   0  0  0  0  0  0  0  0  0  0  0  0
    7.2974   -2.2605   -0.8185 C   0  0  0  0  0  0  0  0  0  0  0  0
    8.0496    0.0057   -0.2680 C   0  0  0  0  0  0  0  0  0  0  0  0
    4.6724   -1.2921   -1.2430 C   0  0  0  0  0  0  0  0  0  0  0  0
    3.3510   -1.0234   -0.9444 C   0  0  0  0  0  0  0  0  0  0  0  0
    1.0427    0.6322    1.3810 C   0  0  0  0  0  0  0  0  0  0  0  0
    1.7653    0.6241    2.4303 O   0  0  0  0  0  0  0  0  0  0  0  0
   -2.9624   -0.5622    1.7571 C   0  0  0  0  0  0  0  0  0  0  0  0
   -4.1751   -1.1561    2.0384 C   0  0  0  0  0  0  0  0  0  0  0  0
  1  2  1  0
  2  3  1  0
  3  4  2  0
  4  5  1  0
  5  6  2  0
  6  7  1  0
  7  8  1  0
  8  9  2  0
  9 10  1  0
 10 11  1  0
 11 12  2  0
 12 13  1  0
 13 14  2  0
 14 15  1  0
 15 16  2  0
  9 17  1  0
 17 18  2  0
 17 19  1  0
 19 20  1  0
 20 21  2  0
 21 22  1  0
 22 23  2  0
 23 24  1  0
 24 25  1  0
 24 26  1  0
 23 27  1  0
 27 28  2  0
 19 29  1  0
 29 30  2  0
  6 31  1  0
 31 32  2  0
 32  3  1  0
 29  8  1  0
 16 11  1  0
 28 20  1  0
M  END
>  <zinc_id>  (1) 
ZINC000001954933

>  <smiles>  (1) 
COc1ccc(NC2=C(Sc3ccccc3)C(=O)N(c3ccc(C(C)C)cc3)C2=O)cc1

$$$$
