
     RDKit          3D

 29 31  0  0  0  0  0  0  0  0999 V2000
    7.8935    2.2689   -3.6220 C   0  0  0  0  0  0  0  0  0  0  0  0
    7.0917    1.5502   -2.6493 C   0  0  0  0  0  0  0  0  0  0  0  0
    7.6991    0.7028   -1.6267 C   0  0  0  0  0  0  0  0  0  0  0  0
    5.6333    1.4909   -2.8797 C   0  0  0  0  0  0  0  0  0  0  0  0
    4.9037    0.7241   -1.8236 C   0  0  0  0  0  0  0  0  0  0  0  0
    4.6764   -0.6309   -1.9430 C   0  0  0  0  0  0  0  0  0  0  0  0
    4.0029   -1.3588   -0.9471 C   0  0  0  0  0  0  0  0  0  0  0  0
    3.5492   -0.7232    0.1867 C   0  0  0  0  0  0  0  0  0  0  0  0
    2.8268   -1.5789    1.2737 C   0  0  1  0  0  0  0  0  0  0  0  0
    3.1647   -0.6574    2.5743 C   0  0  0  0  0  0  0  0  0  0  0  0
    1.3747   -1.0406    1.0553 C   0  0  0  0  0  0  0  0  0  0  0  0
    1.1033   -0.3081    0.1029 O   0  0  0  0  0  0  0  0  0  0  0  0
    0.3612   -1.3882    1.9524 N   0  0  0  0  0  0  0  0  0  0  0  0
   -0.9527   -0.9463    1.8145 C   0  0  0  0  0  0  0  0  0  0  0  0
   -1.4029   -0.3774    0.6706 C   0  0  0  0  0  0  0  0  0  0  0  0
   -2.7059    0.0644    0.5794 C   0  0  0  0  0  0  0  0  0  0  0  0
   -3.6154   -0.0334    1.6040 C   0  0  0  0  0  0  0  0  0  0  0  0
   -5.0003    0.3954    1.5344 C   0  0  0  0  0  0  0  0  0  0  0  0
   -5.5653    0.6946    2.6229 O   0  0  0  0  0  0  0  0  0  0  0  0
   -5.7202    0.4795    0.2685 C   0  0  0  0  0  0  0  0  0  0  0  0
   -5.0218    0.4230   -0.9175 C   0  0  0  0  0  0  0  0  0  0  0  0
   -5.6875    0.4922   -2.0973 C   0  0  0  0  0  0  0  0  0  0  0  0
   -7.0616    0.6198   -2.2055 C   0  0  0  0  0  0  0  0  0  0  0  0
   -7.7394    0.6735   -0.9919 C   0  0  0  0  0  0  0  0  0  0  0  0
   -7.0761    0.6040    0.2058 C   0  0  0  0  0  0  0  0  0  0  0  0
   -3.1192   -0.6273    2.7800 C   0  0  0  0  0  0  0  0  0  0  0  0
   -1.8224   -1.0652    2.8645 C   0  0  0  0  0  0  0  0  0  0  0  0
    3.7744    0.5961    0.2934 C   0  0  0  0  0  0  0  0  0  0  0  0
    4.4357    1.3217   -0.6797 C   0  0  0  0  0  0  0  0  0  0  0  0
  1  2  1  0
  2  3  1  0
  2  4  1  0
  4  5  1  0
  5  6  2  0
  6  7  1  0
  7  8  2  0
  8  9  1  0
  9 10  1  1
  9 11  1  0
 11 12  2  0
 11 13  1  0
 13 14  1  0
 14 15  2  0
 15 16  1  0
 16 17  2  0
 17 18  1  0
 18 19  2  0
 18 20  1  0
 20 21  2  0
 21 22  1  0
 22 23  2  0
 23 24  1  0
 24 25  2  0
 17 26  1  0
 26 27  2  0
  8 28  1  0
 28 29  2  0
 29  5  1  0
 27 14  1  0
 25 20  1  0
M  END
>  <zinc_id>  (1) 
ZINC000002069553

>  <smiles>  (1) 
CC(C)Cc1ccc([C@@H](C)C(=O)Nc2ccc(C(=O)c3ccccc3)cc2)cc1

$$$$
