
     RDKit          3D

 31 34  0  0  0  0  0  0  0  0999 V2000
   -5.5871   -1.4814   -0.6399 C   0  0  0  0  0  0  0  0  0  0  0  0
   -5.5603   -0.8029    0.7067 C   0  0  0  0  0  0  0  0  0  0  0  0
   -6.5432   -1.0644    1.6665 C   0  0  0  0  0  0  0  0  0  0  0  0
   -6.4612   -0.3481    2.8495 C   0  0  0  0  0  0  0  0  0  0  0  0
   -5.4806    0.5728    3.1009 C   0  0  0  0  0  0  0  0  0  0  0  0
   -4.5363    0.7743    2.1046 C   0  0  0  0  0  0  0  0  0  0  0  0
   -4.6104    0.0786    0.9530 C   0  0  0  0  0  0  0  0  0  0  0  0
   -3.2907    0.2453   -0.0075 C   0  0  1  0  0  0  0  0  0  0  0  0
   -3.3570   -1.0873   -0.5500 O   0  0  0  0  0  0  0  0  0  0  0  0
   -2.0800   -1.4455   -0.8633 C   0  0  0  0  0  0  0  0  0  0  0  0
   -1.3422   -0.5053   -1.8722 C   0  0  2  0  0  0  0  0  0  0  0  0
   -0.0615   -1.2571   -1.9334 O   0  0  0  0  0  0  0  0  0  0  0  0
   -0.9234    0.7148   -1.0495 C   0  0  0  0  0  0  0  0  0  0  0  0
   -0.4002    0.8889    0.0993 N   0  0  0  0  0  0  0  0  0  0  0  0
    0.9550    0.6479    0.4343 C   0  0  0  0  0  0  0  0  0  0  0  0
    1.6846    1.7364    1.1733 C   0  0  0  0  0  0  0  0  0  0  0  0
    0.8724   -0.5289    1.4184 C   0  0  0  0  0  0  0  0  0  0  0  0
    1.7411    0.2584   -0.8144 C   0  0  0  0  0  0  0  0  0  0  0  0
    3.1569    0.0059   -0.4644 C   0  0  0  0  0  0  0  0  0  0  0  0
    3.3994   -1.1803    0.2286 C   0  0  0  0  0  0  0  0  0  0  0  0
    4.6180   -1.6349    0.5359 C   0  0  0  0  0  0  0  0  0  0  0  0
    5.7069   -0.8606    0.1210 C   0  0  0  0  0  0  0  0  0  0  0  0
    6.9934   -1.3604    0.3835 C   0  0  0  0  0  0  0  0  0  0  0  0
    8.0808   -0.6513   -0.0565 C   0  0  0  0  0  0  0  0  0  0  0  0
    7.9224    0.5476   -0.7581 C   0  0  0  0  0  0  0  0  0  0  0  0
    6.6175    1.0142   -0.9997 C   0  0  0  0  0  0  0  0  0  0  0  0
    5.5226    0.3015   -0.5556 C   0  0  0  0  0  0  0  0  0  0  0  0
    4.2203    0.7671   -0.8607 C   0  0  0  0  0  0  0  0  0  0  0  0
   -4.0313    1.1345   -1.0707 C   0  0  0  0  0  0  0  0  0  0  0  0
   -3.5074    1.7022   -2.2566 C   0  0  0  0  0  0  0  0  0  0  0  0
   -3.7185    2.5690   -1.0229 C   0  0  0  0  0  0  0  0  0  0  0  0
  1  2  1  0
  2  3  2  0
  3  4  1  0
  4  5  2  0
  5  6  1  0
  6  7  2  0
  7  8  1  0
  8  9  1  6
  9 10  1  0
 10 11  1  0
 11 12  1  1
 11 13  1  0
 13 14  1  0
 14 15  1  0
 15 16  1  0
 15 17  1  0
 15 18  1  0
 18 19  1  0
 19 20  2  0
 20 21  1  0
 21 22  2  0
 22 23  1  0
 23 24  2  0
 24 25  1  0
 25 26  2  0
 26 27  1  0
 27 28  2  0
  8 29  1  0
 29 30  1  0
 30 31  1  0
  7  2  1  0
 28 19  1  0
 31 29  1  0
 27 22  1  0
M  END
>  <zinc_id>  (1) 
ZINC000001910467

>  <smiles>  (1) 
Cc1ccccc1[C@@H](OC[C@H](O)CNC(C)(C)Cc1ccc2ccccc2c1)C1CC1

$$$$
