
     RDKit          3D

 32 35  0  0  0  0  0  0  0  0999 V2000
    7.7399    0.7580    1.1429 C   0  0  0  0  0  0  0  0  0  0  0  0
    7.6261   -0.6554    1.6726 C   0  0  0  0  0  0  0  0  0  0  0  0
    6.7640   -1.3861    0.8565 O   0  0  0  0  0  0  0  0  0  0  0  0
    5.4321   -1.0338    0.6515 C   0  0  0  0  0  0  0  0  0  0  0  0
    4.6417   -1.8108   -0.1709 C   0  0  0  0  0  0  0  0  0  0  0  0
    3.3143   -1.4960   -0.4001 C   0  0  0  0  0  0  0  0  0  0  0  0
    2.7289   -0.3920    0.1858 C   0  0  0  0  0  0  0  0  0  0  0  0
    1.3515   -0.0734   -0.0578 N   0  0  0  0  0  0  0  0  0  0  0  0
    0.8112    1.1757   -0.4202 C   0  0  0  0  0  0  0  0  0  0  0  0
    1.4841    2.2433   -0.5860 O   0  0  0  0  0  0  0  0  0  0  0  0
   -0.6613    1.0361   -0.5714 C   0  0  0  0  0  0  0  0  0  0  0  0
   -1.4878    2.1048   -0.9296 N   0  0  0  0  0  0  0  0  0  0  0  0
   -2.7553    2.4436   -0.4748 C   0  0  0  0  0  0  0  0  0  0  0  0
   -3.5347    1.7866    0.4341 C   0  0  0  0  0  0  0  0  0  0  0  0
   -4.7842    2.2357    0.7911 C   0  0  0  0  0  0  0  0  0  0  0  0
   -5.3093    3.3947    0.2308 C   0  0  0  0  0  0  0  0  0  0  0  0
   -4.5525    4.0729   -0.6815 C   0  0  0  0  0  0  0  0  0  0  0  0
   -3.3118    3.6075   -1.0217 C   0  0  0  0  0  0  0  0  0  0  0  0
   -2.5785    4.3459   -1.9629 O   0  0  0  0  0  0  0  0  0  0  0  0
   -3.0724    5.5131   -2.5445 C   0  0  0  0  0  0  0  0  0  0  0  0
   -1.0162   -0.2197   -0.3205 C   0  0  0  0  0  0  0  0  0  0  0  0
   -2.6812   -0.9039   -0.3695 S   0  0  0  0  0  0  0  0  0  0  0  0
   -2.5803   -2.6363    0.0418 C   0  0  0  0  0  0  0  0  0  0  0  0
   -2.6611   -3.1224    1.3291 C   0  0  0  0  0  0  0  0  0  0  0  0
   -2.5787   -4.4991    1.5379 C   0  0  0  0  0  0  0  0  0  0  0  0
   -2.4215   -5.3821    0.5197 C   0  0  0  0  0  0  0  0  0  0  0  0
   -2.3370   -4.9219   -0.7797 C   0  0  0  0  0  0  0  0  0  0  0  0
   -2.4199   -3.5430   -0.9827 C   0  0  0  0  0  0  0  0  0  0  0  0
    0.2118   -0.9343    0.0016 C   0  0  0  0  0  0  0  0  0  0  0  0
    0.2813   -2.1572    0.2973 O   0  0  0  0  0  0  0  0  0  0  0  0
    3.5192    0.3792    1.0041 C   0  0  0  0  0  0  0  0  0  0  0  0
    4.8375    0.0702    1.2337 C   0  0  0  0  0  0  0  0  0  0  0  0
  1  2  1  0
  2  3  1  0
  3  4  1  0
  4  5  2  0
  5  6  1  0
  6  7  2  0
  7  8  1  0
  8  9  1  0
  9 10  2  0
  9 11  1  0
 11 12  1  0
 12 13  1  0
 13 14  2  0
 14 15  1  0
 15 16  2  0
 16 17  1  0
 17 18  2  0
 18 19  1  0
 19 20  1  0
 11 21  2  0
 21 22  1  0
 22 23  1  0
 23 24  2  0
 24 25  1  0
 25 26  2  0
 26 27  1  0
 27 28  2  0
 21 29  1  0
 29 30  2  0
  7 31  1  0
 31 32  2  0
 32  4  1  0
 29  8  1  0
 18 13  1  0
 28 23  1  0
M  END
>  <zinc_id>  (1) 
ZINC000001928667

>  <smiles>  (1) 
CCOc1ccc(N2C(=O)C(Nc3ccccc3OC)=C(Sc3ccccc3)C2=O)cc1

$$$$
