
     RDKit          3D

 33 36  0  0  0  0  0  0  0  0999 V2000
   -6.1850   -0.1038    2.8780 C   0  0  0  0  0  0  0  0  0  0  0  0
   -5.1507   -0.4765    1.8777 C   0  0  0  0  0  0  0  0  0  0  0  0
   -3.7703   -0.4766    2.0031 C   0  0  0  0  0  0  0  0  0  0  0  0
   -3.2028   -0.8866    0.8063 C   0  0  0  0  0  0  0  0  0  0  0  0
   -1.8284   -1.0664    0.4706 N   0  0  0  0  0  0  0  0  0  0  0  0
   -0.7444   -0.9036    1.3184 C   0  0  0  0  0  0  0  0  0  0  0  0
   -0.9241   -0.5669    2.5039 O   0  0  0  0  0  0  0  0  0  0  0  0
    0.6165   -1.1246    0.8405 C   0  0  0  0  0  0  0  0  0  0  0  0
    1.7860   -1.1012    1.6121 C   0  0  0  0  0  0  0  0  0  0  0  0
    2.8286   -1.3609    0.7687 C   0  0  0  0  0  0  0  0  0  0  0  0
    2.3062   -1.5349   -0.4839 C   0  0  0  0  0  0  0  0  0  0  0  0
    2.9944   -1.8446   -1.7890 C   0  0  0  0  0  0  0  0  0  0  0  0
    3.6538   -0.7244   -2.2524 O   0  0  0  0  0  0  0  0  0  0  0  0
    4.7163   -0.1643   -1.5997 C   0  0  0  0  0  0  0  0  0  0  0  0
    5.3692    0.9790   -2.0581 C   0  0  0  0  0  0  0  0  0  0  0  0
    6.4475    1.5174   -1.3834 C   0  0  0  0  0  0  0  0  0  0  0  0
    6.9088    0.9251   -0.2192 C   0  0  0  0  0  0  0  0  0  0  0  0
    8.0654    1.4375    0.5628 C   0  0  0  0  0  0  0  0  0  0  0  0
    8.0065    0.8370    1.9552 C   0  0  0  0  0  0  0  0  0  0  0  0
    9.3719    1.0078   -0.0699 C   0  0  0  0  0  0  0  0  0  0  0  0
    8.0702    2.9471    0.6159 C   0  0  0  0  0  0  0  0  0  0  0  0
    6.2507   -0.2147    0.2380 C   0  0  0  0  0  0  0  0  0  0  0  0
    5.1935   -0.7235   -0.4449 C   0  0  0  0  0  0  0  0  0  0  0  0
    0.9913   -1.3828   -0.3685 O   0  0  0  0  0  0  0  0  0  0  0  0
   -4.2341   -1.1275   -0.0253 N   0  0  0  0  0  0  0  0  0  0  0  0
   -5.3915   -0.8837    0.6121 N   0  0  0  0  0  0  0  0  0  0  0  0
   -6.6943   -1.0694    0.0135 C   0  0  0  0  0  0  0  0  0  0  0  0
   -7.1472    0.1744   -0.6420 C   0  0  0  0  0  0  0  0  0  0  0  0
   -7.9174    1.1399   -0.0603 C   0  0  0  0  0  0  0  0  0  0  0  0
   -8.3548    2.2861   -0.6602 C   0  0  0  0  0  0  0  0  0  0  0  0
   -8.0044    2.5031   -1.9733 C   0  0  0  0  0  0  0  0  0  0  0  0
   -7.2338    1.5671   -2.6042 C   0  0  0  0  0  0  0  0  0  0  0  0
   -6.7934    0.4155   -1.9895 C   0  0  0  0  0  0  0  0  0  0  0  0
  1  2  1  0
  2  3  2  0
  3  4  1  0
  4  5  1  0
  5  6  1  0
  6  7  2  0
  6  8  1  0
  8  9  2  0
  9 10  1  0
 10 11  2  0
 11 12  1  0
 12 13  1  0
 13 14  1  0
 14 15  2  0
 15 16  1  0
 16 17  2  0
 17 18  1  0
 18 19  1  0
 18 20  1  0
 18 21  1  0
 17 22  1  0
 22 23  2  0
 11 24  1  0
  4 25  2  0
 25 26  1  0
 26 27  1  0
 27 28  1  0
 28 29  2  0
 29 30  1  0
 30 31  2  0
 31 32  1  0
 32 33  2  0
 26  2  1  0
 33 28  1  0
 24  8  1  0
 23 14  1  0
M  END
>  <zinc_id>  (1) 
ZINC000002729925

>  <smiles>  (1) 
Cc1cc(NC(=O)c2ccc(COc3ccc(C(C)(C)C)cc3)o2)nn1Cc1ccccc1

$$$$
