
     RDKit          3D

 30 32  0  0  0  0  0  0  0  0999 V2000
    6.7469   -0.2714   -2.0257 C   0  0  0  0  0  0  0  0  0  0  0  0
    5.9512   -1.0917   -1.0724 C   0  0  0  0  0  0  0  0  0  0  0  0
    6.5755   -2.0843   -0.3519 C   0  0  0  0  0  0  0  0  0  0  0  0
    5.8632   -2.8793    0.5557 C   0  0  0  0  0  0  0  0  0  0  0  0
    4.4883   -2.6307    0.7077 C   0  0  0  0  0  0  0  0  0  0  0  0
    3.6647   -3.4420    1.6604 C   0  0  0  0  0  0  0  0  0  0  0  0
    3.8302   -1.6533    0.0102 C   0  0  0  0  0  0  0  0  0  0  0  0
    2.5435   -1.4335    0.1626 N   0  0  0  0  0  0  0  0  0  0  0  0
    1.4286   -0.7893   -0.1070 C   0  0  0  0  0  0  0  0  0  0  0  0
    1.6537    0.0164   -0.8797 O   0  0  0  0  0  0  0  0  0  0  0  0
    0.1985   -1.3137    0.6874 C   0  0  1  0  0  0  0  0  0  0  0  0
    0.4108   -0.4927    2.0870 C   0  0  0  0  0  0  0  0  0  0  0  0
    0.3869    0.9190    1.8148 C   0  0  0  0  0  0  0  0  0  0  0  0
    1.6010    1.5172    1.5137 C   0  0  0  0  0  0  0  0  0  0  0  0
    1.7433    2.8536    1.2328 C   0  0  0  0  0  0  0  0  0  0  0  0
    0.6146    3.6400    1.2523 C   0  0  0  0  0  0  0  0  0  0  0  0
   -0.5982    3.0754    1.5469 C   0  0  0  0  0  0  0  0  0  0  0  0
   -0.7083    1.7552    1.8196 C   0  0  0  0  0  0  0  0  0  0  0  0
   -0.8465   -0.3131    0.0888 N   0  0  0  0  0  0  0  0  0  0  0  0
   -2.1872   -0.7784    0.0565 C   0  0  0  0  0  0  0  0  0  0  0  0
   -2.5131   -1.9169    0.4797 O   0  0  0  0  0  0  0  0  0  0  0  0
   -3.1772    0.0356   -0.4537 O   0  0  0  0  0  0  0  0  0  0  0  0
   -4.5084   -0.4468   -0.4762 C   0  0  0  0  0  0  0  0  0  0  0  0
   -5.4387    0.5332   -1.0466 C   0  0  0  0  0  0  0  0  0  0  0  0
   -4.9423    1.7479   -1.4677 C   0  0  0  0  0  0  0  0  0  0  0  0
   -5.8139    2.6767   -2.0080 C   0  0  0  0  0  0  0  0  0  0  0  0
   -7.1457    2.3535   -2.1053 C   0  0  0  0  0  0  0  0  0  0  0  0
   -7.6316    1.1189   -1.6740 C   0  0  0  0  0  0  0  0  0  0  0  0
   -6.7670    0.1906   -1.1349 C   0  0  0  0  0  0  0  0  0  0  0  0
    4.5773   -0.8962   -0.8730 C   0  0  0  0  0  0  0  0  0  0  0  0
  1  2  1  0
  2  3  2  0
  3  4  1  0
  4  5  2  0
  5  6  1  0
  5  7  1  0
  7  8  1  0
  8  9  1  0
  9 10  2  0
  9 11  1  0
 11 12  1  1
 12 13  1  0
 13 14  2  0
 14 15  1  0
 15 16  2  0
 16 17  1  0
 17 18  2  0
 11 19  1  0
 19 20  1  0
 20 21  2  0
 20 22  1  0
 22 23  1  0
 23 24  1  0
 24 25  2  0
 25 26  1  0
 26 27  2  0
 27 28  1  0
 28 29  2  0
  7 30  2  0
 30  2  1  0
 18 13  1  0
 29 24  1  0
M  END
>  <zinc_id>  (1) 
ZINC000003663323

>  <smiles>  (1) 
Cc1ccc(C)c(NC(=O)[C@@H](Cc2ccccc2)NC(=O)OCc2ccccc2)c1

$$$$
