
     RDKit          3D

 30 33  0  0  0  0  0  0  0  0999 V2000
   -1.0522   -1.0111   -1.1811 C   0  0  0  0  0  0  0  0  0  0  0  0
   -2.3797   -1.3815   -0.6616 C   0  0  0  0  0  0  0  0  0  0  0  0
   -3.4355   -1.5529   -1.7062 C   0  0  0  0  0  0  0  0  0  0  0  0
   -2.8593   -0.7312    0.5906 C   0  0  0  0  0  0  0  0  0  0  0  0
   -2.9282    0.6933    0.5027 N   0  0  0  0  0  0  0  0  0  0  0  0
   -2.0454    1.5734    0.9586 C   0  0  0  0  0  0  0  0  0  0  0  0
   -0.6306    1.4389    2.0157 S   0  0  0  0  0  0  0  0  0  0  0  0
   -0.2698   -0.1222    2.7130 C   0  0  0  0  0  0  0  0  0  0  0  0
    0.2424   -1.1908    1.8503 C   0  0  0  0  0  0  0  0  0  0  0  0
   -0.2905   -2.3013    1.6393 O   0  0  0  0  0  0  0  0  0  0  0  0
    1.4893   -0.9780    1.1547 N   0  0  0  0  0  0  0  0  0  0  0  0
    2.0928   -1.8905    0.3026 C   0  0  0  0  0  0  0  0  0  0  0  0
    1.4953   -3.0870   -0.0046 C   0  0  0  0  0  0  0  0  0  0  0  0
    2.1163   -3.9428   -0.8525 C   0  0  0  0  0  0  0  0  0  0  0  0
    3.3349   -3.6710   -1.4334 C   0  0  0  0  0  0  0  0  0  0  0  0
    3.9513   -2.4552   -1.1265 C   0  0  0  0  0  0  0  0  0  0  0  0
    3.3078   -1.5976   -0.2636 C   0  0  0  0  0  0  0  0  0  0  0  0
    3.9692   -0.3427    0.0395 C   0  0  0  0  0  0  0  0  0  0  0  0
    3.4048    0.4613    0.8265 O   0  0  0  0  0  0  0  0  0  0  0  0
    5.2208    0.0116   -0.5124 N   0  0  0  0  0  0  0  0  0  0  0  0
    5.7953    1.2926   -0.1407 C   0  0  0  0  0  0  0  0  0  0  0  0
    4.8949    2.4815   -0.0224 C   0  0  0  0  0  0  0  0  0  0  0  0
    5.4559    1.7618    1.2172 C   0  0  0  0  0  0  0  0  0  0  0  0
   -2.4828    2.8088    0.5375 N   0  0  0  0  0  0  0  0  0  0  0  0
   -3.6119    2.6777   -0.1571 C   0  0  0  0  0  0  0  0  0  0  0  0
   -4.4034    3.6595   -0.7646 C   0  0  0  0  0  0  0  0  0  0  0  0
   -5.5676    3.2095   -1.4397 C   0  0  0  0  0  0  0  0  0  0  0  0
   -5.8546    1.8804   -1.4643 C   0  0  0  0  0  0  0  0  0  0  0  0
   -5.0545    0.9549   -0.8577 C   0  0  0  0  0  0  0  0  0  0  0  0
   -3.9049    1.3507   -0.1860 C   0  0  0  0  0  0  0  0  0  0  0  0
  1  2  1  0
  2  3  1  0
  2  4  1  0
  4  5  1  0
  5  6  1  0
  6  7  1  0
  7  8  1  0
  8  9  1  0
  9 10  2  0
  9 11  1  0
 11 12  1  0
 12 13  2  0
 13 14  1  0
 14 15  2  0
 15 16  1  0
 16 17  2  0
 17 18  1  0
 18 19  2  0
 18 20  1  0
 20 21  1  0
 21 22  1  0
 22 23  1  0
  6 24  2  0
 24 25  1  0
 25 26  2  0
 26 27  1  0
 27 28  2  0
 28 29  1  0
 29 30  2  0
 30  5  1  0
 17 12  1  0
 23 21  1  0
 30 25  1  0
M  END
>  <zinc_id>  (1) 
ZINC000004265650

>  <smiles>  (1) 
CC(C)Cn1c(SCC(=O)Nc2ccccc2C(=O)NC2CC2)nc2ccccc21

$$$$
