
     RDKit          3D

 31 34  0  0  0  0  0  0  0  0999 V2000
   -6.0942   -3.9058    0.9329 C   0  0  0  0  0  0  0  0  0  0  0  0
   -4.8418   -4.6951    1.2840 C   0  0  0  0  0  0  0  0  0  0  0  0
   -3.6519   -4.0557    0.6545 C   0  0  0  0  0  0  0  0  0  0  0  0
   -2.9291   -3.0819    1.3127 C   0  0  0  0  0  0  0  0  0  0  0  0
   -1.8264   -2.4838    0.7393 C   0  0  0  0  0  0  0  0  0  0  0  0
   -1.3966   -2.8352   -0.5233 C   0  0  0  0  0  0  0  0  0  0  0  0
   -0.2513   -2.2193   -1.1284 N   0  0  0  0  0  0  0  0  0  0  0  0
    0.4351   -1.2246   -0.3788 C   0  0  0  0  0  0  0  0  0  0  0  0
    0.0170    0.0416   -0.1932 C   0  0  0  0  0  0  0  0  0  0  0  0
   -1.4978    0.6609   -0.8819 S   0  0  0  0  0  0  0  0  0  0  0  0
   -1.8487    2.3391   -0.5150 C   0  0  0  0  0  0  0  0  0  0  0  0
   -1.0974    3.1954    0.2256 C   0  0  0  0  0  0  0  0  0  0  0  0
   -1.4741    4.5076    0.4516 C   0  0  0  0  0  0  0  0  0  0  0  0
   -2.6552    5.0079   -0.0794 C   0  0  0  0  0  0  0  0  0  0  0  0
   -3.0072    6.4165    0.1944 C   0  0  0  0  0  0  0  0  0  0  0  0
   -3.4173    4.1479   -0.8277 C   0  0  0  0  0  0  0  0  0  0  0  0
   -3.0405    2.8525   -1.0479 C   0  0  0  0  0  0  0  0  0  0  0  0
    1.0243    0.6937    0.6297 C   0  0  0  0  0  0  0  0  0  0  0  0
    1.0378    1.8701    1.0413 O   0  0  0  0  0  0  0  0  0  0  0  0
    2.0834   -0.2315    0.9424 N   0  0  0  0  0  0  0  0  0  0  0  0
    3.2820   -0.0300    1.7246 C   0  0  0  0  0  0  0  0  0  0  0  0
    4.3714    0.4345    0.8290 C   0  0  0  0  0  0  0  0  0  0  0  0
    5.6039    0.6860    1.3819 C   0  0  0  0  0  0  0  0  0  0  0  0
    6.6439    1.1186    0.5887 C   0  0  0  0  0  0  0  0  0  0  0  0
    6.4594    1.3032   -0.7645 C   0  0  0  0  0  0  0  0  0  0  0  0
    5.2264    1.0460   -1.2852 C   0  0  0  0  0  0  0  0  0  0  0  0
    4.1716    0.6139   -0.5189 C   0  0  0  0  0  0  0  0  0  0  0  0
    1.6914   -1.4290    0.2984 C   0  0  0  0  0  0  0  0  0  0  0  0
    2.3293   -2.5186    0.3041 O   0  0  0  0  0  0  0  0  0  0  0  0
   -2.1218   -3.8127   -1.1846 C   0  0  0  0  0  0  0  0  0  0  0  0
   -3.2259   -4.4122   -0.6114 C   0  0  0  0  0  0  0  0  0  0  0  0
  1  2  1  0
  2  3  1  0
  3  4  2  0
  4  5  1  0
  5  6  2  0
  6  7  1  0
  7  8  1  0
  8  9  2  0
  9 10  1  0
 10 11  1  0
 11 12  2  0
 12 13  1  0
 13 14  2  0
 14 15  1  0
 14 16  1  0
 16 17  2  0
  9 18  1  0
 18 19  2  0
 18 20  1  0
 20 21  1  0
 21 22  1  0
 22 23  2  0
 23 24  1  0
 24 25  2  0
 25 26  1  0
 26 27  2  0
 20 28  1  0
 28 29  2  0
  6 30  1  0
 30 31  2  0
 31  3  1  0
 28  8  1  0
 17 11  1  0
 27 22  1  0
M  END
>  <zinc_id>  (1) 
ZINC000001932155

>  <smiles>  (1) 
CCc1ccc(NC2=C(Sc3ccc(C)cc3)C(=O)N(Cc3ccccc3)C2=O)cc1

$$$$
