
     RDKit          3D

 33 37  0  0  0  0  0  0  0  0999 V2000
   -5.8931   -4.9905    0.1044 C   0  0  0  0  0  0  0  0  0  0  0  0
   -5.1892   -3.7119    0.2233 C   0  0  0  0  0  0  0  0  0  0  0  0
   -5.7661   -2.5194    0.5617 C   0  0  0  0  0  0  0  0  0  0  0  0
   -5.0754   -1.3481    0.6622 C   0  0  0  0  0  0  0  0  0  0  0  0
   -3.7105   -1.3268    0.4146 C   0  0  0  0  0  0  0  0  0  0  0  0
   -2.8021    0.1901    0.5421 S   0  0  0  0  0  0  0  0  0  0  0  0
   -1.0867    0.0406    0.1967 C   0  0  0  0  0  0  0  0  0  0  0  0
   -0.2608    1.1109    0.2526 C   0  0  0  0  0  0  0  0  0  0  0  0
   -0.6440    2.4216    0.5782 N   0  0  0  0  0  0  0  0  0  0  0  0
   -0.1991    3.0566    1.8011 C   0  0  0  0  0  0  0  0  0  0  0  0
   -0.1820    4.5483    1.7306 C   0  0  0  0  0  0  0  0  0  0  0  0
   -0.0388    5.0850    0.3567 C   0  0  0  0  0  0  0  0  0  0  0  0
    0.7339    6.2077    0.1001 C   0  0  0  0  0  0  0  0  0  0  0  0
    0.8145    6.6442   -1.2011 C   0  0  0  0  0  0  0  0  0  0  0  0
    0.1629    6.0095   -2.2302 C   0  0  0  0  0  0  0  0  0  0  0  0
   -0.5954    4.8946   -1.9262 C   0  0  0  0  0  0  0  0  0  0  0  0
   -0.7092    4.4171   -0.6433 C   0  0  0  0  0  0  0  0  0  0  0  0
   -1.5134    3.2244   -0.2943 C   0  0  0  0  0  0  0  0  0  0  0  0
    1.0930    0.7113   -0.0748 C   0  0  0  0  0  0  0  0  0  0  0  0
    2.1196    1.4509   -0.1203 O   0  0  0  0  0  0  0  0  0  0  0  0
    1.1169   -0.6761   -0.3492 N   0  0  0  0  0  0  0  0  0  0  0  0
    2.2388   -1.5196   -0.7201 C   0  0  0  0  0  0  0  0  0  0  0  0
    2.8424   -2.0520    0.5738 C   0  0  0  0  0  0  0  0  0  0  0  0
    3.9947   -2.9222    0.2684 C   0  0  0  0  0  0  0  0  0  0  0  0
    5.2472   -2.3770    0.1784 C   0  0  0  0  0  0  0  0  0  0  0  0
    6.3397   -3.1711   -0.1061 C   0  0  0  0  0  0  0  0  0  0  0  0
    6.1338   -4.5135   -0.2946 C   0  0  0  0  0  0  0  0  0  0  0  0
    4.8720   -5.0619   -0.2037 C   0  0  0  0  0  0  0  0  0  0  0  0
    3.7927   -4.2628    0.0797 C   0  0  0  0  0  0  0  0  0  0  0  0
   -0.2651   -1.0896   -0.1747 C   0  0  0  0  0  0  0  0  0  0  0  0
   -0.6112   -2.2658   -0.3397 O   0  0  0  0  0  0  0  0  0  0  0  0
   -3.1387   -2.5148    0.0781 C   0  0  0  0  0  0  0  0  0  0  0  0
   -3.8214   -3.6895   -0.0245 C   0  0  0  0  0  0  0  0  0  0  0  0
  1  2  1  0
  2  3  2  0
  3  4  1  0
  4  5  2  0
  5  6  1  0
  6  7  1  0
  7  8  2  0
  8  9  1  0
  9 10  1  0
 10 11  1  0
 11 12  1  0
 12 13  2  0
 13 14  1  0
 14 15  2  0
 15 16  1  0
 16 17  2  0
 17 18  1  0
  8 19  1  0
 19 20  2  0
 19 21  1  0
 21 22  1  0
 22 23  1  0
 23 24  1  0
 24 25  2  0
 25 26  1  0
 26 27  2  0
 27 28  1  0
 28 29  2  0
 21 30  1  0
 30 31  2  0
  5 32  1  0
 32 33  2  0
 33  2  1  0
 30  7  1  0
 18  9  1  0
 29 24  1  0
 17 12  1  0
M  END
>  <zinc_id>  (1) 
ZINC000001932081

>  <smiles>  (1) 
Cc1ccc(SC2=C(N3CCc4ccccc4C3)C(=O)N(CCc3ccccc3)C2=O)cc1

$$$$
