
     RDKit          3D

 33 37  0  0  0  0  0  0  0  0999 V2000
   -0.4998    1.0055    5.0118 C   0  0  0  0  0  0  0  0  0  0  0  0
   -0.7377    0.6161    3.5294 C   0  0  0  0  0  0  0  0  0  0  0  0
   -0.3489    1.8761    2.7058 C   0  0  0  0  0  0  0  0  0  0  0  0
   -1.8846    0.0985    3.2740 O   0  0  0  0  0  0  0  0  0  0  0  0
   -3.0513   -0.4289    3.0112 C   0  0  0  0  0  0  0  0  0  0  0  0
   -4.0425   -0.4895    4.0212 C   0  0  0  0  0  0  0  0  0  0  0  0
   -5.2817   -1.0077    3.8650 C   0  0  0  0  0  0  0  0  0  0  0  0
   -5.5839   -1.5137    2.6104 C   0  0  0  0  0  0  0  0  0  0  0  0
   -4.6678   -1.4758    1.6218 C   0  0  0  0  0  0  0  0  0  0  0  0
   -3.4157   -0.9532    1.7799 C   0  0  0  0  0  0  0  0  0  0  0  0
   -2.4599   -0.9623    0.6454 C   0  0  0  0  0  0  0  0  0  0  0  0
   -1.1309   -0.6590    0.7733 C   0  0  0  0  0  0  0  0  0  0  0  0
   -0.3219   -0.7442   -0.3400 C   0  0  0  0  0  0  0  0  0  0  0  0
    1.1085   -0.4699   -0.3099 C   0  0  0  0  0  0  0  0  0  0  0  0
    1.5932   -0.1149    0.7859 O   0  0  0  0  0  0  0  0  0  0  0  0
    1.9862   -0.5728   -1.4024 N   0  0  0  0  0  0  0  0  0  0  0  0
    3.5011   -0.2362   -1.1155 C   0  0  1  0  0  0  0  0  0  0  0  0
    3.9014   -0.2487   -2.7443 C   0  0  0  0  0  0  0  0  0  0  0  0
    5.4143   -0.2027   -2.5766 C   0  0  0  0  0  0  0  0  0  0  0  0
    5.8140    0.9672   -1.7292 C   0  0  0  0  0  0  0  0  0  0  0  0
    4.6494    1.8473   -1.3706 C   0  0  0  0  0  0  0  0  0  0  0  0
    4.8405    3.2335   -1.3764 C   0  0  0  0  0  0  0  0  0  0  0  0
    3.7447    4.0003   -1.0410 C   0  0  0  0  0  0  0  0  0  0  0  0
    2.5239    3.4530   -0.7157 C   0  0  0  0  0  0  0  0  0  0  0  0
    2.3842    2.0679   -0.7240 C   0  0  0  0  0  0  0  0  0  0  0  0
    3.4307    1.3433   -1.0439 C   0  0  0  0  0  0  0  0  0  0  0  0
   -0.9083   -1.1317   -1.5233 C   0  0  0  0  0  0  0  0  0  0  0  0
   -0.1065   -1.2150   -2.6300 C   0  0  0  0  0  0  0  0  0  0  0  0
   -0.5745   -1.5927   -3.8822 C   0  0  0  0  0  0  0  0  0  0  0  0
   -1.9101   -1.8942   -3.9987 C   0  0  0  0  0  0  0  0  0  0  0  0
   -2.7291   -1.8145   -2.8935 C   0  0  0  0  0  0  0  0  0  0  0  0
   -2.2392   -1.4381   -1.6666 C   0  0  0  0  0  0  0  0  0  0  0  0
   -2.9976   -1.3434   -0.5512 N   0  0  0  0  0  0  0  0  0  0  0  0
  1  2  1  0
  2  3  1  0
  2  4  1  0
  4  5  1  0
  5  6  2  0
  6  7  1  0
  7  8  2  0
  8  9  1  0
  9 10  2  0
 10 11  1  0
 11 12  2  0
 12 13  1  0
 13 14  1  0
 14 15  2  0
 14 16  1  0
 17 16  1  6
 17 18  1  0
 18 19  1  0
 19 20  1  0
 20 21  1  0
 21 22  2  0
 22 23  1  0
 23 24  2  0
 24 25  1  0
 25 26  2  0
 13 27  2  0
 27 28  1  0
 28 29  2  0
 29 30  1  0
 30 31  2  0
 31 32  1  0
 32 33  2  0
 10  5  1  0
 33 11  1  0
 26 17  1  0
 32 27  1  0
 26 21  1  0
M  END
>  <zinc_id>  (1) 
ZINC000002760245

>  <smiles>  (1) 
CC(C)Oc1ccccc1-c1cc(C(=O)N[C@H]2CCCc3ccccc32)c2ccccc2n1

$$$$
