
     RDKit          3D

 29 31  0  0  0  0  0  0  0  0999 V2000
    6.4293   -2.4257    2.5269 C   0  0  0  0  0  0  0  0  0  0  0  0
    5.7840   -1.8738    1.3034 C   0  0  0  0  0  0  0  0  0  0  0  0
    4.4912   -1.4255    1.3282 C   0  0  0  0  0  0  0  0  0  0  0  0
    3.9551   -0.9267    0.1595 C   0  0  0  0  0  0  0  0  0  0  0  0
    2.6460   -0.4748    0.1931 O   0  0  0  0  0  0  0  0  0  0  0  0
    1.9764    0.0548   -0.9157 C   0  0  0  0  0  0  0  0  0  0  0  0
    0.6038    0.4336   -0.5186 C   0  0  0  0  0  0  0  0  0  0  0  0
   -0.1619    0.9288   -1.3838 O   0  0  0  0  0  0  0  0  0  0  0  0
    0.1680    0.2439    0.7943 N   0  0  0  0  0  0  0  0  0  0  0  0
   -1.1494    0.6104    1.1637 C   0  0  0  0  0  0  0  0  0  0  0  0
   -1.9941    1.1449    0.2193 C   0  0  0  0  0  0  0  0  0  0  0  0
   -3.2850    1.5194    0.5234 C   0  0  0  0  0  0  0  0  0  0  0  0
   -3.7583    1.3572    1.8178 C   0  0  0  0  0  0  0  0  0  0  0  0
   -5.0546    1.7432    2.0837 O   0  0  0  0  0  0  0  0  0  0  0  0
   -5.9316    2.2868    1.1364 C   0  0  0  0  0  0  0  0  0  0  0  0
   -6.2007    1.3681   -0.0127 C   0  0  0  0  0  0  0  0  0  0  0  0
   -5.7011    0.0700   -0.0540 C   0  0  0  0  0  0  0  0  0  0  0  0
   -5.9525   -0.7663   -1.1131 C   0  0  0  0  0  0  0  0  0  0  0  0
   -6.7176   -0.3290   -2.1741 C   0  0  0  0  0  0  0  0  0  0  0  0
   -7.2074    0.9756   -2.1103 C   0  0  0  0  0  0  0  0  0  0  0  0
   -6.9573    1.8129   -1.0528 C   0  0  0  0  0  0  0  0  0  0  0  0
   -2.9115    0.8264    2.7446 C   0  0  0  0  0  0  0  0  0  0  0  0
   -1.6065    0.4391    2.4715 C   0  0  0  0  0  0  0  0  0  0  0  0
    4.7142   -0.8966   -0.9605 N   0  0  0  0  0  0  0  0  0  0  0  0
    5.9751   -1.3325   -0.9900 C   0  0  0  0  0  0  0  0  0  0  0  0
    6.8380   -1.3150   -2.1998 C   0  0  0  0  0  0  0  0  0  0  0  0
    6.2514   -0.4148   -3.2661 C   0  0  0  0  0  0  0  0  0  0  0  0
    8.2574   -0.9186   -1.8599 C   0  0  0  0  0  0  0  0  0  0  0  0
    6.4994   -1.8183    0.1455 N   0  0  0  0  0  0  0  0  0  0  0  0
  1  2  1  0
  2  3  2  0
  3  4  1  0
  4  5  1  0
  5  6  1  0
  6  7  1  0
  7  8  2  0
  7  9  1  0
  9 10  1  0
 10 11  2  0
 11 12  1  0
 12 13  2  0
 13 14  1  0
 14 15  1  0
 15 16  1  0
 16 17  2  0
 17 18  1  0
 18 19  2  0
 19 20  1  0
 20 21  2  0
 13 22  1  0
 22 23  2  0
  4 24  2  0
 24 25  1  0
 25 26  1  0
 26 27  1  0
 26 28  1  0
 25 29  2  0
 29  2  1  0
 23 10  1  0
 21 16  1  0
M  END
>  <zinc_id>  (1) 
ZINC000003317533

>  <smiles>  (1) 
Cc1cc(OCC(=O)Nc2ccc(OCc3ccccc3)cc2)nc(C(C)C)n1

$$$$
