
     RDKit          3D

 30 33  0  0  0  0  0  0  0  0999 V2000
   -5.8802   -2.0172   -2.0376 C   0  0  0  0  0  0  0  0  0  0  0  0
   -5.8127   -0.5977   -1.4763 C   0  0  0  0  0  0  0  0  0  0  0  0
   -4.5099   -0.3901   -1.0053 O   0  0  0  0  0  0  0  0  0  0  0  0
   -4.0679    0.7860   -0.4242 C   0  0  0  0  0  0  0  0  0  0  0  0
   -4.9375    1.8609   -0.2762 C   0  0  0  0  0  0  0  0  0  0  0  0
   -4.5255    3.0405    0.2972 C   0  0  0  0  0  0  0  0  0  0  0  0
   -3.2207    3.1330    0.7249 C   0  0  0  0  0  0  0  0  0  0  0  0
   -2.3461    2.0504    0.5754 C   0  0  0  0  0  0  0  0  0  0  0  0
   -2.7663    0.8714   -0.0002 C   0  0  0  0  0  0  0  0  0  0  0  0
   -1.8557   -0.2102   -0.1385 N   0  0  0  0  0  0  0  0  0  0  0  0
   -0.5010   -0.1135    0.3012 C   0  0  0  0  0  0  0  0  0  0  0  0
   -0.1839    0.9618    0.8031 O   0  0  0  0  0  0  0  0  0  0  0  0
    0.4106   -1.2855    0.1254 C   0  0  0  0  0  0  0  0  0  0  0  0
    1.7349   -1.1763    0.4103 C   0  0  0  0  0  0  0  0  0  0  0  0
    2.6975   -0.1825    0.5652 N   0  0  0  0  0  0  0  0  0  0  0  0
    2.9042    1.1233    0.2594 C   0  0  0  0  0  0  0  0  0  0  0  0
    2.0273    1.7370   -0.4011 O   0  0  0  0  0  0  0  0  0  0  0  0
    4.1148    1.8810    0.6606 C   0  0  0  0  0  0  0  0  0  0  0  0
    5.1453    1.3321    1.3804 C   0  0  0  0  0  0  0  0  0  0  0  0
    6.2620    2.0707    1.7380 C   0  0  0  0  0  0  0  0  0  0  0  0
    6.3452    3.3819    1.3666 C   0  0  0  0  0  0  0  0  0  0  0  0
    5.3317    3.9620    0.6459 C   0  0  0  0  0  0  0  0  0  0  0  0
    4.2062    3.1944    0.2928 C   0  0  0  0  0  0  0  0  0  0  0  0
    2.2226   -2.8890    0.2960 S   0  0  0  0  0  0  0  0  0  0  0  0
    0.7511   -3.5715   -0.1005 C   0  0  0  0  0  0  0  0  0  0  0  0
   -0.0941   -2.5120   -0.1404 C   0  0  0  0  0  0  0  0  0  0  0  0
   -1.5229   -2.9290   -0.4990 C   0  0  0  0  0  0  0  0  0  0  0  0
   -1.5018   -3.6908   -1.8098 C   0  0  0  0  0  0  0  0  0  0  0  0
   -0.5836   -4.8933   -1.7330 C   0  0  0  0  0  0  0  0  0  0  0  0
    0.1564   -4.9281   -0.4004 C   0  0  0  0  0  0  0  0  0  0  0  0
  1  2  1  0
  2  3  1  0
  3  4  1  0
  4  5  2  0
  5  6  1  0
  6  7  2  0
  7  8  1  0
  8  9  2  0
  9 10  1  0
 10 11  1  0
 11 12  2  0
 11 13  1  0
 13 14  2  0
 14 15  1  0
 15 16  1  0
 16 17  2  0
 16 18  1  0
 18 19  2  0
 19 20  1  0
 20 21  2  0
 21 22  1  0
 22 23  2  0
 14 24  1  0
 24 25  1  0
 25 26  2  0
 26 27  1  0
 27 28  1  0
 28 29  1  0
 29 30  1  0
  9  4  1  0
 26 13  1  0
 23 18  1  0
 30 25  1  0
M  END
>  <zinc_id>  (1) 
ZINC000001933521

>  <smiles>  (1) 
CCOc1ccccc1NC(=O)c1c(NC(=O)c2ccccc2)sc2c1CCCC2

$$$$
