
     RDKit          3D

 32 36  0  0  0  0  0  0  0  0999 V2000
   -6.1697   -2.6759   -1.4413 C   0  0  0  0  0  0  0  0  0  0  0  0
   -5.9853   -1.2926   -1.6278 O   0  0  0  0  0  0  0  0  0  0  0  0
   -5.0283   -0.5531   -0.8707 C   0  0  0  0  0  0  0  0  0  0  0  0
   -4.2602   -1.1917    0.0596 C   0  0  0  0  0  0  0  0  0  0  0  0
   -3.3277   -0.4355    0.7840 C   0  0  0  0  0  0  0  0  0  0  0  0
   -3.2425    0.8708    0.5345 C   0  0  0  0  0  0  0  0  0  0  0  0
   -2.0045    1.7424    1.1235 C   0  0  1  0  0  0  0  0  0  0  0  0
   -1.8740    0.9878    2.5037 N   0  0  0  0  0  0  0  0  0  0  0  0
   -0.6249    1.5154    3.0554 C   0  0  0  0  0  0  0  0  0  0  0  0
    0.5436    0.7864    2.3934 C   0  0  0  0  0  0  0  0  0  0  0  0
    0.1766    0.4497    0.9848 C   0  0  0  0  0  0  0  0  0  0  0  0
   -0.9216    0.8444    0.3423 C   0  0  0  0  0  0  0  0  0  0  0  0
   -0.9296    0.3972   -0.8828 N   0  0  0  0  0  0  0  0  0  0  0  0
    0.2232   -0.3290   -1.0629 C   0  0  0  0  0  0  0  0  0  0  0  0
    0.6888   -1.0678   -2.1499 C   0  0  0  0  0  0  0  0  0  0  0  0
    1.8452   -1.7851   -2.0903 C   0  0  0  0  0  0  0  0  0  0  0  0
    2.6056   -1.7909   -0.9015 C   0  0  0  0  0  0  0  0  0  0  0  0
    3.7383   -2.4908   -0.7843 O   0  0  0  0  0  0  0  0  0  0  0  0
    4.6476   -2.6084    0.1997 C   0  0  0  0  0  0  0  0  0  0  0  0
    5.4833   -1.4029    0.3484 C   0  0  0  0  0  0  0  0  0  0  0  0
    6.7183   -1.5557   -0.3146 C   0  0  0  0  0  0  0  0  0  0  0  0
    7.6594   -0.5738   -0.3141 C   0  0  0  0  0  0  0  0  0  0  0  0
    7.4062    0.5777    0.3393 C   0  0  0  0  0  0  0  0  0  0  0  0
    6.2004    0.8286    1.0323 C   0  0  0  0  0  0  0  0  0  0  0  0
    5.2654   -0.2413    0.9859 C   0  0  0  0  0  0  0  0  0  0  0  0
    2.1311   -1.0459    0.1636 C   0  0  0  0  0  0  0  0  0  0  0  0
    0.9505   -0.3181    0.1015 C   0  0  0  0  0  0  0  0  0  0  0  0
   -4.0028    1.5545   -0.3845 C   0  0  0  0  0  0  0  0  0  0  0  0
   -3.9491    3.0454   -0.4324 C   0  0  0  0  0  0  0  0  0  0  0  0
   -3.5174    3.4725   -1.8844 C   0  0  0  0  0  0  0  0  0  0  0  0
   -5.5226    3.4902   -0.4723 C   0  0  0  0  0  0  0  0  0  0  0  0
   -4.9233    0.7955   -1.1163 C   0  0  0  0  0  0  0  0  0  0  0  0
  1  2  1  0
  2  3  1  0
  3  4  2  0
  4  5  1  0
  5  6  2  0
  7  6  1  6
  7  8  1  0
  8  9  1  0
  9 10  1  0
 10 11  1  0
 11 12  2  0
 12 13  1  0
 13 14  1  0
 14 15  2  0
 15 16  1  0
 16 17  2  0
 17 18  1  0
 18 19  1  0
 19 20  1  0
 20 21  2  0
 21 22  1  0
 22 23  2  0
 23 24  1  0
 24 25  2  0
 17 26  1  0
 26 27  2  0
  6 28  1  0
 28 29  1  0
 29 30  1  0
 29 31  1  0
 28 32  2  0
 32  3  1  0
 12  7  1  0
 27 14  1  0
 27 11  1  0
 25 20  1  0
M  END
>  <zinc_id>  (1) 
ZINC000003737913

>  <smiles>  (1) 
COc1ccc([C@H]2NCCc3c2[nH]c2ccc(OCc4ccccc4)cc32)c(C(C)C)c1

$$$$
