
     RDKit          3D

 33 37  0  0  0  0  0  0  0  0999 V2000
   -7.9272   -1.4926   -0.9348 C   0  0  0  0  0  0  0  0  0  0  0  0
   -7.1077   -0.4273   -0.5551 O   0  0  0  0  0  0  0  0  0  0  0  0
   -5.7550   -0.5777   -0.2803 C   0  0  0  0  0  0  0  0  0  0  0  0
   -5.1047   -1.7999   -0.3601 C   0  0  0  0  0  0  0  0  0  0  0  0
   -3.7494   -1.8697   -0.0699 C   0  0  0  0  0  0  0  0  0  0  0  0
   -3.0192   -0.7611    0.2978 C   0  0  0  0  0  0  0  0  0  0  0  0
   -1.5990   -0.8451    0.5999 C   0  0  0  0  0  0  0  0  0  0  0  0
   -0.9956   -1.9672    0.5280 N   0  0  0  0  0  0  0  0  0  0  0  0
    0.3610   -2.1599    0.7959 N   0  0  0  0  0  0  0  0  0  0  0  0
    1.2886   -1.2314    0.2932 C   0  0  0  0  0  0  0  0  0  0  0  0
    0.8619   -0.2596   -0.3806 O   0  0  0  0  0  0  0  0  0  0  0  0
    2.7392   -1.3600    0.5296 C   0  0  0  0  0  0  0  0  0  0  0  0
    3.3807   -2.3448    1.2344 C   0  0  0  0  0  0  0  0  0  0  0  0
    2.6594   -3.4821    1.8940 C   0  0  0  0  0  0  0  0  0  0  0  0
    4.6896   -2.0815    1.2023 N   0  0  0  0  0  0  0  0  0  0  0  0
    4.8917   -0.9548    0.4948 C   0  0  0  0  0  0  0  0  0  0  0  0
    5.8033   -0.1024    0.0397 N   0  0  0  0  0  0  0  0  0  0  0  0
    7.2494   -0.1647    0.2327 C   0  0  0  0  0  0  0  0  0  0  0  0
    5.1952    0.8647   -0.6502 C   0  0  0  0  0  0  0  0  0  0  0  0
    5.6329    2.0015   -1.3393 C   0  0  0  0  0  0  0  0  0  0  0  0
    4.7316    2.8368   -1.9749 C   0  0  0  0  0  0  0  0  0  0  0  0
    3.3932    2.5603   -1.9374 C   0  0  0  0  0  0  0  0  0  0  0  0
    2.9608    1.4536   -1.2671 C   0  0  0  0  0  0  0  0  0  0  0  0
    3.8427    0.6131   -0.6303 C   0  0  0  0  0  0  0  0  0  0  0  0
    3.6719   -0.5125    0.0798 N   0  0  0  0  0  0  0  0  0  0  0  0
   -3.6633    0.4661    0.3800 C   0  0  0  0  0  0  0  0  0  0  0  0
   -2.9344    1.5784    0.7481 C   0  0  0  0  0  0  0  0  0  0  0  0
   -1.5762    1.4254    1.0236 O   0  0  0  0  0  0  0  0  0  0  0  0
   -0.8287    2.5876    1.4051 C   0  0  0  0  0  0  0  0  0  0  0  0
   -3.5551    2.8143    0.8371 C   0  0  0  0  0  0  0  0  0  0  0  0
   -4.8962    2.8880    0.5508 C   0  0  0  0  0  0  0  0  0  0  0  0
   -5.6270    1.7773    0.1826 C   0  0  0  0  0  0  0  0  0  0  0  0
   -5.0144    0.5271    0.0891 C   0  0  0  0  0  0  0  0  0  0  0  0
  1  2  1  0
  2  3  1  0
  3  4  2  0
  4  5  1  0
  5  6  2  0
  6  7  1  0
  7  8  2  0
  8  9  1  0
  9 10  1  0
 10 11  2  0
 10 12  1  0
 12 13  2  0
 13 14  1  0
 13 15  1  0
 15 16  2  0
 16 17  1  0
 17 18  1  0
 17 19  1  0
 19 20  2  0
 20 21  1  0
 21 22  2  0
 22 23  1  0
 23 24  2  0
 24 25  1  0
  6 26  1  0
 26 27  2  0
 27 28  1  0
 28 29  1  0
 27 30  1  0
 30 31  2  0
 31 32  1  0
 32 33  2  0
 33  3  1  0
 25 12  1  0
 33 26  1  0
 25 16  1  0
 24 19  1  0
M  END
>  <zinc_id>  (1) 
ZINC000000854899

>  <smiles>  (1) 
COc1ccc(/C=N/NC(=O)c2c(C)nc3n(C)c4ccccc4n23)c2c(OC)cccc12

$$$$
