
     RDKit          3D

 31 34  0  0  0  0  0  0  0  0999 V2000
    6.9931    0.1394    3.3599 C   0  0  0  0  0  0  0  0  0  0  0  0
    5.9366   -0.0944    2.3271 C   0  0  0  0  0  0  0  0  0  0  0  0
    6.2440   -0.2106    0.9870 C   0  0  0  0  0  0  0  0  0  0  0  0
    5.2775   -0.4275    0.0164 C   0  0  0  0  0  0  0  0  0  0  0  0
    5.6616   -0.5436   -1.3993 C   0  0  0  0  0  0  0  0  0  0  0  0
    3.9509   -0.5357    0.3730 C   0  0  0  0  0  0  0  0  0  0  0  0
    2.8959   -0.7643   -0.6154 C   0  0  0  0  0  0  0  0  0  0  0  0
    2.5904   -1.9531   -0.8940 O   0  0  0  0  0  0  0  0  0  0  0  0
    2.1929    0.3620   -1.2827 C   0  0  0  0  0  0  0  0  0  0  0  0
    0.9687   -0.2776   -2.4262 S   0  0  0  0  0  0  0  0  0  0  0  0
   -0.3120   -1.1189   -1.4654 C   0  0  0  0  0  0  0  0  0  0  0  0
   -0.3266   -2.3940   -1.1120 N   0  0  0  0  0  0  0  0  0  0  0  0
   -1.4081   -2.6212   -0.4314 N   0  0  0  0  0  0  0  0  0  0  0  0
   -2.1603   -1.4486   -0.3181 C   0  0  0  0  0  0  0  0  0  0  0  0
   -3.3617   -1.4001    0.3562 N   0  0  0  0  0  0  0  0  0  0  0  0
   -4.3285   -0.4914    0.6643 C   0  0  0  0  0  0  0  0  0  0  0  0
   -5.4367   -0.9520    1.4179 C   0  0  0  0  0  0  0  0  0  0  0  0
   -6.4577   -0.1585    1.7875 C   0  0  0  0  0  0  0  0  0  0  0  0
   -6.4478    1.1687    1.4280 C   0  0  0  0  0  0  0  0  0  0  0  0
   -5.3968    1.6641    0.6976 C   0  0  0  0  0  0  0  0  0  0  0  0
   -4.3804    0.8330    0.3406 C   0  0  0  0  0  0  0  0  0  0  0  0
   -1.4352   -0.5588   -0.9739 N   0  0  0  0  0  0  0  0  0  0  0  0
   -1.7150    0.8256   -1.1886 C   0  0  0  0  0  0  0  0  0  0  0  0
   -1.2499    1.7381   -0.2746 C   0  0  0  0  0  0  0  0  0  0  0  0
   -1.4809    3.0771   -0.4637 C   0  0  0  0  0  0  0  0  0  0  0  0
   -2.1828    3.4916   -1.5784 C   0  0  0  0  0  0  0  0  0  0  0  0
   -2.6474    2.5752   -2.4921 C   0  0  0  0  0  0  0  0  0  0  0  0
   -2.4125    1.2414   -2.2955 C   0  0  0  0  0  0  0  0  0  0  0  0
    3.6311   -0.4213    1.7094 C   0  0  0  0  0  0  0  0  0  0  0  0
    2.1920   -0.5406    2.0762 C   0  0  0  0  0  0  0  0  0  0  0  0
    4.6054   -0.2042    2.6738 C   0  0  0  0  0  0  0  0  0  0  0  0
  1  2  1  0
  2  3  2  0
  3  4  1  0
  4  5  1  0
  4  6  2  0
  6  7  1  0
  7  8  2  0
  7  9  1  0
  9 10  1  0
 10 11  1  0
 11 12  2  0
 12 13  1  0
 13 14  2  0
 14 15  1  0
 15 16  1  0
 16 17  2  0
 17 18  1  0
 18 19  2  0
 19 20  1  0
 20 21  2  0
 14 22  1  0
 22 23  1  0
 23 24  2  0
 24 25  1  0
 25 26  2  0
 26 27  1  0
 27 28  2  0
  6 29  1  0
 29 30  1  0
 29 31  2  0
 31  2  1  0
 22 11  1  0
 28 23  1  0
 21 16  1  0
M  END
>  <zinc_id>  (1) 
ZINC000003624949

>  <smiles>  (1) 
Cc1cc(C)c(C(=O)CSc2nnc(Nc3ccccc3)n2-c2ccccc2)c(C)c1

$$$$
