
     RDKit          3D

 31 34  0  0  0  0  0  0  0  0999 V2000
    0.5319    0.6418   -1.6251 O   0  0  0  0  0  0  0  0  0  0  0  0
    0.0515    0.3365   -0.3657 C   0  0  2  0  0  0  0  0  0  0  0  0
    0.7779    1.1714    0.6413 C   0  0  0  0  0  0  0  0  0  0  0  0
    2.2165    0.9713    0.6564 C   0  0  0  0  0  0  0  0  0  0  0  0
    3.4126    0.8364    0.6802 C   0  0  0  0  0  0  0  0  0  0  0  0
    4.8716    0.7151    0.7199 C   0  0  0  0  0  0  0  0  0  0  0  0
    5.3925    0.8088   -0.6429 N   0  0  0  0  0  0  0  0  0  0  0  0
    6.8593    0.8468   -0.6292 C   0  0  0  0  0  0  0  0  0  0  0  0
    7.3453   -0.2100    0.3340 C   0  0  0  0  0  0  0  0  0  0  0  0
    7.9989   -1.3621   -0.4368 C   0  0  0  0  0  0  0  0  0  0  0  0
    6.8604   -2.1309   -1.1178 C   0  0  0  0  0  0  0  0  0  0  0  0
    5.5330   -1.6178   -0.6633 C   0  0  0  0  0  0  0  0  0  0  0  0
    5.0683   -0.4042   -1.4161 C   0  0  0  0  0  0  0  0  0  0  0  0
    0.2407   -1.1170   -0.1339 C   0  0  0  0  0  0  0  0  0  0  0  0
   -0.4358   -1.9995   -0.9378 C   0  0  0  0  0  0  0  0  0  0  0  0
   -0.3470   -3.3758   -0.8280 C   0  0  0  0  0  0  0  0  0  0  0  0
    0.4992   -3.8362    0.1810 C   0  0  0  0  0  0  0  0  0  0  0  0
    1.1872   -2.9587    0.9974 C   0  0  0  0  0  0  0  0  0  0  0  0
    1.0779   -1.5914    0.8638 C   0  0  0  0  0  0  0  0  0  0  0  0
   -1.4202    0.6030   -0.3221 C   0  0  0  0  0  0  0  0  0  0  0  0
   -2.1139    1.1133   -1.4024 C   0  0  0  0  0  0  0  0  0  0  0  0
   -3.4860    1.3554   -1.3132 C   0  0  0  0  0  0  0  0  0  0  0  0
   -4.2082    1.1054   -0.1704 C   0  0  0  0  0  0  0  0  0  0  0  0
   -5.6395    1.3604   -0.0913 C   0  0  0  0  0  0  0  0  0  0  0  0
   -6.2997    2.3667   -0.7631 C   0  0  0  0  0  0  0  0  0  0  0  0
   -7.6812    2.5249   -0.6418 C   0  0  0  0  0  0  0  0  0  0  0  0
   -8.4364    1.6909    0.1469 C   0  0  0  0  0  0  0  0  0  0  0  0
   -7.7859    0.6809    0.8234 C   0  0  0  0  0  0  0  0  0  0  0  0
   -6.4255    0.5336    0.6972 C   0  0  0  0  0  0  0  0  0  0  0  0
   -3.4991    0.5902    0.9138 C   0  0  0  0  0  0  0  0  0  0  0  0
   -2.1462    0.3511    0.8253 C   0  0  0  0  0  0  0  0  0  0  0  0
  2  1  1  6
  2  3  1  0
  3  4  1  0
  4  5  3  0
  5  6  1  0
  6  7  1  0
  7  8  1  0
  8  9  1  0
  9 10  1  0
 10 11  1  0
 11 12  1  0
 12 13  1  0
  2 14  1  0
 14 15  2  0
 15 16  1  0
 16 17  2  0
 17 18  1  0
 18 19  2  0
  2 20  1  0
 20 21  2  0
 21 22  1  0
 22 23  2  0
 23 24  1  0
 24 25  2  0
 25 26  1  0
 26 27  2  0
 27 28  1  0
 28 29  2  0
 23 30  1  0
 30 31  2  0
 13  7  1  0
 19 14  1  0
 31 20  1  0
 29 24  1  0
M  END
>  <zinc_id>  (1) 
ZINC000001787221

>  <smiles>  (1) 
O[C@](CC#CCN1CCCCCC1)(c1ccccc1)c1ccc(-c2ccccc2)cc1

$$$$
