
     RDKit          3D

 32 36  0  0  0  0  0  0  0  0999 V2000
   -6.9582    3.1243   -1.7539 C   0  0  0  0  0  0  0  0  0  0  0  0
   -6.6604    2.0797   -0.7808 C   0  0  0  0  0  0  0  0  0  0  0  0
   -7.5629    1.5957   -0.0643 O   0  0  0  0  0  0  0  0  0  0  0  0
   -5.3046    1.5854   -0.6289 C   0  0  0  0  0  0  0  0  0  0  0  0
   -4.2980    2.0244   -1.4570 C   0  0  0  0  0  0  0  0  0  0  0  0
   -2.9770    1.6073   -1.3095 C   0  0  0  0  0  0  0  0  0  0  0  0
   -2.6364    0.7177   -0.2969 C   0  0  0  0  0  0  0  0  0  0  0  0
   -3.6258    0.2728    0.5304 C   0  0  0  0  0  0  0  0  0  0  0  0
   -4.9539    0.6896    0.3854 C   0  0  0  0  0  0  0  0  0  0  0  0
   -2.9927   -0.5615    1.4262 C   0  0  0  0  0  0  0  0  0  0  0  0
   -3.4726   -1.3043    2.4850 C   0  0  0  0  0  0  0  0  0  0  0  0
   -2.6491   -2.1009    3.2802 C   0  0  0  0  0  0  0  0  0  0  0  0
   -1.2944   -2.1511    2.9989 C   0  0  0  0  0  0  0  0  0  0  0  0
   -0.8041   -1.4155    1.9453 C   0  0  0  0  0  0  0  0  0  0  0  0
   -1.6347   -0.6291    1.1638 C   0  0  0  0  0  0  0  0  0  0  0  0
   -1.4377    0.1629    0.1029 N   0  0  0  0  0  0  0  0  0  0  0  0
   -0.2453    0.5425   -0.5846 C   0  0  0  0  0  0  0  0  0  0  0  0
    0.2426   -0.4774   -1.5978 C   0  0  0  0  0  0  0  0  0  0  0  0
    0.7335   -1.7432   -0.9238 C   0  0  0  0  0  0  0  0  0  0  0  0
    1.9636   -1.4272   -0.1604 N   0  0  0  0  0  0  0  0  0  0  0  0
    2.9554   -1.2119   -1.2539 C   0  0  0  0  0  0  0  0  0  0  0  0
    3.1954    0.2508   -1.4889 C   0  0  0  0  0  0  0  0  0  0  0  0
    3.9189    0.7906   -0.2625 C   0  0  0  0  0  0  0  0  0  0  0  0
    4.2194    2.1446   -0.3845 O   0  0  0  0  0  0  0  0  0  0  0  0
    5.1227   -0.0434   -0.0589 C   0  0  0  0  0  0  0  0  0  0  0  0
    5.8091    0.0210    1.1355 C   0  0  0  0  0  0  0  0  0  0  0  0
    6.9464   -0.7729    1.3042 C   0  0  0  0  0  0  0  0  0  0  0  0
    7.3968   -1.6134    0.3155 C   0  0  0  0  0  0  0  0  0  0  0  0
    6.7065   -1.6763   -0.8858 C   0  0  0  0  0  0  0  0  0  0  0  0
    5.5759   -0.8725   -1.0248 C   0  0  0  0  0  0  0  0  0  0  0  0
    2.9988    0.5295    0.9335 C   0  0  0  0  0  0  0  0  0  0  0  0
    1.7233   -0.1382    0.4695 C   0  0  0  0  0  0  0  0  0  0  0  0
  1  2  1  0
  2  3  2  0
  2  4  1  0
  4  5  2  0
  5  6  1  0
  6  7  2  0
  7  8  1  0
  8  9  2  0
  8 10  1  0
 10 11  2  0
 11 12  1  0
 12 13  2  0
 13 14  1  0
 14 15  2  0
 15 16  1  0
 16 17  1  0
 17 18  1  0
 18 19  1  0
 19 20  1  0
 20 21  1  0
 21 22  1  0
 22 23  1  0
 23 24  1  0
 23 25  1  0
 25 26  2  0
 26 27  1  0
 27 28  2  0
 28 29  1  0
 29 30  2  0
 23 31  1  0
 31 32  1  0
  9  4  1  0
 15 10  1  0
 32 20  1  0
 16  7  1  0
 30 25  1  0
M  END
>  <zinc_id>  (1) 
ZINC000001893144

>  <smiles>  (1) 
CC(=O)c1ccc2c(c1)c1ccccc1n2CCCN1CCC(O)(c2ccccc2)CC1

$$$$
