
     RDKit          3D

 33 37  0  0  0  0  0  0  0  0999 V2000
    3.1969    0.0129    1.9019 C   0  0  0  0  0  0  0  0  0  0  0  0
    2.3875   -0.0971    0.6328 C   0  0  0  0  0  0  0  0  0  0  0  0
    2.8853    0.4900   -0.4382 C   0  0  0  0  0  0  0  0  0  0  0  0
    4.1381    1.2391   -0.5512 C   0  0  0  0  0  0  0  0  0  0  0  0
    5.0307    0.9586    0.7725 C   0  0  2  0  0  0  0  0  0  0  0  0
    6.2522    1.9818    0.2689 C   0  0  0  0  0  0  0  0  0  0  0  0
    5.7751   -0.3422    0.1480 C   0  0  0  0  0  0  0  0  0  0  0  0
    6.1308   -0.3319   -1.1554 C   0  0  0  0  0  0  0  0  0  0  0  0
    6.7798   -1.4786   -1.6275 C   0  0  0  0  0  0  0  0  0  0  0  0
    7.0401   -2.5556   -0.8109 C   0  0  0  0  0  0  0  0  0  0  0  0
    6.6522   -2.5082    0.5139 C   0  0  0  0  0  0  0  0  0  0  0  0
    6.0134   -1.3808    0.9812 C   0  0  0  0  0  0  0  0  0  0  0  0
    2.0552    0.3630   -1.6904 C   0  0  0  0  0  0  0  0  0  0  0  0
    0.5994    0.4252   -1.3827 C   0  0  0  0  0  0  0  0  0  0  0  0
    0.1585   -0.4311   -0.3425 N   0  0  0  0  0  0  0  0  0  0  0  0
   -0.9689    0.1844    0.3259 C   0  0  0  0  0  0  0  0  0  0  0  0
   -0.5094    1.4057    1.0575 C   0  0  0  0  0  0  0  0  0  0  0  0
   -1.6578    2.0781    1.7718 C   0  0  0  0  0  0  0  0  0  0  0  0
   -2.6680    2.4573    0.7735 C   0  0  0  0  0  0  0  0  0  0  0  0
   -2.9281    3.6931    0.2178 C   0  0  0  0  0  0  0  0  0  0  0  0
   -3.9313    3.5996   -0.6602 N   0  0  0  0  0  0  0  0  0  0  0  0
   -4.3309    2.3132   -0.6841 C   0  0  0  0  0  0  0  0  0  0  0  0
   -5.3347    1.7033   -1.4225 C   0  0  0  0  0  0  0  0  0  0  0  0
   -5.5510    0.3584   -1.2598 C   0  0  0  0  0  0  0  0  0  0  0  0
   -4.8118   -0.4181   -0.3912 C   0  0  0  0  0  0  0  0  0  0  0  0
   -5.0407   -1.8157   -0.2241 N   0  0  0  0  0  0  0  0  0  0  0  0
   -5.1398   -2.4645    0.9488 C   0  0  0  0  0  0  0  0  0  0  0  0
   -5.3530   -3.7708    0.6677 N   0  0  0  0  0  0  0  0  0  0  0  0
   -5.3872   -3.9427   -0.6471 N   0  0  0  0  0  0  0  0  0  0  0  0
   -5.1896   -2.7054   -1.1967 C   0  0  0  0  0  0  0  0  0  0  0  0
   -3.8260    0.2443    0.3163 C   0  0  0  0  0  0  0  0  0  0  0  0
   -3.5713    1.5729    0.1921 C   0  0  0  0  0  0  0  0  0  0  0  0
    1.1042   -0.8383    0.6271 C   0  0  0  0  0  0  0  0  0  0  0  0
  1  2  1  0
  2  3  2  0
  3  4  1  0
  4  5  1  0
  5  6  1  6
  5  7  1  0
  7  8  2  0
  8  9  1  0
  9 10  2  0
 10 11  1  0
 11 12  2  0
  3 13  1  0
 13 14  1  0
 14 15  1  0
 15 16  1  0
 16 17  1  0
 17 18  1  0
 18 19  1  0
 19 20  2  0
 20 21  1  0
 21 22  1  0
 22 23  2  0
 23 24  1  0
 24 25  2  0
 25 26  1  0
 26 27  1  0
 27 28  2  0
 28 29  1  0
 29 30  2  0
 25 31  1  0
 31 32  2  0
 15 33  1  0
 33  2  1  0
 12  7  1  0
 32 19  1  0
 32 22  1  0
 30 26  1  0
M  END
>  <zinc_id>  (1) 
ZINC000001486801

>  <smiles>  (1) 
CC1=C(C[C@H](C)c2ccccc2)CCN(CCCc2c[nH]c3ccc(-n4cnnc4)cc23)C1

$$$$
