
     RDKit          3D

 30 32  0  0  0  0  0  0  0  0999 V2000
   -6.1183   -4.5488    0.6947 C   0  0  0  0  0  0  0  0  0  0  0  0
   -5.0644   -3.5237    0.4783 C   0  0  0  0  0  0  0  0  0  0  0  0
   -5.2383   -2.2636    0.9017 C   0  0  0  0  0  0  0  0  0  0  0  0
   -4.2334   -1.2941    0.6988 C   0  0  0  0  0  0  0  0  0  0  0  0
   -3.0372   -1.7507    0.0141 C   0  0  0  0  0  0  0  0  0  0  0  0
   -2.1760   -0.6438   -0.2902 N   0  0  0  0  0  0  0  0  0  0  0  0
   -1.9990    0.3058    0.7186 C   0  0  0  0  0  0  0  0  0  0  0  0
   -2.5003    0.2032    1.8648 O   0  0  0  0  0  0  0  0  0  0  0  0
   -1.1109    1.5917    0.4593 C   0  0  2  0  0  0  0  0  0  0  0  0
   -1.4474    1.7968   -1.1323 C   0  0  0  0  0  0  0  0  0  0  0  0
   -0.6282    3.0173   -1.3723 C   0  0  0  0  0  0  0  0  0  0  0  0
   -1.2021    4.2461   -1.0373 C   0  0  0  0  0  0  0  0  0  0  0  0
   -0.4974    5.4056   -1.2342 C   0  0  0  0  0  0  0  0  0  0  0  0
    0.7536    5.3580   -1.7599 C   0  0  0  0  0  0  0  0  0  0  0  0
    1.3386    4.1667   -2.0938 C   0  0  0  0  0  0  0  0  0  0  0  0
    0.6159    2.9759   -1.8910 C   0  0  0  0  0  0  0  0  0  0  0  0
    0.2178    0.8954    0.3093 N   0  0  0  0  0  0  0  0  0  0  0  0
    1.2729    0.9642    1.2229 C   0  0  0  0  0  0  0  0  0  0  0  0
    1.2091    1.6164    2.3009 O   0  0  0  0  0  0  0  0  0  0  0  0
    2.4547    0.2849    0.9266 O   0  0  0  0  0  0  0  0  0  0  0  0
    3.6139    0.2066    1.6616 C   0  0  0  0  0  0  0  0  0  0  0  0
    4.5647   -0.6290    0.8612 C   0  0  0  0  0  0  0  0  0  0  0  0
    5.8938   -0.4585    0.9329 C   0  0  0  0  0  0  0  0  0  0  0  0
    6.7260   -1.2599    0.1500 C   0  0  0  0  0  0  0  0  0  0  0  0
    6.2263   -2.2329   -0.6922 C   0  0  0  0  0  0  0  0  0  0  0  0
    4.8477   -2.3711   -0.7296 C   0  0  0  0  0  0  0  0  0  0  0  0
    4.0119   -1.5934    0.0253 C   0  0  0  0  0  0  0  0  0  0  0  0
   -2.9495   -3.0136   -0.3676 C   0  0  0  0  0  0  0  0  0  0  0  0
   -1.6315   -3.4217   -1.0188 C   0  0  0  0  0  0  0  0  0  0  0  0
   -3.9129   -4.0297   -0.1946 C   0  0  0  0  0  0  0  0  0  0  0  0
  1  2  1  0
  2  3  2  0
  3  4  1  0
  4  5  2  0
  5  6  1  0
  6  7  1  0
  7  8  2  0
  7  9  1  0
  9 10  1  6
 10 11  1  0
 11 12  2  0
 12 13  1  0
 13 14  2  0
 14 15  1  0
 15 16  2  0
  9 17  1  0
 17 18  1  0
 18 19  2  0
 18 20  1  0
 20 21  1  0
 21 22  1  0
 22 23  2  0
 23 24  1  0
 24 25  2  0
 25 26  1  0
 26 27  2  0
  5 28  1  0
 28 29  1  0
 28 30  2  0
 30  2  1  0
 16 11  1  0
 27 22  1  0
M  END
>  <zinc_id>  (1) 
ZINC000001056074

>  <smiles>  (1) 
Cc1ccc(NC(=O)[C@H](Cc2ccccc2)NC(=O)OCc2ccccc2)c(C)c1

$$$$
