
     RDKit          3D

 30 33  0  0  0  0  0  0  0  0999 V2000
    4.3788   -0.5065    0.1227 O   0  0  0  0  0  0  0  0  0  0  0  0
    3.6848    0.7268    0.6748 C   0  0  2  0  0  0  0  0  0  0  0  0
    4.5772    0.8109    2.0481 C   0  0  0  0  0  0  0  0  0  0  0  0
    5.8473    1.0200    1.6941 O   0  0  0  0  0  0  0  0  0  0  0  0
    6.8733    0.4912    1.0339 C   0  0  0  0  0  0  0  0  0  0  0  0
    8.0558    1.2749    1.0031 C   0  0  0  0  0  0  0  0  0  0  0  0
    9.1901    0.8525    0.3615 C   0  0  0  0  0  0  0  0  0  0  0  0
    9.1964   -0.3635   -0.2747 C   0  0  0  0  0  0  0  0  0  0  0  0
    8.0717   -1.1669   -0.2757 C   0  0  0  0  0  0  0  0  0  0  0  0
    6.9583   -0.7116    0.3754 C   0  0  0  0  0  0  0  0  0  0  0  0
    2.4632   -0.1673    1.3940 C   0  0  0  0  0  0  0  0  0  0  0  0
    1.9317   -0.7866    0.1632 N   0  0  0  0  0  0  0  0  0  0  0  0
    1.3161    0.2813   -0.6197 C   0  0  0  0  0  0  0  0  0  0  0  0
    0.3274    1.0559    0.2304 C   0  0  0  0  0  0  0  0  0  0  0  0
   -0.6838    0.1312    0.7889 C   0  0  0  0  0  0  0  0  0  0  0  0
   -1.9616    0.1015    0.0341 C   0  0  0  0  0  0  0  0  0  0  0  0
   -2.0058   -0.0500   -1.3346 C   0  0  0  0  0  0  0  0  0  0  0  0
   -3.1995   -0.0718   -2.0247 C   0  0  0  0  0  0  0  0  0  0  0  0
   -4.4165    0.0567   -1.3906 C   0  0  0  0  0  0  0  0  0  0  0  0
   -5.6077    0.0327   -2.1068 O   0  0  0  0  0  0  0  0  0  0  0  0
   -6.8229    0.1768   -1.4123 C   0  0  0  0  0  0  0  0  0  0  0  0
   -7.3440    1.4420   -1.1940 C   0  0  0  0  0  0  0  0  0  0  0  0
   -8.5296    1.6340   -0.5202 C   0  0  0  0  0  0  0  0  0  0  0  0
   -9.2453    0.5392   -0.0350 C   0  0  0  0  0  0  0  0  0  0  0  0
   -8.7127   -0.7122   -0.2605 C   0  0  0  0  0  0  0  0  0  0  0  0
   -7.5187   -0.8926   -0.9387 C   0  0  0  0  0  0  0  0  0  0  0  0
   -4.3727    0.2081   -0.0223 C   0  0  0  0  0  0  0  0  0  0  0  0
   -3.1859    0.2308    0.6754 C   0  0  0  0  0  0  0  0  0  0  0  0
   -0.2073   -1.1776    1.2796 C   0  0  0  0  0  0  0  0  0  0  0  0
    0.9420   -1.7832    0.5303 C   0  0  0  0  0  0  0  0  0  0  0  0
  2  1  1  6
  2  3  1  0
  3  4  1  0
  4  5  1  0
  5  6  2  0
  6  7  1  0
  7  8  2  0
  8  9  1  0
  9 10  2  0
  2 11  1  0
 11 12  1  0
 12 13  1  0
 13 14  1  0
 14 15  1  0
 15 16  1  0
 16 17  2  0
 17 18  1  0
 18 19  2  0
 19 20  1  0
 20 21  1  0
 21 22  2  0
 22 23  1  0
 23 24  2  0
 24 25  1  0
 25 26  2  0
 19 27  1  0
 27 28  2  0
 15 29  1  0
 29 30  1  0
 10  5  1  0
 30 12  1  0
 28 16  1  0
 26 21  1  0
M  END
>  <zinc_id>  (1) 
ZINC000003981917

>  <smiles>  (1) 
O[C@H](COc1ccccc1)CN1CCC(c2ccc(Oc3ccccc3)cc2)CC1

$$$$
