
     RDKit          3D

 32 35  0  0  0  0  0  0  0  0999 V2000
    4.9367    3.5805    0.9101 C   0  0  0  0  0  0  0  0  0  0  0  0
    6.0268    2.7203    0.6367 O   0  0  0  0  0  0  0  0  0  0  0  0
    5.8333    1.3816    0.3184 C   0  0  0  0  0  0  0  0  0  0  0  0
    6.9266    0.5798    0.0594 C   0  0  0  0  0  0  0  0  0  0  0  0
    6.6763   -0.7405   -0.2514 C   0  0  0  0  0  0  0  0  0  0  0  0
    5.3996   -1.2527   -0.3055 C   0  0  0  0  0  0  0  0  0  0  0  0
    5.1917   -2.5850   -0.6218 O   0  0  0  0  0  0  0  0  0  0  0  0
    6.2708   -3.4550   -0.8970 C   0  0  0  0  0  0  0  0  0  0  0  0
    4.3067   -0.4490   -0.0458 C   0  0  0  0  0  0  0  0  0  0  0  0
    3.0111   -1.0275   -0.1176 N   0  0  0  0  0  0  0  0  0  0  0  0
    1.8936   -0.1939    0.1543 C   0  0  0  0  0  0  0  0  0  0  0  0
    1.9861    1.0228    0.4556 O   0  0  0  0  0  0  0  0  0  0  0  0
    0.5601   -0.7981    0.0763 C   0  0  0  0  0  0  0  0  0  0  0  0
   -0.7639    0.3831    0.4514 S   0  0  0  0  0  0  0  0  0  0  0  0
   -2.3064   -0.4949    0.2976 C   0  0  0  0  0  0  0  0  0  0  0  0
   -2.8097   -1.1188    1.3698 N   0  0  0  0  0  0  0  0  0  0  0  0
   -3.9673   -1.8054    1.2907 C   0  0  0  0  0  0  0  0  0  0  0  0
   -4.4661   -2.4408    2.4127 C   0  0  0  0  0  0  0  0  0  0  0  0
   -5.6393   -3.1380    2.3371 C   0  0  0  0  0  0  0  0  0  0  0  0
   -6.3116   -3.1930    1.1222 C   0  0  0  0  0  0  0  0  0  0  0  0
   -5.8090   -2.5573    0.0079 C   0  0  0  0  0  0  0  0  0  0  0  0
   -4.6077   -1.8393    0.0706 C   0  0  0  0  0  0  0  0  0  0  0  0
   -4.1277   -1.2116   -1.0621 C   0  0  0  0  0  0  0  0  0  0  0  0
   -2.9315   -0.5201   -0.9179 C   0  0  0  0  0  0  0  0  0  0  0  0
   -2.3253    0.2027   -2.0489 C   0  0  0  0  0  0  0  0  0  0  0  0
   -2.6271    1.6349   -1.9096 C   0  0  0  0  0  0  0  0  0  0  0  0
   -3.7938    2.1777   -2.4056 C   0  0  0  0  0  0  0  0  0  0  0  0
   -4.0814    3.5257   -2.2858 C   0  0  0  0  0  0  0  0  0  0  0  0
   -3.2026    4.3782   -1.6606 C   0  0  0  0  0  0  0  0  0  0  0  0
   -2.0353    3.8558   -1.1602 C   0  0  0  0  0  0  0  0  0  0  0  0
   -1.7705    2.5071   -1.2920 C   0  0  0  0  0  0  0  0  0  0  0  0
    4.5567    0.8706    0.2648 C   0  0  0  0  0  0  0  0  0  0  0  0
  1  2  1  0
  2  3  1  0
  3  4  2  0
  4  5  1  0
  5  6  2  0
  6  7  1  0
  7  8  1  0
  6  9  1  0
  9 10  1  0
 10 11  1  0
 11 12  2  0
 11 13  1  0
 13 14  1  0
 14 15  1  0
 15 16  2  0
 16 17  1  0
 17 18  2  0
 18 19  1  0
 19 20  2  0
 20 21  1  0
 21 22  2  0
 22 23  1  0
 23 24  2  0
 24 25  1  0
 25 26  1  0
 26 27  2  0
 27 28  1  0
 28 29  2  0
 29 30  1  0
 30 31  2  0
  9 32  2  0
 32  3  1  0
 24 15  1  0
 31 26  1  0
 22 17  1  0
M  END
>  <zinc_id>  (1) 
ZINC000001339851

>  <smiles>  (1) 
COc1ccc(OC)c(NC(=O)CSc2nc3ccccc3cc2Cc2ccccc2)c1

$$$$
