
     RDKit          3D

 30 33  0  0  0  0  0  0  0  0999 V2000
    6.1523   -1.4846    3.1734 C   0  0  0  0  0  0  0  0  0  0  0  0
    5.8511   -1.7311    1.7318 C   0  0  0  0  0  0  0  0  0  0  0  0
    6.1536   -3.1606    1.3529 C   0  0  0  0  0  0  0  0  0  0  0  0
    5.8404   -3.3838   -0.1098 C   0  0  0  0  0  0  0  0  0  0  0  0
    4.4087   -3.1249   -0.4430 C   0  0  0  0  0  0  0  0  0  0  0  0
    3.9793   -1.7083   -0.1425 C   0  0  0  0  0  0  0  0  0  0  0  0
    2.6405   -1.5012   -0.4645 O   0  0  0  0  0  0  0  0  0  0  0  0
    2.0360   -0.2677   -0.2690 C   0  0  0  0  0  0  0  0  0  0  0  0
    2.7165    0.6527    0.2014 O   0  0  0  0  0  0  0  0  0  0  0  0
    0.6279   -0.0394   -0.6047 C   0  0  0  0  0  0  0  0  0  0  0  0
   -0.2864   -0.9259   -1.1320 C   0  0  0  0  0  0  0  0  0  0  0  0
    0.0159   -2.2813   -1.4506 N   0  0  0  0  0  0  0  0  0  0  0  0
   -1.4844   -0.3379   -1.2999 N   0  0  0  0  0  0  0  0  0  0  0  0
   -2.6872   -0.9872   -1.8390 C   0  0  0  0  0  0  0  0  0  0  0  0
   -3.3993   -1.5645   -0.6477 C   0  0  0  0  0  0  0  0  0  0  0  0
   -4.3404   -0.8249    0.0447 C   0  0  0  0  0  0  0  0  0  0  0  0
   -5.0033   -1.3263    1.1326 C   0  0  0  0  0  0  0  0  0  0  0  0
   -4.7541   -2.6054    1.5851 C   0  0  0  0  0  0  0  0  0  0  0  0
   -3.8155   -3.3459    0.8962 C   0  0  0  0  0  0  0  0  0  0  0  0
   -3.1458   -2.8435   -0.2003 C   0  0  0  0  0  0  0  0  0  0  0  0
   -1.3646    0.9347   -0.8849 C   0  0  0  0  0  0  0  0  0  0  0  0
   -2.2190    1.9694   -0.8206 N   0  0  0  0  0  0  0  0  0  0  0  0
   -1.8213    3.1707   -0.3473 C   0  0  0  0  0  0  0  0  0  0  0  0
   -2.6662    4.2588   -0.2643 C   0  0  0  0  0  0  0  0  0  0  0  0
   -2.2250    5.4706    0.2247 C   0  0  0  0  0  0  0  0  0  0  0  0
   -0.9214    5.6266    0.6453 C   0  0  0  0  0  0  0  0  0  0  0  0
   -0.0663    4.5465    0.5676 C   0  0  0  0  0  0  0  0  0  0  0  0
   -0.5128    3.3418    0.0793 C   0  0  0  0  0  0  0  0  0  0  0  0
    0.3529    2.3308    0.0252 N   0  0  0  0  0  0  0  0  0  0  0  0
   -0.0623    1.1417   -0.4494 C   0  0  0  0  0  0  0  0  0  0  0  0
  1  2  1  0
  2  3  1  0
  3  4  1  0
  4  5  1  0
  5  6  1  0
  6  7  1  0
  7  8  1  0
  8  9  2  0
  8 10  1  0
 10 11  2  0
 11 12  1  0
 11 13  1  0
 13 14  1  0
 14 15  1  0
 15 16  2  0
 16 17  1  0
 17 18  2  0
 18 19  1  0
 19 20  2  0
 13 21  1  0
 21 22  2  0
 22 23  1  0
 23 24  2  0
 24 25  1  0
 25 26  2  0
 26 27  1  0
 27 28  2  0
 28 29  1  0
 29 30  2  0
 30 10  1  0
 20 15  1  0
 30 21  1  0
 28 23  1  0
M  END
>  <zinc_id>  (1) 
ZINC000002359198

>  <smiles>  (1) 
CCCCCCOC(=O)c1c(N)n(Cc2ccccc2)c2nc3ccccc3nc12

$$$$
