
     RDKit          3D

 30 32  0  0  0  0  0  0  0  0999 V2000
   -0.9683   -5.5398   -1.3520 C   0  0  0  0  0  0  0  0  0  0  0  0
   -2.1186   -4.6674   -1.0659 C   0  0  0  0  0  0  0  0  0  0  0  0
   -3.4081   -5.0625   -1.3487 C   0  0  0  0  0  0  0  0  0  0  0  0
   -4.4969   -4.2559   -1.0879 C   0  0  0  0  0  0  0  0  0  0  0  0
   -4.2728   -3.0024   -0.5193 C   0  0  0  0  0  0  0  0  0  0  0  0
   -5.3827   -2.0705   -0.2052 C   0  0  0  0  0  0  0  0  0  0  0  0
   -2.9898   -2.5912   -0.2297 C   0  0  0  0  0  0  0  0  0  0  0  0
   -2.7864   -1.2955    0.3544 N   0  0  0  0  0  0  0  0  0  0  0  0
   -1.4727   -0.8796    0.6580 C   0  0  0  0  0  0  0  0  0  0  0  0
   -0.5230   -1.5793    0.4418 O   0  0  0  0  0  0  0  0  0  0  0  0
   -1.3965    0.5752    1.2990 C   0  0  2  0  0  0  0  0  0  0  0  0
   -1.4955    1.4206   -0.1132 C   0  0  0  0  0  0  0  0  0  0  0  0
   -1.4370    2.8398    0.3239 C   0  0  0  0  0  0  0  0  0  0  0  0
   -2.6267    3.4751    0.6088 C   0  0  0  0  0  0  0  0  0  0  0  0
   -2.7245    4.7719    1.0195 C   0  0  0  0  0  0  0  0  0  0  0  0
   -1.5324    5.4795    1.1527 C   0  0  0  0  0  0  0  0  0  0  0  0
   -0.3329    4.8601    0.8721 C   0  0  0  0  0  0  0  0  0  0  0  0
   -0.2737    3.5482    0.4591 C   0  0  0  0  0  0  0  0  0  0  0  0
    0.1501    0.6467    1.4507 N   0  0  0  0  0  0  0  0  0  0  0  0
    0.9161    0.5895    0.2789 C   0  0  0  0  0  0  0  0  0  0  0  0
    0.3675    0.4906   -0.8415 O   0  0  0  0  0  0  0  0  0  0  0  0
    2.3149    0.6375    0.2892 O   0  0  0  0  0  0  0  0  0  0  0  0
    3.1016    0.5794   -0.8838 C   0  0  0  0  0  0  0  0  0  0  0  0
    4.5273    0.6605   -0.4591 C   0  0  0  0  0  0  0  0  0  0  0  0
    4.8773    0.7474    0.8771 C   0  0  0  0  0  0  0  0  0  0  0  0
    6.1975    0.8256    1.2655 C   0  0  0  0  0  0  0  0  0  0  0  0
    7.2323    0.8217    0.3565 C   0  0  0  0  0  0  0  0  0  0  0  0
    6.8994    0.7340   -1.0009 C   0  0  0  0  0  0  0  0  0  0  0  0
    5.5717    0.6573   -1.3603 C   0  0  0  0  0  0  0  0  0  0  0  0
   -1.9172   -3.4166   -0.5001 C   0  0  0  0  0  0  0  0  0  0  0  0
  1  2  1  0
  2  3  2  0
  3  4  1  0
  4  5  2  0
  5  6  1  0
  5  7  1  0
  7  8  1  0
  8  9  1  0
  9 10  2  0
  9 11  1  0
 11 12  1  6
 12 13  1  0
 13 14  2  0
 14 15  1  0
 15 16  2  0
 16 17  1  0
 17 18  2  0
 11 19  1  0
 19 20  1  0
 20 21  2  0
 20 22  1  0
 22 23  1  0
 23 24  1  0
 24 25  2  0
 25 26  1  0
 26 27  2  0
 27 28  1  0
 28 29  2  0
  7 30  2  0
 30  2  1  0
 18 13  1  0
 29 24  1  0
M  END
>  <zinc_id>  (1) 
ZINC000003663324

>  <smiles>  (1) 
Cc1ccc(C)c(NC(=O)[C@H](Cc2ccccc2)NC(=O)OCc2ccccc2)c1

$$$$
