
     RDKit          3D

 32 36  0  0  0  0  0  0  0  0999 V2000
    0.0138    2.4538   -0.1225 N   0  0  0  0  0  0  0  0  0  0  0  0
    0.0952    1.0227   -0.1738 C   0  0  0  0  0  0  0  0  0  0  0  0
   -0.9939    0.1685   -0.0596 C   0  0  0  0  0  0  0  0  0  0  0  0
   -2.3866    0.5151    0.1275 C   0  0  0  0  0  0  0  0  0  0  0  0
   -2.7140    1.7147    0.2033 O   0  0  0  0  0  0  0  0  0  0  0  0
   -3.3695   -0.4857    0.2240 N   0  0  0  0  0  0  0  0  0  0  0  0
   -4.7713   -0.2886    0.4081 C   0  0  0  0  0  0  0  0  0  0  0  0
   -5.0450    1.1840    0.4873 C   0  0  0  0  0  0  0  0  0  0  0  0
   -5.0383    1.8658    1.6634 C   0  0  0  0  0  0  0  0  0  0  0  0
   -5.2910    3.1980    1.7221 C   0  0  0  0  0  0  0  0  0  0  0  0
   -5.5608    3.8761    0.5623 C   0  0  0  0  0  0  0  0  0  0  0  0
   -5.5722    3.1945   -0.6534 C   0  0  0  0  0  0  0  0  0  0  0  0
   -5.3134    1.8466   -0.6857 C   0  0  0  0  0  0  0  0  0  0  0  0
   -0.5016   -1.1216   -0.1592 C   0  0  0  0  0  0  0  0  0  0  0  0
   -1.0549   -2.3450   -0.1238 N   0  0  0  0  0  0  0  0  0  0  0  0
   -0.2710   -3.4542   -0.2552 C   0  0  0  0  0  0  0  0  0  0  0  0
   -0.8177   -4.7212   -0.2219 C   0  0  0  0  0  0  0  0  0  0  0  0
   -0.0556   -5.8638   -0.3516 C   0  0  0  0  0  0  0  0  0  0  0  0
    1.3097   -5.7613   -0.5224 C   0  0  0  0  0  0  0  0  0  0  0  0
    1.8760   -4.5038   -0.5585 C   0  0  0  0  0  0  0  0  0  0  0  0
    1.0953   -3.3543   -0.4263 C   0  0  0  0  0  0  0  0  0  0  0  0
    1.6435   -2.1260   -0.4609 N   0  0  0  0  0  0  0  0  0  0  0  0
    0.8606   -1.0327   -0.3300 C   0  0  0  0  0  0  0  0  0  0  0  0
    1.1847    0.2729   -0.3339 N   0  0  0  0  0  0  0  0  0  0  0  0
    2.5158    0.7988   -0.4884 C   0  0  0  0  0  0  0  0  0  0  0  0
    3.2077    0.9615    0.8537 C   0  0  0  0  0  0  0  0  0  0  0  0
    4.5881    1.5173    0.5587 C   0  0  0  0  0  0  0  0  0  0  0  0
    4.9722    2.6607    1.0398 C   0  0  0  0  0  0  0  0  0  0  0  0
    6.2887    3.2485    0.7914 C   0  0  0  0  0  0  0  0  0  0  0  0
    6.8584    2.7110   -0.5015 C   0  0  0  0  0  0  0  0  0  0  0  0
    6.8163    1.1777   -0.4267 C   0  0  0  0  0  0  0  0  0  0  0  0
    5.4307    0.6700   -0.2993 C   0  0  0  0  0  0  0  0  0  0  0  0
  1  2  1  0
  2  3  2  0
  3  4  1  0
  4  5  2  0
  4  6  1  0
  6  7  1  0
  7  8  1  0
  8  9  2  0
  9 10  1  0
 10 11  2  0
 11 12  1  0
 12 13  2  0
  3 14  1  0
 14 15  2  0
 15 16  1  0
 16 17  2  0
 17 18  1  0
 18 19  2  0
 19 20  1  0
 20 21  2  0
 21 22  1  0
 22 23  2  0
 23 24  1  0
 24 25  1  0
 25 26  1  0
 26 27  1  0
 27 28  2  0
 28 29  1  0
 29 30  1  0
 30 31  1  0
 31 32  1  0
 24  2  1  0
 32 27  1  0
 13  8  1  0
 23 14  1  0
 21 16  1  0
M  END
>  <zinc_id>  (1) 
ZINC000002291752

>  <smiles>  (1) 
Nc1c(C(=O)NCc2ccccc2)c2nc3ccccc3nc2n1CCC1=CCCCC1

$$$$
