
     RDKit          3D

 31 34  0  0  0  0  0  0  0  0999 V2000
   -0.0612   -3.9596   -2.8251 C   0  0  0  0  0  0  0  0  0  0  0  0
   -0.5040   -3.0416   -1.7610 C   0  0  0  0  0  0  0  0  0  0  0  0
   -1.8316   -2.6625   -1.7426 C   0  0  0  0  0  0  0  0  0  0  0  0
   -2.3096   -1.8023   -0.7677 C   0  0  0  0  0  0  0  0  0  0  0  0
   -1.5088   -1.2839    0.2208 C   0  0  0  0  0  0  0  0  0  0  0  0
   -2.0078   -0.4053    1.2204 N   0  0  0  0  0  0  0  0  0  0  0  0
   -3.2570   -0.1022    1.5835 C   0  0  0  0  0  0  0  0  0  0  0  0
   -4.4775   -0.6535    0.9302 C   0  0  0  0  0  0  0  0  0  0  0  0
   -5.0296    0.3994    0.0265 C   0  0  0  0  0  0  0  0  0  0  0  0
   -5.9974    1.2949    0.5004 C   0  0  0  0  0  0  0  0  0  0  0  0
   -6.5027    2.2697   -0.3381 C   0  0  0  0  0  0  0  0  0  0  0  0
   -6.1037    2.4183   -1.6403 C   0  0  0  0  0  0  0  0  0  0  0  0
   -5.1471    1.5376   -2.1195 C   0  0  0  0  0  0  0  0  0  0  0  0
   -4.6430    0.5648   -1.2834 C   0  0  0  0  0  0  0  0  0  0  0  0
   -3.2228    0.7860    2.6076 N   0  0  0  0  0  0  0  0  0  0  0  0
   -1.9620    1.0321    2.8748 N   0  0  0  0  0  0  0  0  0  0  0  0
   -1.2018    0.3162    2.0412 C   0  0  0  0  0  0  0  0  0  0  0  0
    0.5724    0.3073    2.0146 S   0  0  0  0  0  0  0  0  0  0  0  0
    1.1821    1.5634    0.8636 C   0  0  0  0  0  0  0  0  0  0  0  0
    2.6608    1.5155    0.8968 C   0  0  0  0  0  0  0  0  0  0  0  0
    3.2751    2.3033    1.6476 O   0  0  0  0  0  0  0  0  0  0  0  0
    3.3601    0.5986    0.0962 N   0  0  0  0  0  0  0  0  0  0  0  0
    4.8022    0.5069    0.0846 C   0  0  0  0  0  0  0  0  0  0  0  0
    5.5179    1.3928    0.8461 C   0  0  0  0  0  0  0  0  0  0  0  0
    6.8756    1.3452    0.8683 C   0  0  0  0  0  0  0  0  0  0  0  0
    7.5377    0.3950    0.1160 C   0  0  0  0  0  0  0  0  0  0  0  0
    6.8188   -0.4903   -0.6456 C   0  0  0  0  0  0  0  0  0  0  0  0
    7.5819   -1.5067   -1.4465 C   0  0  0  0  0  0  0  0  0  0  0  0
    5.4472   -0.4388   -0.6648 C   0  0  0  0  0  0  0  0  0  0  0  0
   -0.1700   -1.6718    0.1949 C   0  0  0  0  0  0  0  0  0  0  0  0
    0.3056   -2.5287   -0.7767 C   0  0  0  0  0  0  0  0  0  0  0  0
  1  2  1  0
  2  3  2  0
  3  4  1  0
  4  5  2  0
  5  6  1  0
  6  7  1  0
  7  8  1  0
  8  9  1  0
  9 10  2  0
 10 11  1  0
 11 12  2  0
 12 13  1  0
 13 14  2  0
  7 15  2  0
 15 16  1  0
 16 17  2  0
 17 18  1  0
 18 19  1  0
 19 20  1  0
 20 21  2  0
 20 22  1  0
 22 23  1  0
 23 24  2  0
 24 25  1  0
 25 26  2  0
 26 27  1  0
 27 28  1  0
 27 29  2  0
  5 30  1  0
 30 31  2  0
 31  2  1  0
 17  6  1  0
 29 23  1  0
 14  9  1  0
M  END
>  <zinc_id>  (1) 
ZINC000000888259

>  <smiles>  (1) 
Cc1ccc(-n2c(Cc3ccccc3)nnc2SCC(=O)Nc2cccc(C)c2)cc1

$$$$
