
     RDKit          3D

 31 35  0  0  0  0  0  0  0  0999 V2000
    6.9565    0.9425    3.4991 C   0  0  0  0  0  0  0  0  0  0  0  0
    6.9520    1.0003    2.0889 O   0  0  0  0  0  0  0  0  0  0  0  0
    5.7799    0.6998    1.3582 C   0  0  0  0  0  0  0  0  0  0  0  0
    4.6156    0.3324    1.9429 C   0  0  0  0  0  0  0  0  0  0  0  0
    3.4519    0.0260    1.2140 C   0  0  0  0  0  0  0  0  0  0  0  0
    3.5229    0.1158   -0.1792 C   0  0  0  0  0  0  0  0  0  0  0  0
    2.4511   -0.1528   -0.9663 N   0  0  0  0  0  0  0  0  0  0  0  0
    2.4609   -0.0796   -2.2987 C   0  0  0  0  0  0  0  0  0  0  0  0
    1.4390   -0.2597   -3.1575 N   0  0  0  0  0  0  0  0  0  0  0  0
   -0.0396   -0.4436   -2.9888 C   0  0  2  0  0  0  0  0  0  0  0  0
   -0.4184    1.1057   -2.6511 C   0  0  0  0  0  0  0  0  0  0  0  0
    0.2841    1.5221   -1.3789 C   0  0  0  0  0  0  0  0  0  0  0  0
   -0.4962    0.9495   -0.2109 C   0  0  0  0  0  0  0  0  0  0  0  0
   -1.4409   -0.2269   -1.0608 C   0  0  2  0  0  0  0  0  0  0  0  0
   -1.7788   -0.9810    0.2503 N   0  0  0  0  0  0  0  0  0  0  0  0
   -2.4476    0.0921    1.0049 C   0  0  0  0  0  0  0  0  0  0  0  0
   -3.8971   -0.1692    1.1948 C   0  0  0  0  0  0  0  0  0  0  0  0
   -4.7450    0.6307    1.9411 C   0  0  0  0  0  0  0  0  0  0  0  0
   -6.0447    0.1097    1.8857 C   0  0  0  0  0  0  0  0  0  0  0  0
   -7.2678    0.4763    2.4053 C   0  0  0  0  0  0  0  0  0  0  0  0
   -8.4120   -0.2692    2.1533 C   0  0  0  0  0  0  0  0  0  0  0  0
   -8.2622   -1.3904    1.3605 C   0  0  0  0  0  0  0  0  0  0  0  0
   -7.0487   -1.7764    0.8302 C   0  0  0  0  0  0  0  0  0  0  0  0
   -5.9189   -1.0028    1.1013 C   0  0  0  0  0  0  0  0  0  0  0  0
   -4.6520   -1.1247    0.7238 O   0  0  0  0  0  0  0  0  0  0  0  0
   -0.1012   -1.0274   -1.4948 C   0  0  0  0  0  0  0  0  0  0  0  0
    3.6862    0.3018   -2.8465 C   0  0  0  0  0  0  0  0  0  0  0  0
    4.7902    0.5818   -2.1388 C   0  0  0  0  0  0  0  0  0  0  0  0
    6.0590    0.9802   -2.7725 C   0  0  0  0  0  0  0  0  0  0  0  0
    4.6877    0.4824   -0.7639 C   0  0  0  0  0  0  0  0  0  0  0  0
    5.8341    0.7780   -0.0457 C   0  0  0  0  0  0  0  0  0  0  0  0
  1  2  1  0
  2  3  1  0
  3  4  2  0
  4  5  1  0
  5  6  2  0
  6  7  1  0
  7  8  2  0
  8  9  1  0
 10  9  1  1
 10 11  1  0
 11 12  1  0
 12 13  1  0
 13 14  1  0
 14 15  1  1
 15 16  1  0
 16 17  1  0
 17 18  2  0
 18 19  1  0
 19 20  2  0
 20 21  1  0
 21 22  2  0
 22 23  1  0
 23 24  2  0
 24 25  1  0
 14 26  1  0
  8 27  1  0
 27 28  2  0
 28 29  1  0
 28 30  1  0
 30 31  2  0
 31  3  1  0
 30  6  1  0
 26 10  1  0
 25 17  1  0
 24 19  1  0
M  END
>  <zinc_id>  (1) 
ZINC000003937338

>  <smiles>  (1) 
COc1ccc2nc(N[C@@H]3CCC[C@H](NCc4cc5ccccc5o4)C3)cc(C)c2c1

$$$$
