
     RDKit          3D

 31 35  0  0  0  0  0  0  0  0999 V2000
   -2.8035    6.2586   -0.0493 O   0  0  0  0  0  0  0  0  0  0  0  0
   -2.6179    4.8967   -0.3489 C   0  0  0  0  0  0  0  0  0  0  0  0
   -3.0412    4.3740   -1.5480 C   0  0  0  0  0  0  0  0  0  0  0  0
   -2.8598    3.0328   -1.8460 C   0  0  0  0  0  0  0  0  0  0  0  0
   -2.2449    2.2020   -0.9290 C   0  0  0  0  0  0  0  0  0  0  0  0
   -1.8264    2.6792    0.2358 C   0  0  0  0  0  0  0  0  0  0  0  0
   -2.0110    4.0462    0.5403 C   0  0  0  0  0  0  0  0  0  0  0  0
   -1.1687    1.8974    1.2640 C   0  0  0  0  0  0  0  0  0  0  0  0
   -1.2637    0.4611    1.0461 C   0  0  0  0  0  0  0  0  0  0  0  0
   -2.5439    0.0737    0.1608 C   0  0  2  0  0  0  0  0  0  0  0  0
   -2.1929   -1.4073   -0.0949 C   0  0  0  0  0  0  0  0  0  0  0  0
   -2.3070   -2.0099   -1.3058 C   0  0  0  0  0  0  0  0  0  0  0  0
   -1.9806   -3.3665   -1.4739 C   0  0  0  0  0  0  0  0  0  0  0  0
   -1.5441   -4.0832   -0.4053 C   0  0  0  0  0  0  0  0  0  0  0  0
   -1.4212   -3.5031    0.8174 C   0  0  0  0  0  0  0  0  0  0  0  0
   -1.7550   -2.1360    0.9659 C   0  0  0  0  0  0  0  0  0  0  0  0
   -2.0918    0.6941   -1.3667 C   0  0  2  0  0  0  0  0  0  0  0  0
   -0.5542    0.5623   -1.3500 C   0  0  0  0  0  0  0  0  0  0  0  0
    0.2868    1.3615   -2.0432 C   0  0  0  0  0  0  0  0  0  0  0  0
    1.6565    1.1724   -2.0063 C   0  0  0  0  0  0  0  0  0  0  0  0
    2.1792    0.1507   -1.2495 C   0  0  0  0  0  0  0  0  0  0  0  0
    3.5750   -0.0657   -1.1934 O   0  0  0  0  0  0  0  0  0  0  0  0
    4.1038   -1.1171   -0.4140 C   0  0  0  0  0  0  0  0  0  0  0  0
    3.6706   -0.8510    1.0237 C   0  0  0  0  0  0  0  0  0  0  0  0
    4.2059   -1.9202    1.8301 N   0  0  0  0  0  0  0  0  0  0  0  0
    3.8838   -1.8140    3.2192 C   0  0  0  0  0  0  0  0  0  0  0  0
    3.8092   -3.1899    3.7982 C   0  0  0  0  0  0  0  0  0  0  0  0
    3.7134   -4.0989    2.6176 C   0  0  0  0  0  0  0  0  0  0  0  0
    3.8176   -3.2233    1.3721 C   0  0  0  0  0  0  0  0  0  0  0  0
    1.3460   -0.6333   -0.5689 N   0  0  0  0  0  0  0  0  0  0  0  0
   -0.0198   -0.4435   -0.6066 C   0  0  0  0  0  0  0  0  0  0  0  0
  1  2  1  0
  2  3  2  0
  3  4  1  0
  4  5  2  0
  5  6  1  0
  6  7  2  0
  6  8  1  0
  8  9  1  0
  9 10  1  0
 10 11  1  6
 11 12  2  0
 12 13  1  0
 13 14  2  0
 14 15  1  0
 15 16  2  0
 10 17  1  0
 17 18  1  1
 18 19  2  0
 19 20  1  0
 20 21  2  0
 21 22  1  0
 22 23  1  0
 23 24  1  0
 24 25  1  0
 25 26  1  0
 26 27  1  0
 27 28  1  0
 28 29  1  0
 21 30  1  0
 30 31  2  0
  7  2  1  0
 16 11  1  0
 31 18  1  0
 17  5  1  0
 29 25  1  0
M  END
>  <zinc_id>  (1) 
ZINC000003826688

>  <smiles>  (1) 
Oc1ccc2c(c1)CC[C@H](c1ccccc1)[C@@H]2c1ccc(OCCN2CCCC2)nc1

$$$$
