
     RDKit          3D

 32 36  0  0  0  0  0  0  0  0999 V2000
   -5.7346   -3.2977    0.9545 C   0  0  0  0  0  0  0  0  0  0  0  0
   -5.6884   -2.0372    1.5981 O   0  0  0  0  0  0  0  0  0  0  0  0
   -4.8407   -1.0250    1.1218 C   0  0  0  0  0  0  0  0  0  0  0  0
   -4.0268   -1.2021    0.0261 C   0  0  0  0  0  0  0  0  0  0  0  0
   -3.2066   -0.1880   -0.4154 C   0  0  0  0  0  0  0  0  0  0  0  0
   -3.1679    0.9682    0.1795 C   0  0  0  0  0  0  0  0  0  0  0  0
   -2.2518    2.2031   -0.2569 C   0  0  2  0  0  0  0  0  0  0  0  0
   -2.5472    2.1890   -1.7809 N   0  0  0  0  0  0  0  0  0  0  0  0
   -2.5815    0.9377   -2.3521 C   0  0  0  0  0  0  0  0  0  0  0  0
   -1.1788    0.4317   -2.6353 C   0  0  0  0  0  0  0  0  0  0  0  0
   -0.4763    0.6861   -1.3409 C   0  0  0  0  0  0  0  0  0  0  0  0
   -0.8740    1.4093   -0.3240 C   0  0  0  0  0  0  0  0  0  0  0  0
    0.0368    1.4063    0.6837 N   0  0  0  0  0  0  0  0  0  0  0  0
    1.0681    0.6428    0.2908 C   0  0  0  0  0  0  0  0  0  0  0  0
    2.2765    0.2643    0.8720 C   0  0  0  0  0  0  0  0  0  0  0  0
    3.1361   -0.5554    0.1744 C   0  0  0  0  0  0  0  0  0  0  0  0
    2.8711   -1.0350   -1.0886 C   0  0  0  0  0  0  0  0  0  0  0  0
    3.7727   -1.8685   -1.7671 O   0  0  0  0  0  0  0  0  0  0  0  0
    4.9919   -2.2834   -1.2473 C   0  0  0  0  0  0  0  0  0  0  0  0
    5.9207   -1.1784   -0.9199 C   0  0  0  0  0  0  0  0  0  0  0  0
    5.6385    0.1447   -1.0996 C   0  0  0  0  0  0  0  0  0  0  0  0
    6.5776    1.0761   -0.7596 C   0  0  0  0  0  0  0  0  0  0  0  0
    7.8072    0.7550   -0.2399 C   0  0  0  0  0  0  0  0  0  0  0  0
    8.1073   -0.5862   -0.0519 C   0  0  0  0  0  0  0  0  0  0  0  0
    7.1467   -1.5154   -0.4009 C   0  0  0  0  0  0  0  0  0  0  0  0
    1.6726   -0.6484   -1.6424 C   0  0  0  0  0  0  0  0  0  0  0  0
    0.7713    0.1796   -0.9745 C   0  0  0  0  0  0  0  0  0  0  0  0
   -3.9633    1.2195    1.2936 C   0  0  0  0  0  0  0  0  0  0  0  0
   -4.7800    0.2090    1.7329 C   0  0  0  0  0  0  0  0  0  0  0  0
   -5.6817    0.3764    2.9308 C   0  0  0  0  0  0  0  0  0  0  0  0
   -5.4539    1.7844    3.4339 C   0  0  0  0  0  0  0  0  0  0  0  0
   -5.3413   -0.6378    4.0054 C   0  0  0  0  0  0  0  0  0  0  0  0
  1  2  1  0
  2  3  1  0
  3  4  2  0
  4  5  1  0
  5  6  2  0
  7  6  1  1
  7  8  1  0
  8  9  1  0
  9 10  1  0
 10 11  1  0
 11 12  2  0
 12 13  1  0
 13 14  1  0
 14 15  2  0
 15 16  1  0
 16 17  2  0
 17 18  1  0
 18 19  1  0
 19 20  1  0
 20 21  2  0
 21 22  1  0
 22 23  2  0
 23 24  1  0
 24 25  2  0
 17 26  1  0
 26 27  2  0
  6 28  1  0
 28 29  2  0
 29 30  1  0
 30 31  1  0
 30 32  1  0
 29  3  1  0
 12  7  1  0
 27 14  1  0
 27 11  1  0
 25 20  1  0
M  END
>  <zinc_id>  (1) 
ZINC000003737292

>  <smiles>  (1) 
COc1ccc([C@@H]2NCCc3c2[nH]c2ccc(OCc4ccccc4)cc32)cc1C(C)C

$$$$
