
     RDKit          3D

 32 35  0  0  0  0  0  0  0  0999 V2000
    2.5467   -0.6359   -3.1898 C   0  0  0  0  0  0  0  0  0  0  0  0
    1.4702   -1.6807   -3.0546 C   0  0  0  0  0  0  0  0  0  0  0  0
    0.4096   -1.1312   -2.2555 O   0  0  0  0  0  0  0  0  0  0  0  0
   -0.7275   -1.8332   -1.9539 C   0  0  0  0  0  0  0  0  0  0  0  0
   -0.8117   -3.0014   -2.4073 O   0  0  0  0  0  0  0  0  0  0  0  0
   -1.8240   -1.3015   -1.1512 C   0  0  0  0  0  0  0  0  0  0  0  0
   -2.9745   -1.9494   -0.8703 N   0  0  0  0  0  0  0  0  0  0  0  0
   -3.8017   -1.1874   -0.1343 C   0  0  0  0  0  0  0  0  0  0  0  0
   -5.0682   -1.4218    0.3825 C   0  0  0  0  0  0  0  0  0  0  0  0
   -5.6854   -0.4361    1.1130 C   0  0  0  0  0  0  0  0  0  0  0  0
   -5.0845    0.7808    1.3490 C   0  0  0  0  0  0  0  0  0  0  0  0
   -5.8084    1.6910    2.0987 O   0  0  0  0  0  0  0  0  0  0  0  0
   -5.3326    2.9733    2.4242 C   0  0  0  0  0  0  0  0  0  0  0  0
   -3.8280    0.9953    0.8284 C   0  0  0  0  0  0  0  0  0  0  0  0
   -3.1655    0.0218    0.0811 C   0  0  0  0  0  0  0  0  0  0  0  0
   -1.9488   -0.0711   -0.5535 C   0  0  0  0  0  0  0  0  0  0  0  0
   -0.9425    0.9241   -0.5775 N   0  0  0  0  0  0  0  0  0  0  0  0
    0.0012    1.1222    0.4512 C   0  0  0  0  0  0  0  0  0  0  0  0
   -0.0046    0.4357    1.4376 O   0  0  0  0  0  0  0  0  0  0  0  0
    0.9999    2.2910    0.1458 C   0  0  1  0  0  0  0  0  0  0  0  0
    1.6242    2.4826    1.6778 C   0  0  0  0  0  0  0  0  0  0  0  0
    2.3701    3.7666    1.3219 C   0  0  0  0  0  0  0  0  0  0  0  0
    3.3633    3.4693    0.4965 C   0  0  0  0  0  0  0  0  0  0  0  0
    3.5378    2.1175    0.1289 C   0  0  0  0  0  0  0  0  0  0  0  0
    2.2804    1.3192   -0.4223 C   0  0  1  0  0  0  0  0  0  0  0  0
    2.2663    0.2385    0.8283 C   0  0  0  0  0  0  0  0  0  0  0  0
    3.3165   -0.7402    0.5850 C   0  0  0  0  0  0  0  0  0  0  0  0
    3.1000   -1.9104   -0.0998 C   0  0  0  0  0  0  0  0  0  0  0  0
    4.1272   -2.8347   -0.3202 C   0  0  0  0  0  0  0  0  0  0  0  0
    5.3736   -2.5709    0.1545 C   0  0  0  0  0  0  0  0  0  0  0  0
    5.6295   -1.4191    0.8400 C   0  0  0  0  0  0  0  0  0  0  0  0
    4.5916   -0.5036    1.0528 C   0  0  0  0  0  0  0  0  0  0  0  0
  1  2  1  0
  2  3  1  0
  3  4  1  0
  4  5  2  0
  4  6  1  0
  6  7  1  0
  7  8  1  0
  8  9  2  0
  9 10  1  0
 10 11  2  0
 11 12  1  0
 12 13  1  0
 11 14  1  0
 14 15  2  0
 15 16  1  0
 16 17  1  0
 17 18  1  0
 18 19  2  0
 20 18  1  1
 20 21  1  0
 21 22  1  0
 22 23  2  0
 23 24  1  0
 24 25  1  0
 25 26  1  1
 26 27  1  0
 27 28  2  0
 28 29  1  0
 29 30  2  0
 30 31  1  0
 31 32  2  0
 16  6  2  0
 25 20  1  0
 32 27  1  0
 15  8  1  0
M  END
>  <zinc_id>  (1) 
ZINC000002317527

>  <smiles>  (1) 
CCOC(=O)c1[nH]c2ccc(OC)cc2c1NC(=O)[C@H]1CC=CC[C@H]1Cc1ccccc1

$$$$
