
     RDKit          3D

 31 33  0  0  0  0  0  0  0  0999 V2000
   -4.0491   -6.1834    0.0229 C   0  0  0  0  0  0  0  0  0  0  0  0
   -4.6710   -4.9832   -0.4862 N   0  0  0  0  0  0  0  0  0  0  0  0
   -5.9344   -5.1037   -1.1969 C   0  0  0  0  0  0  0  0  0  0  0  0
   -4.1035   -3.6945   -0.3177 C   0  0  0  0  0  0  0  0  0  0  0  0
   -4.7093   -2.5663   -0.8156 C   0  0  0  0  0  0  0  0  0  0  0  0
   -4.1588   -1.3204   -0.6437 C   0  0  0  0  0  0  0  0  0  0  0  0
   -2.9513   -1.1138    0.0464 C   0  0  0  0  0  0  0  0  0  0  0  0
   -2.5156    0.2438    0.1875 C   0  0  0  0  0  0  0  0  0  0  0  0
   -1.3390    0.7572    0.0055 C   0  0  0  0  0  0  0  0  0  0  0  0
   -1.0974    2.1774    0.2083 N   0  0  0  0  0  0  0  0  0  0  0  0
   -0.1929    2.5998    1.2252 C   0  0  0  0  0  0  0  0  0  0  0  0
    0.3491    1.6859    1.8996 O   0  0  0  0  0  0  0  0  0  0  0  0
    0.1146    3.9872    1.5054 C   0  0  0  0  0  0  0  0  0  0  0  0
    0.3143    4.3610    2.8212 C   0  0  0  0  0  0  0  0  0  0  0  0
    0.6114    5.6664    3.1581 C   0  0  0  0  0  0  0  0  0  0  0  0
    0.7031    6.5851    2.1214 C   0  0  0  0  0  0  0  0  0  0  0  0
    0.5141    6.2650    0.7983 C   0  0  0  0  0  0  0  0  0  0  0  0
    0.2167    4.9337    0.5238 C   0  0  0  0  0  0  0  0  0  0  0  0
   -0.2587   -0.0857   -0.4580 C   0  0  0  0  0  0  0  0  0  0  0  0
   -0.3067   -1.2899   -0.7225 O   0  0  0  0  0  0  0  0  0  0  0  0
    1.0283    0.5524   -0.6350 N   0  0  0  0  0  0  0  0  0  0  0  0
    2.1672   -0.0661   -1.0705 N   0  0  0  0  0  0  0  0  0  0  0  0
    3.3146   -0.1000   -0.5447 C   0  0  0  0  0  0  0  0  0  0  0  0
    4.3645   -0.8496   -1.2429 C   0  0  0  0  0  0  0  0  0  0  0  0
    4.2389   -1.5405   -2.4348 C   0  0  0  0  0  0  0  0  0  0  0  0
    5.4812   -2.0760   -2.7029 C   0  0  0  0  0  0  0  0  0  0  0  0
    6.3404   -1.7207   -1.6976 C   0  0  0  0  0  0  0  0  0  0  0  0
    5.6235   -0.9793   -0.8361 N   0  0  0  0  0  0  0  0  0  0  0  0
    6.1903   -0.3977    0.3892 C   0  0  0  0  0  0  0  0  0  0  0  0
   -2.3727   -2.2455    0.5286 C   0  0  0  0  0  0  0  0  0  0  0  0
   -2.9117   -3.4986    0.3638 C   0  0  0  0  0  0  0  0  0  0  0  0
  1  2  1  0
  2  3  1  0
  2  4  1  0
  4  5  2  0
  5  6  1  0
  6  7  2  0
  7  8  1  0
  8  9  2  0
  9 10  1  0
 10 11  1  0
 11 12  2  0
 11 13  1  0
 13 14  2  0
 14 15  1  0
 15 16  2  0
 16 17  1  0
 17 18  2  0
  9 19  1  0
 19 20  2  0
 19 21  1  0
 21 22  1  0
 22 23  2  3
 23 24  1  0
 24 25  2  0
 25 26  1  0
 26 27  2  0
 27 28  1  0
 28 29  1  0
  7 30  1  0
 30 31  2  0
 31  4  1  0
 18 13  1  0
 28 24  1  0
M  END
>  <zinc_id>  (1) 
ZINC000004467730

>  <smiles>  (1) 
CN(C)c1ccc(/C=C(/NC(=O)c2ccccc2)C(=O)NN=Cc2cccn2C)cc1

$$$$
