
     RDKit          3D

 30 32  0  0  0  0  0  0  0  0999 V2000
   -3.8409   -1.5163   -1.4335 C   0  0  0  0  0  0  0  0  0  0  0  0
   -3.7425    0.1453   -1.4842 C   0  0  2  0  0  0  0  0  0  0  0  0
   -3.3170    0.2388    0.0436 N   0  0  0  0  0  0  0  0  0  0  0  0
   -1.9536    0.1609    0.3094 C   0  0  0  0  0  0  0  0  0  0  0  0
   -1.1366    0.0260   -0.6144 O   0  0  0  0  0  0  0  0  0  0  0  0
   -1.4786    0.2438    1.6874 C   0  0  0  0  0  0  0  0  0  0  0  0
   -2.4045    0.3584    2.7303 C   0  0  0  0  0  0  0  0  0  0  0  0
   -1.9644    0.4365    4.0407 C   0  0  0  0  0  0  0  0  0  0  0  0
   -0.6467    0.4065    4.3289 C   0  0  0  0  0  0  0  0  0  0  0  0
    0.2382    0.2955    3.2837 C   0  0  0  0  0  0  0  0  0  0  0  0
   -0.1417    0.2120    1.9705 C   0  0  0  0  0  0  0  0  0  0  0  0
    0.8837    0.1011    0.9887 N   0  0  0  0  0  0  0  0  0  0  0  0
    2.2682    0.1107    1.3206 C   0  0  0  0  0  0  0  0  0  0  0  0
    2.4738    0.2228    2.5693 O   0  0  0  0  0  0  0  0  0  0  0  0
    3.3415    0.0079    0.3269 C   0  0  0  0  0  0  0  0  0  0  0  0
    3.5216   -1.0041   -0.5901 C   0  0  0  0  0  0  0  0  0  0  0  0
    4.5909   -0.9836   -1.4960 C   0  0  0  0  0  0  0  0  0  0  0  0
    5.5028    0.0372   -1.5223 C   0  0  0  0  0  0  0  0  0  0  0  0
    6.6504    0.0981   -2.4722 C   0  0  0  0  0  0  0  0  0  0  0  0
    7.2684   -1.2527   -2.5787 C   0  0  0  0  0  0  0  0  0  0  0  0
    6.1101    0.5414   -3.7973 C   0  0  0  0  0  0  0  0  0  0  0  0
    7.6982    1.0949   -1.9851 C   0  0  0  0  0  0  0  0  0  0  0  0
    5.3302    1.0702   -0.5991 C   0  0  0  0  0  0  0  0  0  0  0  0
    4.2788    1.0128    0.2763 C   0  0  0  0  0  0  0  0  0  0  0  0
   -5.3047    0.4047   -1.1354 C   0  0  0  0  0  0  0  0  0  0  0  0
   -5.9070   -0.3206   -0.2151 C   0  0  0  0  0  0  0  0  0  0  0  0
   -7.2559   -0.0259    0.0623 C   0  0  0  0  0  0  0  0  0  0  0  0
   -7.8925    0.9777   -0.6148 C   0  0  0  0  0  0  0  0  0  0  0  0
   -7.2320    1.7364   -1.5861 C   0  0  0  0  0  0  0  0  0  0  0  0
   -5.9383    1.4144   -1.8142 C   0  0  0  0  0  0  0  0  0  0  0  0
  2  1  1  1
  2  3  1  0
  3  4  1  0
  4  5  2  0
  4  6  1  0
  6  7  2  0
  7  8  1  0
  8  9  2  0
  9 10  1  0
 10 11  2  0
 11 12  1  0
 12 13  1  0
 13 14  2  0
 13 15  1  0
 15 16  2  0
 16 17  1  0
 17 18  2  0
 18 19  1  0
 19 20  1  0
 19 21  1  0
 19 22  1  0
 18 23  1  0
 23 24  2  0
  2 25  1  0
 25 26  2  0
 26 27  1  0
 27 28  2  0
 28 29  1  0
 29 30  2  0
 11  6  1  0
 24 15  1  0
 30 25  1  0
M  END
>  <zinc_id>  (1) 
ZINC000002179191

>  <smiles>  (1) 
C[C@H](NC(=O)c1ccccc1NC(=O)c1ccc(C(C)(C)C)cc1)c1ccccc1

$$$$
