
     RDKit          3D

 31 34  0  0  0  0  0  0  0  0999 V2000
   -6.1031    2.3622    0.6667 C   0  0  0  0  0  0  0  0  0  0  0  0
   -6.0227    0.8552    0.8725 C   0  0  0  0  0  0  0  0  0  0  0  0
   -4.6871    0.4733    0.6814 O   0  0  0  0  0  0  0  0  0  0  0  0
   -4.2131   -0.8131    0.7820 C   0  0  0  0  0  0  0  0  0  0  0  0
   -5.0720   -1.8443    1.0919 C   0  0  0  0  0  0  0  0  0  0  0  0
   -4.5388   -3.1065    1.1781 C   0  0  0  0  0  0  0  0  0  0  0  0
   -3.1858   -3.3625    0.9653 C   0  0  0  0  0  0  0  0  0  0  0  0
   -2.3615   -2.2852    0.6551 C   0  0  0  0  0  0  0  0  0  0  0  0
   -2.8746   -1.0107    0.5634 C   0  0  0  0  0  0  0  0  0  0  0  0
   -1.9822    0.0427    0.2441 N   0  0  0  0  0  0  0  0  0  0  0  0
   -0.6135   -0.1831    0.0240 C   0  0  0  0  0  0  0  0  0  0  0  0
   -0.2308   -1.3715    0.1272 O   0  0  0  0  0  0  0  0  0  0  0  0
    0.3428    0.9041   -0.3121 C   0  0  0  0  0  0  0  0  0  0  0  0
    1.6666    0.6384   -0.5180 C   0  0  0  0  0  0  0  0  0  0  0  0
    2.3332   -0.6409   -0.4540 N   0  0  0  0  0  0  0  0  0  0  0  0
    3.7156   -0.7177   -0.6985 C   0  0  0  0  0  0  0  0  0  0  0  0
    4.3670    0.3147   -0.9702 O   0  0  0  0  0  0  0  0  0  0  0  0
    4.3667   -2.0199   -0.6282 C   0  0  0  0  0  0  0  0  0  0  0  0
    5.7200   -2.1674   -0.8572 C   0  0  0  0  0  0  0  0  0  0  0  0
    6.3109   -3.4195   -0.7831 C   0  0  0  0  0  0  0  0  0  0  0  0
    5.5890   -4.5419   -0.4850 C   0  0  0  0  0  0  0  0  0  0  0  0
    4.2376   -4.4069   -0.2546 C   0  0  0  0  0  0  0  0  0  0  0  0
    3.6675   -3.1707   -0.3302 C   0  0  0  0  0  0  0  0  0  0  0  0
    2.3287    2.1855   -0.8670 S   0  0  0  0  0  0  0  0  0  0  0  0
    0.8938    3.1154   -0.7378 C   0  0  0  0  0  0  0  0  0  0  0  0
   -0.0547    2.1729   -0.4243 C   0  0  0  0  0  0  0  0  0  0  0  0
   -1.3915    2.9004   -0.2820 C   0  0  0  0  0  0  0  0  0  0  0  0
   -1.1716    3.7190    0.9168 C   0  0  0  0  0  0  0  0  0  0  0  0
   -0.1274    4.9411    0.6391 C   0  0  2  0  0  0  0  0  0  0  0  0
   -1.3040    5.9336    0.0444 C   0  0  0  0  0  0  0  0  0  0  0  0
    0.3950    4.5035   -0.8499 C   0  0  0  0  0  0  0  0  0  0  0  0
  1  2  1  0
  2  3  1  0
  3  4  1  0
  4  5  2  0
  5  6  1  0
  6  7  2  0
  7  8  1  0
  8  9  2  0
  9 10  1  0
 10 11  1  0
 11 12  2  0
 11 13  1  0
 13 14  2  0
 14 15  1  0
 15 16  1  0
 16 17  2  0
 16 18  1  0
 18 19  2  0
 19 20  1  0
 20 21  2  0
 21 22  1  0
 22 23  2  0
 14 24  1  0
 24 25  1  0
 25 26  2  0
 26 27  1  0
 27 28  1  0
 28 29  1  0
 29 30  1  6
 29 31  1  0
  9  4  1  0
 26 13  1  0
 23 18  1  0
 31 25  1  0
M  END
>  <zinc_id>  (1) 
ZINC000001214959

>  <smiles>  (1) 
CCOc1ccccc1NC(=O)c1c(NC(=O)c2ccccc2)sc2c1CC[C@H](C)C2

$$$$
