
     RDKit          3D

 33 36  0  0  0  0  0  0  0  0999 V2000
    6.7884   -1.6223   -3.2678 C   0  0  0  0  0  0  0  0  0  0  0  0
    7.1936   -2.0132   -1.8905 C   0  0  0  0  0  0  0  0  0  0  0  0
    6.2093   -2.6646   -1.1565 O   0  0  0  0  0  0  0  0  0  0  0  0
    4.9709   -2.1115   -0.8489 C   0  0  0  0  0  0  0  0  0  0  0  0
    4.6156   -0.8665   -1.2468 C   0  0  0  0  0  0  0  0  0  0  0  0
    3.3902   -0.3657   -0.9216 C   0  0  0  0  0  0  0  0  0  0  0  0
    2.4509   -1.0855   -0.1785 C   0  0  0  0  0  0  0  0  0  0  0  0
    1.2009   -0.4825    0.1150 N   0  0  0  0  0  0  0  0  0  0  0  0
    1.0048    0.8375    0.5929 C   0  0  0  0  0  0  0  0  0  0  0  0
    1.9305    1.6501    0.8170 O   0  0  0  0  0  0  0  0  0  0  0  0
   -0.3927    1.0900    0.7750 C   0  0  0  0  0  0  0  0  0  0  0  0
   -0.9659    2.2922    1.2485 N   0  0  0  0  0  0  0  0  0  0  0  0
   -1.0512    3.4441    0.4241 C   0  0  0  0  0  0  0  0  0  0  0  0
   -0.5735    3.4161   -0.8553 C   0  0  0  0  0  0  0  0  0  0  0  0
   -0.6315    4.5066   -1.6989 C   0  0  0  0  0  0  0  0  0  0  0  0
   -1.2000    5.6768   -1.2208 C   0  0  0  0  0  0  0  0  0  0  0  0
   -1.6812    5.7012    0.0717 C   0  0  0  0  0  0  0  0  0  0  0  0
   -1.6177    4.6096    0.9009 C   0  0  0  0  0  0  0  0  0  0  0  0
   -2.1054    4.6450    2.2020 O   0  0  0  0  0  0  0  0  0  0  0  0
   -2.6788    5.8406    2.6649 C   0  0  0  0  0  0  0  0  0  0  0  0
   -1.0873   -0.0252    0.4256 C   0  0  0  0  0  0  0  0  0  0  0  0
   -2.8562   -0.0608    0.5363 S   0  0  0  0  0  0  0  0  0  0  0  0
   -3.4693   -1.7180    0.4431 C   0  0  0  0  0  0  0  0  0  0  0  0
   -4.8531   -1.9648    0.4016 C   0  0  0  0  0  0  0  0  0  0  0  0
   -5.3838   -3.2326    0.3667 C   0  0  0  0  0  0  0  0  0  0  0  0
   -4.5761   -4.3509    0.3714 C   0  0  0  0  0  0  0  0  0  0  0  0
   -5.1479   -5.7290    0.3379 C   0  0  0  0  0  0  0  0  0  0  0  0
   -3.2171   -4.1331    0.4116 C   0  0  0  0  0  0  0  0  0  0  0  0
   -2.7028   -2.8546    0.4459 C   0  0  0  0  0  0  0  0  0  0  0  0
   -0.1206   -1.0320    0.0073 C   0  0  0  0  0  0  0  0  0  0  0  0
   -0.3272   -2.1862   -0.3872 O   0  0  0  0  0  0  0  0  0  0  0  0
    2.8131   -2.3488    0.2240 C   0  0  0  0  0  0  0  0  0  0  0  0
    4.0712   -2.8620   -0.1107 C   0  0  0  0  0  0  0  0  0  0  0  0
  1  2  1  0
  2  3  1  0
  3  4  1  0
  4  5  2  0
  5  6  1  0
  6  7  2  0
  7  8  1  0
  8  9  1  0
  9 10  2  0
  9 11  1  0
 11 12  1  0
 12 13  1  0
 13 14  2  0
 14 15  1  0
 15 16  2  0
 16 17  1  0
 17 18  2  0
 18 19  1  0
 19 20  1  0
 11 21  2  0
 21 22  1  0
 22 23  1  0
 23 24  2  0
 24 25  1  0
 25 26  2  0
 26 27  1  0
 26 28  1  0
 28 29  2  0
 21 30  1  0
 30 31  2  0
  7 32  1  0
 32 33  2  0
 33  4  1  0
 30  8  1  0
 18 13  1  0
 29 23  1  0
M  END
>  <zinc_id>  (1) 
ZINC000001928695

>  <smiles>  (1) 
CCOc1ccc(N2C(=O)C(Nc3ccccc3OC)=C(Sc3ccc(C)cc3)C2=O)cc1

$$$$
