
     RDKit          3D

 32 36  0  0  0  0  0  0  0  0999 V2000
   -7.7955    2.0672   -0.6577 C   0  0  0  0  0  0  0  0  0  0  0  0
   -7.8796    0.6152   -0.2911 C   0  0  0  0  0  0  0  0  0  0  0  0
   -6.8350    0.2979    0.5911 O   0  0  0  0  0  0  0  0  0  0  0  0
   -5.4915    0.4677    0.2030 C   0  0  0  0  0  0  0  0  0  0  0  0
   -5.1850    0.9488   -1.0524 C   0  0  0  0  0  0  0  0  0  0  0  0
   -3.8688    1.1152   -1.4330 C   0  0  0  0  0  0  0  0  0  0  0  0
   -2.8188    0.8116   -0.5850 C   0  0  0  0  0  0  0  0  0  0  0  0
   -1.4598    0.8673   -0.6688 N   0  0  0  0  0  0  0  0  0  0  0  0
   -0.9163    0.4392    0.4884 C   0  0  0  0  0  0  0  0  0  0  0  0
   -1.9117    0.1182    1.2892 C   0  0  0  0  0  0  0  0  0  0  0  0
   -3.1563    0.3347    0.6586 C   0  0  0  0  0  0  0  0  0  0  0  0
   -4.4589    0.1577    1.0674 C   0  0  0  0  0  0  0  0  0  0  0  0
   -1.7056   -0.3952    2.6664 C   0  0  0  0  0  0  0  0  0  0  0  0
   -0.2657   -0.8155    2.7309 C   0  0  0  0  0  0  0  0  0  0  0  0
    0.5930    0.2160    2.3334 N   0  0  0  0  0  0  0  0  0  0  0  0
    0.6155    0.3559    0.7839 C   0  0  1  0  0  0  0  0  0  0  0  0
    0.8808   -1.1753    0.4722 C   0  0  0  0  0  0  0  0  0  0  0  0
    0.0610   -2.1498    0.8501 C   0  0  0  0  0  0  0  0  0  0  0  0
    0.3991   -3.4563    0.5121 C   0  0  0  0  0  0  0  0  0  0  0  0
    1.5617   -3.6725   -0.1938 C   0  0  0  0  0  0  0  0  0  0  0  0
    2.3991   -2.6712   -0.5791 C   0  0  0  0  0  0  0  0  0  0  0  0
    3.5693   -2.8470   -1.2850 O   0  0  0  0  0  0  0  0  0  0  0  0
    4.0660   -4.0814   -1.7083 C   0  0  0  0  0  0  0  0  0  0  0  0
    2.0432   -1.3593   -0.2302 C   0  0  0  0  0  0  0  0  0  0  0  0
    2.8543   -0.3100   -0.5952 O   0  0  0  0  0  0  0  0  0  0  0  0
    3.9034    0.2074    0.1825 C   0  0  0  0  0  0  0  0  0  0  0  0
    4.5194    1.3223   -0.5848 C   0  0  0  0  0  0  0  0  0  0  0  0
    3.9968    2.5746   -0.6061 C   0  0  0  0  0  0  0  0  0  0  0  0
    4.5787    3.5826   -1.3116 C   0  0  0  0  0  0  0  0  0  0  0  0
    5.7423    3.3255   -2.0317 C   0  0  0  0  0  0  0  0  0  0  0  0
    6.2788    2.0562   -2.0145 C   0  0  0  0  0  0  0  0  0  0  0  0
    5.6861    1.0524   -1.3032 C   0  0  0  0  0  0  0  0  0  0  0  0
  1  2  1  0
  2  3  1  0
  3  4  1  0
  4  5  2  0
  5  6  1  0
  6  7  2  0
  7  8  1  0
  8  9  1  0
  9 10  2  0
 10 11  1  0
 11 12  2  0
 10 13  1  0
 13 14  1  0
 14 15  1  0
 15 16  1  0
 16 17  1  6
 17 18  2  0
 18 19  1  0
 19 20  2  0
 20 21  1  0
 21 22  1  0
 22 23  1  0
 21 24  2  0
 24 25  1  0
 25 26  1  0
 26 27  1  0
 27 28  2  0
 28 29  1  0
 29 30  2  0
 30 31  1  0
 31 32  2  0
 12  4  1  0
 24 17  1  0
 32 27  1  0
 11  7  1  0
 16  9  1  0
M  END
>  <zinc_id>  (1) 
ZINC000003738928

>  <smiles>  (1) 
CCOc1ccc2[nH]c3c(c2c1)CCN[C@H]3c1cccc(OC)c1OCc1ccccc1

$$$$
