
     RDKit          3D

 31 34  0  0  0  0  0  0  0  0999 V2000
    8.7647    4.1748    0.4577 C   0  0  0  0  0  0  0  0  0  0  0  0
    7.5228    3.3637    0.3945 C   0  0  0  0  0  0  0  0  0  0  0  0
    6.3233    3.8874   -0.0017 C   0  0  0  0  0  0  0  0  0  0  0  0
    5.1895    3.0833   -0.0433 C   0  0  0  0  0  0  0  0  0  0  0  0
    5.2239    1.7644    0.3020 C   0  0  0  0  0  0  0  0  0  0  0  0
    4.1585    0.9053    0.2895 O   0  0  0  0  0  0  0  0  0  0  0  0
    2.8422    1.1887   -0.0699 C   0  0  0  0  0  0  0  0  0  0  0  0
    2.0320   -0.0648    0.0763 C   0  0  0  0  0  0  0  0  0  0  0  0
    2.5706   -1.1332    0.4639 O   0  0  0  0  0  0  0  0  0  0  0  0
    0.6431   -0.0902   -0.2137 N   0  0  0  0  0  0  0  0  0  0  0  0
   -0.0431   -1.3558   -0.0368 C   0  0  0  0  0  0  0  0  0  0  0  0
    0.5718   -2.8560    0.4724 S   0  0  0  0  0  0  0  0  0  0  0  0
   -0.8527   -3.7771    0.4123 C   0  0  0  0  0  0  0  0  0  0  0  0
   -1.7925   -2.8796   -0.0105 C   0  0  0  0  0  0  0  0  0  0  0  0
   -1.3767   -1.6090   -0.2482 C   0  0  0  0  0  0  0  0  0  0  0  0
   -2.3253   -0.5531   -0.7137 C   0  0  0  0  0  0  0  0  0  0  0  0
   -1.8822    0.5952   -0.9148 O   0  0  0  0  0  0  0  0  0  0  0  0
   -3.6930   -0.7836   -0.9381 N   0  0  0  0  0  0  0  0  0  0  0  0
   -4.6369    0.1907   -1.3821 C   0  0  0  0  0  0  0  0  0  0  0  0
   -5.0761    1.1483   -0.3586 C   0  0  0  0  0  0  0  0  0  0  0  0
   -6.2641    0.8416    0.3018 C   0  0  0  0  0  0  0  0  0  0  0  0
   -6.8068    1.6383    1.2839 C   0  0  0  0  0  0  0  0  0  0  0  0
   -6.1207    2.7984    1.6167 C   0  0  0  0  0  0  0  0  0  0  0  0
   -4.9367    3.1310    0.9785 C   0  0  0  0  0  0  0  0  0  0  0  0
   -4.4277    2.2877   -0.0125 C   0  0  0  0  0  0  0  0  0  0  0  0
   -3.1866   -3.4915   -0.1423 C   0  0  0  0  0  0  0  0  0  0  0  0
   -2.9964   -4.7138   -1.0127 C   0  0  0  0  0  0  0  0  0  0  0  0
   -2.2380   -5.7428   -0.2491 C   0  0  0  0  0  0  0  0  0  0  0  0
   -1.2142   -5.2174    0.7039 C   0  0  0  0  0  0  0  0  0  0  0  0
    6.4456    1.2373    0.7038 C   0  0  0  0  0  0  0  0  0  0  0  0
    7.5818    2.0319    0.7485 C   0  0  0  0  0  0  0  0  0  0  0  0
  1  2  1  0
  2  3  2  0
  3  4  1  0
  4  5  2  0
  5  6  1  0
  6  7  1  0
  7  8  1  0
  8  9  2  0
  8 10  1  0
 10 11  1  0
 11 12  1  0
 12 13  1  0
 13 14  2  0
 14 15  1  0
 15 16  1  0
 16 17  2  0
 16 18  1  0
 18 19  1  0
 19 20  1  0
 20 21  2  0
 21 22  1  0
 22 23  2  0
 23 24  1  0
 24 25  2  0
 14 26  1  0
 26 27  1  0
 27 28  1  0
 28 29  1  0
  5 30  1  0
 30 31  2  0
 31  2  1  0
 15 11  2  0
 25 20  1  0
 29 13  1  0
M  END
>  <zinc_id>  (1) 
ZINC000000731946

>  <smiles>  (1) 
Cc1ccc(OCC(=O)Nc2sc3c(c2C(=O)NCc2ccccc2)CCCC3)cc1

$$$$
