
     RDKit          3D

 30 32  0  0  0  0  0  0  0  0999 V2000
   -7.4994   -0.2858    3.0238 C   0  0  0  0  0  0  0  0  0  0  0  0
   -7.3439   -0.0601    1.5468 C   0  0  0  0  0  0  0  0  0  0  0  0
   -8.4455    0.1363    0.7393 C   0  0  0  0  0  0  0  0  0  0  0  0
   -8.1951    0.3349   -0.6038 C   0  0  0  0  0  0  0  0  0  0  0  0
   -9.3637    0.5524   -1.5179 C   0  0  0  0  0  0  0  0  0  0  0  0
   -6.9446    0.3360   -1.0935 N   0  0  0  0  0  0  0  0  0  0  0  0
   -5.8941    0.1441   -0.2947 C   0  0  0  0  0  0  0  0  0  0  0  0
   -4.2118    0.1312   -0.8630 S   0  0  0  0  0  0  0  0  0  0  0  0
   -3.5503    1.9145   -0.7768 C   0  0  1  0  0  0  0  0  0  0  0  0
   -3.5905    2.0598    0.8012 C   0  0  0  0  0  0  0  0  0  0  0  0
   -2.0428    1.5665   -0.8993 C   0  0  0  0  0  0  0  0  0  0  0  0
   -1.4403    2.0760   -1.8758 O   0  0  0  0  0  0  0  0  0  0  0  0
   -1.3816    0.7419    0.0080 N   0  0  0  0  0  0  0  0  0  0  0  0
   -0.0157    0.4787   -0.1773 N   0  0  0  0  0  0  0  0  0  0  0  0
    0.4514   -0.7227   -0.2300 C   0  0  0  0  0  0  0  0  0  0  0  0
    1.8808   -0.9952   -0.4239 C   0  0  0  0  0  0  0  0  0  0  0  0
    2.8056    0.0170   -0.5611 C   0  0  0  0  0  0  0  0  0  0  0  0
    4.1479   -0.2535   -0.7428 C   0  0  0  0  0  0  0  0  0  0  0  0
    4.6365   -1.5435   -0.7971 C   0  0  0  0  0  0  0  0  0  0  0  0
    5.9812   -1.8355   -0.9790 O   0  0  0  0  0  0  0  0  0  0  0  0
    6.9842   -0.8582   -1.1255 C   0  0  0  0  0  0  0  0  0  0  0  0
    7.0482    0.0139    0.0736 C   0  0  0  0  0  0  0  0  0  0  0  0
    6.2791   -0.1196    1.1921 C   0  0  0  0  0  0  0  0  0  0  0  0
    6.3609    0.7036    2.2879 C   0  0  0  0  0  0  0  0  0  0  0  0
    7.2940    1.7347    2.2363 C   0  0  0  0  0  0  0  0  0  0  0  0
    8.0904    1.8982    1.1161 C   0  0  0  0  0  0  0  0  0  0  0  0
    7.9684    1.0512    0.0535 C   0  0  0  0  0  0  0  0  0  0  0  0
    3.7164   -2.5639   -0.6606 C   0  0  0  0  0  0  0  0  0  0  0  0
    2.3789   -2.2773   -0.4797 C   0  0  0  0  0  0  0  0  0  0  0  0
   -6.1047   -0.0529    1.0231 N   0  0  0  0  0  0  0  0  0  0  0  0
  1  2  1  0
  2  3  2  0
  3  4  1  0
  4  5  1  0
  4  6  2  0
  6  7  1  0
  7  8  1  0
  8  9  1  0
  9 10  1  1
  9 11  1  0
 11 12  2  0
 11 13  1  0
 13 14  1  0
 14 15  2  0
 15 16  1  0
 16 17  2  0
 17 18  1  0
 18 19  2  0
 19 20  1  0
 20 21  1  0
 21 22  1  0
 22 23  2  0
 23 24  1  0
 24 25  2  0
 25 26  1  0
 26 27  2  0
 19 28  1  0
 28 29  2  0
  7 30  2  0
 30  2  1  0
 29 16  1  0
 27 22  1  0
M  END
>  <zinc_id>  (1) 
ZINC000001058691

>  <smiles>  (1) 
Cc1cc(C)nc(S[C@@H](C)C(=O)N/N=C/c2ccc(OCc3ccccc3)cc2)n1

$$$$
