
     RDKit          3D

 31 34  0  0  0  0  0  0  0  0999 V2000
   -2.6505   -5.7524    2.8167 C   0  0  0  0  0  0  0  0  0  0  0  0
   -2.5005   -4.6869    1.7773 C   0  0  0  0  0  0  0  0  0  0  0  0
   -3.3756   -4.6136    0.7132 C   0  0  0  0  0  0  0  0  0  0  0  0
   -3.2556   -3.6413   -0.2542 C   0  0  0  0  0  0  0  0  0  0  0  0
   -2.2495   -2.6940   -0.1999 C   0  0  0  0  0  0  0  0  0  0  0  0
   -2.1292   -1.6847   -1.2090 N   0  0  0  0  0  0  0  0  0  0  0  0
   -1.0549   -0.7498   -1.0642 C   0  0  0  0  0  0  0  0  0  0  0  0
   -1.2246    0.5850   -1.1338 C   0  0  0  0  0  0  0  0  0  0  0  0
   -2.7890    1.3638   -1.4120 S   0  0  0  0  0  0  0  0  0  0  0  0
   -2.7925    3.0978   -1.4671 C   0  0  0  0  0  0  0  0  0  0  0  0
   -4.0201    3.7225   -1.6859 C   0  0  0  0  0  0  0  0  0  0  0  0
   -4.1543    5.0688   -1.7501 C   0  0  0  0  0  0  0  0  0  0  0  0
   -3.0326    5.8673   -1.5933 C   0  0  0  0  0  0  0  0  0  0  0  0
   -1.8113    5.2560   -1.3759 C   0  0  0  0  0  0  0  0  0  0  0  0
   -1.7033    3.8910   -1.3155 C   0  0  0  0  0  0  0  0  0  0  0  0
    0.0882    1.1665   -0.9392 C   0  0  0  0  0  0  0  0  0  0  0  0
    0.3877    2.3801   -0.9288 O   0  0  0  0  0  0  0  0  0  0  0  0
    1.0825    0.1506   -0.7459 N   0  0  0  0  0  0  0  0  0  0  0  0
    2.4972    0.3082   -0.5215 C   0  0  0  0  0  0  0  0  0  0  0  0
    2.8169    0.4125    0.9507 C   0  0  0  0  0  0  0  0  0  0  0  0
    4.2933    0.5717    1.0762 C   0  0  0  0  0  0  0  0  0  0  0  0
    4.9170    1.7920    1.0841 C   0  0  0  0  0  0  0  0  0  0  0  0
    6.2765    1.9686    1.1985 C   0  0  0  0  0  0  0  0  0  0  0  0
    7.0608    0.8263    1.3132 C   0  0  0  0  0  0  0  0  0  0  0  0
    6.4667   -0.4116    1.3086 C   0  0  0  0  0  0  0  0  0  0  0  0
    5.1038   -0.5472    1.1923 C   0  0  0  0  0  0  0  0  0  0  0  0
    0.3413   -1.0564   -0.8281 C   0  0  0  0  0  0  0  0  0  0  0  0
    0.8449   -2.2265   -0.7096 O   0  0  0  0  0  0  0  0  0  0  0  0
   -1.3819   -2.7797    0.8698 C   0  0  0  0  0  0  0  0  0  0  0  0
   -1.4923   -3.7470    1.8423 C   0  0  0  0  0  0  0  0  0  0  0  0
   -0.5590   -3.8375    2.9910 C   0  0  0  0  0  0  0  0  0  0  0  0
  1  2  1  0
  2  3  2  0
  3  4  1  0
  4  5  2  0
  5  6  1  0
  6  7  1  0
  7  8  2  0
  8  9  1  0
  9 10  1  0
 10 11  2  0
 11 12  1  0
 12 13  2  0
 13 14  1  0
 14 15  2  0
  8 16  1  0
 16 17  2  0
 16 18  1  0
 18 19  1  0
 19 20  1  0
 20 21  1  0
 21 22  2  0
 22 23  1  0
 23 24  2  0
 24 25  1  0
 25 26  2  0
 18 27  1  0
 27 28  2  0
  5 29  1  0
 29 30  2  0
 30 31  1  0
 30  2  1  0
 27  7  1  0
 15 10  1  0
 26 21  1  0
M  END
>  <zinc_id>  (1) 
ZINC000001932120

>  <smiles>  (1) 
Cc1ccc(NC2=C(Sc3ccccc3)C(=O)N(CCc3ccccc3)C2=O)cc1C

$$$$
