
     RDKit          3D

 30 32  0  0  0  0  0  0  0  0999 V2000
   10.0162    0.8145   -0.6578 C   0  0  0  0  0  0  0  0  0  0  0  0
    8.9488   -0.1009   -0.0772 C   0  0  0  0  0  0  0  0  0  0  0  0
    7.7089    0.5811   -0.2156 O   0  0  0  0  0  0  0  0  0  0  0  0
    6.5401    0.0053    0.2216 C   0  0  0  0  0  0  0  0  0  0  0  0
    6.5916   -1.1249    0.7404 O   0  0  0  0  0  0  0  0  0  0  0  0
    5.2657    0.7227    0.0717 C   0  0  0  0  0  0  0  0  0  0  0  0
    4.0864    0.1548    0.5067 C   0  0  0  0  0  0  0  0  0  0  0  0
    2.9188    0.8552    0.3493 C   0  0  0  0  0  0  0  0  0  0  0  0
    2.8458    2.1082   -0.2237 C   0  0  0  0  0  0  0  0  0  0  0  0
    1.5446    2.7956   -0.3559 C   0  0  0  0  0  0  0  0  0  0  0  0
    0.4888    1.9483    0.0403 O   0  0  0  0  0  0  0  0  0  0  0  0
    0.2530    0.7584   -0.6010 C   0  0  0  0  0  0  0  0  0  0  0  0
    0.9872    0.4217   -1.5539 O   0  0  0  0  0  0  0  0  0  0  0  0
   -0.8391   -0.1462   -0.2090 C   0  0  0  0  0  0  0  0  0  0  0  0
   -1.6812    0.1780    0.8389 C   0  0  0  0  0  0  0  0  0  0  0  0
   -2.6979   -0.6876    1.1867 C   0  0  0  0  0  0  0  0  0  0  0  0
   -2.9316   -1.8831    0.5394 C   0  0  0  0  0  0  0  0  0  0  0  0
   -4.0244   -2.8200    0.9086 C   0  0  0  0  0  0  0  0  0  0  0  0
   -5.1776   -2.5065    0.1206 N   0  0  0  0  0  0  0  0  0  0  0  0
   -5.8871   -1.3004    0.0868 C   0  0  0  0  0  0  0  0  0  0  0  0
   -5.5250   -0.2238    0.8626 C   0  0  0  0  0  0  0  0  0  0  0  0
   -6.2302    0.9376    0.8137 C   0  0  0  0  0  0  0  0  0  0  0  0
   -7.3197    1.0303   -0.0254 C   0  0  0  0  0  0  0  0  0  0  0  0
   -7.6796   -0.0374   -0.7953 C   0  0  0  0  0  0  0  0  0  0  0  0
   -6.9751   -1.2201   -0.7565 C   0  0  0  0  0  0  0  0  0  0  0  0
   -7.3603   -2.3830   -1.5897 C   0  0  0  0  0  0  0  0  0  0  0  0
   -2.0691   -2.1871   -0.5133 C   0  0  0  0  0  0  0  0  0  0  0  0
   -1.0518   -1.3241   -0.8636 C   0  0  0  0  0  0  0  0  0  0  0  0
    4.0328    2.6587   -0.6516 C   0  0  0  0  0  0  0  0  0  0  0  0
    5.2208    1.9744   -0.5047 C   0  0  0  0  0  0  0  0  0  0  0  0
  1  2  1  0
  2  3  1  0
  3  4  1  0
  4  5  2  0
  4  6  1  0
  6  7  2  0
  7  8  1  0
  8  9  2  0
  9 10  1  0
 10 11  1  0
 11 12  1  0
 12 13  2  0
 12 14  1  0
 14 15  2  0
 15 16  1  0
 16 17  2  0
 17 18  1  0
 18 19  1  0
 19 20  1  0
 20 21  2  0
 21 22  1  0
 22 23  2  0
 23 24  1  0
 24 25  2  0
 25 26  1  0
 17 27  1  0
 27 28  2  0
  9 29  1  0
 29 30  2  0
 30  6  1  0
 28 14  1  0
 25 20  1  0
M  END
>  <zinc_id>  (1) 
ZINC000002751256

>  <smiles>  (1) 
CCOC(=O)c1ccc(COC(=O)c2ccc(CNc3ccccc3C)cc2)cc1

$$$$
