
     RDKit          3D

 31 35  0  0  0  0  0  0  0  0999 V2000
   -1.0882   -1.5804   -1.4405 O   0  0  0  0  0  0  0  0  0  0  0  0
   -0.5683   -1.3860   -0.3213 C   0  0  0  0  0  0  0  0  0  0  0  0
   -1.3414   -0.7734    0.6918 N   0  0  0  0  0  0  0  0  0  0  0  0
   -2.6827   -0.3854    0.4453 N   0  0  0  0  0  0  0  0  0  0  0  0
   -3.6667   -1.1716    0.5960 C   0  0  0  0  0  0  0  0  0  0  0  0
   -5.0553   -0.8040    0.3513 C   0  0  0  0  0  0  0  0  0  0  0  0
   -6.0729   -1.7126    0.5367 C   0  0  0  0  0  0  0  0  0  0  0  0
   -7.4006   -1.3388    0.2959 C   0  0  0  0  0  0  0  0  0  0  0  0
   -7.7159   -0.0548   -0.1313 C   0  0  0  0  0  0  0  0  0  0  0  0
   -6.6887    0.8510   -0.3149 C   0  0  0  0  0  0  0  0  0  0  0  0
   -7.0260    2.1151   -0.7381 C   0  0  0  0  0  0  0  0  0  0  0  0
   -6.0278    3.0568   -0.9355 C   0  0  0  0  0  0  0  0  0  0  0  0
   -4.7306    2.6515   -0.6878 C   0  0  0  0  0  0  0  0  0  0  0  0
   -4.4228    1.4139   -0.2757 N   0  0  0  0  0  0  0  0  0  0  0  0
   -5.3690    0.4685   -0.0722 C   0  0  0  0  0  0  0  0  0  0  0  0
    0.8082   -1.7789   -0.0528 C   0  0  0  0  0  0  0  0  0  0  0  0
    1.6614   -2.3907   -0.9795 C   0  0  0  0  0  0  0  0  0  0  0  0
    2.8636   -2.6020   -0.3536 C   0  0  0  0  0  0  0  0  0  0  0  0
    2.7229   -2.1201    0.9307 C   0  0  0  0  0  0  0  0  0  0  0  0
    3.7368   -2.1034    2.0376 C   0  0  0  0  0  0  0  0  0  0  0  0
    4.1549   -0.7798    2.2200 O   0  0  0  0  0  0  0  0  0  0  0  0
    4.7681   -0.0946    1.1882 C   0  0  0  0  0  0  0  0  0  0  0  0
    4.9701   -0.7184   -0.0183 C   0  0  0  0  0  0  0  0  0  0  0  0
    5.5756   -0.0763   -1.0725 C   0  0  0  0  0  0  0  0  0  0  0  0
    5.9970    1.2326   -0.9270 C   0  0  0  0  0  0  0  0  0  0  0  0
    5.7896    1.8488    0.2871 C   0  0  0  0  0  0  0  0  0  0  0  0
    5.1889    1.2210    1.3422 C   0  0  0  0  0  0  0  0  0  0  0  0
    6.3143    3.2412    0.2264 C   0  0  0  0  0  0  0  0  0  0  0  0
    7.1516    3.2835   -1.0278 C   0  0  0  0  0  0  0  0  0  0  0  0
    6.6649    2.1348   -1.8918 C   0  0  0  0  0  0  0  0  0  0  0  0
    1.4892   -1.6478    1.0468 O   0  0  0  0  0  0  0  0  0  0  0  0
  1  2  2  0
  2  3  1  0
  3  4  1  0
  4  5  2  0
  5  6  1  0
  6  7  2  0
  7  8  1  0
  8  9  2  0
  9 10  1  0
 10 11  2  0
 11 12  1  0
 12 13  2  0
 13 14  1  0
 14 15  2  0
  2 16  1  0
 16 17  2  0
 17 18  1  0
 18 19  2  0
 19 20  1  0
 20 21  1  0
 21 22  1  0
 22 23  2  0
 23 24  1  0
 24 25  2  0
 25 26  1  0
 26 27  2  0
 26 28  1  0
 28 29  1  0
 29 30  1  0
 19 31  1  0
 15  6  1  0
 31 16  1  0
 15 10  1  0
 27 22  1  0
 30 25  1  0
M  END
>  <zinc_id>  (1) 
ZINC000001083407

>  <smiles>  (1) 
O=C(N/N=C/c1cccc2cccnc12)c1ccc(COc2ccc3c(c2)CCC3)o1

$$$$
