
     RDKit          3D

 31 35  0  0  0  0  0  0  0  0999 V2000
    5.1493    0.2156    1.7205 C   0  0  0  0  0  0  0  0  0  0  0  0
    6.0151   -0.0948    0.6256 C   0  0  1  0  0  0  0  0  0  0  0  0
    7.4130   -0.1535    0.6589 C   0  0  0  0  0  0  0  0  0  0  0  0
    8.2431   -1.3007    0.8964 C   0  0  0  0  0  0  0  0  0  0  0  0
    7.5304   -2.5420    0.3690 C   0  0  0  0  0  0  0  0  0  0  0  0
    6.6933   -2.0599   -0.7779 C   0  0  0  0  0  0  0  0  0  0  0  0
    5.3271   -1.4386   -0.1338 C   0  0  2  0  0  0  0  0  0  0  0  0
    5.4266    0.0539   -0.9563 C   0  0  1  0  0  0  0  0  0  0  0  0
    3.9889    0.6459   -0.7274 C   0  0  0  0  0  0  0  0  0  0  0  0
    3.8416    1.7601   -1.2811 O   0  0  0  0  0  0  0  0  0  0  0  0
    2.9751    0.0828   -0.0301 N   0  0  0  0  0  0  0  0  0  0  0  0
    1.6837    0.6484    0.1552 N   0  0  0  0  0  0  0  0  0  0  0  0
    0.7748    0.0119   -0.5485 C   0  0  0  0  0  0  0  0  0  0  0  0
   -0.6135    0.4262   -0.5069 C   0  0  0  0  0  0  0  0  0  0  0  0
   -1.6222   -0.1777   -1.2101 C   0  0  0  0  0  0  0  0  0  0  0  0
   -2.8016    0.4825   -0.9289 N   0  0  0  0  0  0  0  0  0  0  0  0
   -4.0284    0.0344   -1.5231 C   0  0  0  0  0  0  0  0  0  0  0  0
   -4.7253   -1.0531   -0.8512 C   0  0  0  0  0  0  0  0  0  0  0  0
   -4.4347   -2.3529   -1.2864 C   0  0  0  0  0  0  0  0  0  0  0  0
   -5.0089   -3.4485   -0.6757 C   0  0  0  0  0  0  0  0  0  0  0  0
   -5.8664   -3.2312    0.3621 C   0  0  0  0  0  0  0  0  0  0  0  0
   -6.1787   -1.9643    0.8195 C   0  0  0  0  0  0  0  0  0  0  0  0
   -5.5799   -0.8786    0.1775 C   0  0  0  0  0  0  0  0  0  0  0  0
   -5.9826    0.4222    0.6600 C   0  0  0  0  0  0  0  0  0  0  0  0
   -6.3259    1.4560    1.0301 N   0  0  0  0  0  0  0  0  0  0  0  0
   -2.5286    1.4626   -0.0801 C   0  0  0  0  0  0  0  0  0  0  0  0
   -3.3189    2.4130    0.5030 C   0  0  0  0  0  0  0  0  0  0  0  0
   -2.8005    3.3581    1.3625 C   0  0  0  0  0  0  0  0  0  0  0  0
   -1.4520    3.3492    1.6461 C   0  0  0  0  0  0  0  0  0  0  0  0
   -0.6387    2.4087    1.0752 C   0  0  0  0  0  0  0  0  0  0  0  0
   -1.1549    1.4644    0.2156 C   0  0  0  0  0  0  0  0  0  0  0  0
  2  1  1  1
  2  3  1  0
  3  4  1  0
  4  5  1  0
  5  6  1  0
  7  6  1  6
  7  8  1  0
  8  9  1  1
  9 10  2  0
  9 11  1  0
 11 12  1  0
 12 13  2  0
 13 14  1  0
 14 15  2  0
 15 16  1  0
 16 17  1  0
 17 18  1  0
 18 19  2  0
 19 20  1  0
 20 21  2  0
 21 22  1  0
 22 23  2  0
 23 24  1  0
 24 25  3  0
 16 26  1  0
 26 27  2  0
 27 28  1  0
 28 29  2  0
 29 30  1  0
 30 31  2  0
  7  2  1  0
 31 14  1  0
  8  2  1  0
 23 18  1  0
 31 26  1  0
M  END
>  <zinc_id>  (1) 
ZINC000001101505

>  <smiles>  (1) 
C[C@@]12CCCC[C@@H]1[C@H]2C(=O)N/N=C/c1cn(Cc2ccccc2C#N)c2ccccc12

$$$$
