
     RDKit          3D

 31 34  0  0  0  0  0  0  0  0999 V2000
   -5.8164    2.2159   -0.7138 C   0  0  0  0  0  0  0  0  0  0  0  0
   -5.1138    2.9794    0.3970 C   0  0  0  0  0  0  0  0  0  0  0  0
   -5.3868    1.9885    1.6849 C   0  0  2  0  0  0  0  0  0  0  0  0
   -4.5776    2.9548    2.7426 C   0  0  0  0  0  0  0  0  0  0  0  0
   -4.1863    1.0433    1.3943 N   0  0  0  0  0  0  0  0  0  0  0  0
   -2.9617    1.6814    1.1391 C   0  0  0  0  0  0  0  0  0  0  0  0
   -2.9170    2.9268    1.1620 O   0  0  0  0  0  0  0  0  0  0  0  0
   -1.7438    0.8834    0.8473 C   0  0  0  0  0  0  0  0  0  0  0  0
   -0.4865    1.3635    0.5786 C   0  0  0  0  0  0  0  0  0  0  0  0
   -0.1074    2.7398    0.5297 N   0  0  0  0  0  0  0  0  0  0  0  0
    0.3648    0.3302    0.3614 N   0  0  0  0  0  0  0  0  0  0  0  0
    1.7796    0.4787    0.0444 C   0  0  0  0  0  0  0  0  0  0  0  0
    2.0054    0.5633   -1.4379 C   0  0  0  0  0  0  0  0  0  0  0  0
    3.4653    0.7154   -1.6555 C   0  0  0  0  0  0  0  0  0  0  0  0
    3.9985    1.9993   -1.6988 C   0  0  0  0  0  0  0  0  0  0  0  0
    5.3427    2.2302   -1.9004 C   0  0  0  0  0  0  0  0  0  0  0  0
    6.2211    1.1851   -2.0688 C   0  0  0  0  0  0  0  0  0  0  0  0
    7.5940    1.4043   -2.2753 O   0  0  0  0  0  0  0  0  0  0  0  0
    8.4195    0.2684   -2.4386 C   0  0  0  0  0  0  0  0  0  0  0  0
    5.6953   -0.0904   -2.0263 C   0  0  0  0  0  0  0  0  0  0  0  0
    4.3471   -0.3187   -1.8241 C   0  0  0  0  0  0  0  0  0  0  0  0
   -0.3705   -0.7854    0.4973 C   0  0  0  0  0  0  0  0  0  0  0  0
   -0.0528   -2.0872    0.3927 N   0  0  0  0  0  0  0  0  0  0  0  0
   -0.9397   -3.0850    0.5656 C   0  0  0  0  0  0  0  0  0  0  0  0
   -0.5920   -4.4154    0.4548 C   0  0  0  0  0  0  0  0  0  0  0  0
   -1.4795   -5.4547    0.6277 C   0  0  0  0  0  0  0  0  0  0  0  0
   -2.7988   -5.1451    0.9308 C   0  0  0  0  0  0  0  0  0  0  0  0
   -3.1634   -3.8131    1.0453 C   0  0  0  0  0  0  0  0  0  0  0  0
   -2.2507   -2.7805    0.8666 C   0  0  0  0  0  0  0  0  0  0  0  0
   -2.5992   -1.4863    0.9778 N   0  0  0  0  0  0  0  0  0  0  0  0
   -1.6893   -0.4900    0.7997 C   0  0  0  0  0  0  0  0  0  0  0  0
  1  2  1  0
  2  3  1  0
  3  4  1  1
  3  5  1  0
  5  6  1  0
  6  7  2  0
  6  8  1  0
  8  9  2  0
  9 10  1  0
  9 11  1  0
 11 12  1  0
 12 13  1  0
 13 14  1  0
 14 15  2  0
 15 16  1  0
 16 17  2  0
 17 18  1  0
 18 19  1  0
 17 20  1  0
 20 21  2  0
 11 22  1  0
 22 23  2  0
 23 24  1  0
 24 25  2  0
 25 26  1  0
 26 27  2  0
 27 28  1  0
 28 29  2  0
 29 30  1  0
 30 31  2  0
 31  8  1  0
 21 14  1  0
 31 22  1  0
 29 24  1  0
M  END
>  <zinc_id>  (1) 
ZINC000002233191

>  <smiles>  (1) 
CC[C@H](C)NC(=O)c1c(N)n(CCc2ccc(OC)cc2)c2nc3ccccc3nc12

$$$$
