
     RDKit          3D

 33 37  0  0  0  0  0  0  0  0999 V2000
   -5.7380   -3.2623    0.2360 C   0  0  0  0  0  0  0  0  0  0  0  0
   -6.0104   -1.8938    0.5319 O   0  0  0  0  0  0  0  0  0  0  0  0
   -4.9178   -1.0778    0.7662 C   0  0  0  0  0  0  0  0  0  0  0  0
   -3.5884   -1.5288    0.7259 C   0  0  0  0  0  0  0  0  0  0  0  0
   -2.5442   -0.6911    0.9630 C   0  0  0  0  0  0  0  0  0  0  0  0
   -1.1276   -1.3146    0.8912 C   0  0  1  0  0  0  0  0  0  0  0  0
   -1.3222   -2.0804   -0.4726 N   0  0  0  0  0  0  0  0  0  0  0  0
   -0.1199   -2.8935   -0.5544 C   0  0  0  0  0  0  0  0  0  0  0  0
    1.1236   -2.0943   -0.1933 C   0  0  0  0  0  0  0  0  0  0  0  0
    0.8278   -0.6265   -0.2461 C   0  0  0  0  0  0  0  0  0  0  0  0
   -0.3159   -0.0983    0.2860 C   0  0  0  0  0  0  0  0  0  0  0  0
   -0.3534    1.1624    0.1255 N   0  0  0  0  0  0  0  0  0  0  0  0
    0.7471    1.5808   -0.5189 C   0  0  0  0  0  0  0  0  0  0  0  0
    1.2522    2.7814   -0.9590 C   0  0  0  0  0  0  0  0  0  0  0  0
    2.4723    2.8396   -1.6155 C   0  0  0  0  0  0  0  0  0  0  0  0
    3.2267    1.7033   -1.8538 C   0  0  0  0  0  0  0  0  0  0  0  0
    4.4308    1.7147   -2.4958 O   0  0  0  0  0  0  0  0  0  0  0  0
    5.2099    0.5744   -2.7431 C   0  0  0  0  0  0  0  0  0  0  0  0
    5.5533   -0.0233   -1.4313 C   0  0  0  0  0  0  0  0  0  0  0  0
    6.5352    0.6420   -0.6974 C   0  0  0  0  0  0  0  0  0  0  0  0
    6.9523    0.1858    0.5333 C   0  0  0  0  0  0  0  0  0  0  0  0
    6.3730   -0.9556    1.0320 C   0  0  0  0  0  0  0  0  0  0  0  0
    5.3963   -1.6235    0.3094 C   0  0  0  0  0  0  0  0  0  0  0  0
    4.9918   -1.1531   -0.9190 C   0  0  0  0  0  0  0  0  0  0  0  0
    2.7226    0.5018   -1.4141 C   0  0  0  0  0  0  0  0  0  0  0  0
    1.5191    0.4678   -0.7699 C   0  0  0  0  0  0  0  0  0  0  0  0
   -2.7837    0.6116    1.2455 C   0  0  0  0  0  0  0  0  0  0  0  0
   -4.0966    1.1102    1.2973 C   0  0  0  0  0  0  0  0  0  0  0  0
   -4.3610    2.4334    1.5833 O   0  0  0  0  0  0  0  0  0  0  0  0
   -3.3430    3.3877    1.8453 C   0  0  0  0  0  0  0  0  0  0  0  0
   -5.1299    0.2569    1.0573 C   0  0  0  0  0  0  0  0  0  0  0  0
   -6.4396    0.7808    1.1150 O   0  0  0  0  0  0  0  0  0  0  0  0
   -7.1424    0.7702    2.3398 C   0  0  0  0  0  0  0  0  0  0  0  0
  1  2  1  0
  2  3  1  0
  3  4  2  0
  4  5  1  0
  6  5  1  6
  6  7  1  0
  7  8  1  0
  8  9  1  0
  9 10  1  0
 10 11  2  0
 11 12  1  0
 12 13  1  0
 13 14  2  0
 14 15  1  0
 15 16  2  0
 16 17  1  0
 17 18  1  0
 18 19  1  0
 19 20  2  0
 20 21  1  0
 21 22  2  0
 22 23  1  0
 23 24  2  0
 16 25  1  0
 25 26  2  0
  5 27  2  0
 27 28  1  0
 28 29  1  0
 29 30  1  0
 28 31  2  0
 31 32  1  0
 32 33  1  0
 31  3  1  0
 11  6  1  0
 26 13  1  0
 26 10  1  0
 24 19  1  0
M  END
>  <zinc_id>  (1) 
ZINC000001317845

>  <smiles>  (1) 
COc1cc([C@H]2NCCc3c2[nH]c2ccc(OCc4ccccc4)cc32)cc(OC)c1OC

$$$$
