
     RDKit          3D

 32 35  0  0  0  0  0  0  0  0999 V2000
    6.5253   -2.0431   -1.1884 C   0  0  0  0  0  0  0  0  0  0  0  0
    5.5176   -2.8537   -0.3889 C   0  0  0  0  0  0  0  0  0  0  0  0
    6.2659   -3.5805    0.7492 C   0  0  0  0  0  0  0  0  0  0  0  0
    4.7003   -3.8213   -1.1987 C   0  0  0  0  0  0  0  0  0  0  0  0
    4.5589   -1.8776    0.2339 C   0  0  0  0  0  0  0  0  0  0  0  0
    3.3662   -2.2678    0.7929 C   0  0  0  0  0  0  0  0  0  0  0  0
    2.4981   -1.3616    1.3719 C   0  0  0  0  0  0  0  0  0  0  0  0
    2.7795   -0.0196    1.4215 C   0  0  0  0  0  0  0  0  0  0  0  0
    1.9291    1.0074    2.0606 C   0  0  0  0  0  0  0  0  0  0  0  0
    0.9025    1.4457    1.1512 N   0  0  0  0  0  4  0  0  0  0  0  0
   -0.3522    0.9314    1.1196 C   0  0  0  0  0  0  0  0  0  0  0  0
   -0.8325   -0.1313    1.9858 N   0  0  0  0  0  0  0  0  0  0  0  0
   -1.0323    1.5606    0.1696 N   0  0  0  0  0  0  0  0  0  0  0  0
   -2.4006    1.4155   -0.1707 C   0  0  0  0  0  0  0  0  0  0  0  0
   -2.6092    0.1312   -1.1569 C   0  0  2  0  0  0  0  0  0  0  0  0
   -1.6733    0.5891   -2.2770 O   0  0  0  0  0  0  0  0  0  0  0  0
   -3.9379    0.8302   -1.9226 C   0  0  0  0  0  0  0  0  0  0  0  0
   -4.9277    0.6633   -0.9833 O   0  0  0  0  0  0  0  0  0  0  0  0
   -5.3301   -0.5386   -0.4901 C   0  0  0  0  0  0  0  0  0  0  0  0
   -4.8280   -1.7713   -0.8339 C   0  0  0  0  0  0  0  0  0  0  0  0
   -5.3105   -2.9520   -0.2668 C   0  0  0  0  0  0  0  0  0  0  0  0
   -6.3146   -2.8952    0.6528 C   0  0  0  0  0  0  0  0  0  0  0  0
   -6.8609   -1.6765    1.0327 C   0  0  0  0  0  0  0  0  0  0  0  0
   -6.3510   -0.5248    0.4468 C   0  0  0  0  0  0  0  0  0  0  0  0
   -0.2107    2.4660   -0.3997 C   0  0  0  0  0  0  0  0  0  0  0  0
   -0.3819    3.3918   -1.4318 C   0  0  0  0  0  0  0  0  0  0  0  0
    0.6131    4.2255   -1.8486 C   0  0  0  0  0  0  0  0  0  0  0  0
    1.8279    4.1464   -1.2374 C   0  0  0  0  0  0  0  0  0  0  0  0
    2.0435    3.2479   -0.2136 C   0  0  0  0  0  0  0  0  0  0  0  0
    0.9962    2.4071    0.2031 C   0  0  0  0  0  0  0  0  0  0  0  0
    3.9969    0.3860    0.8476 C   0  0  0  0  0  0  0  0  0  0  0  0
    4.8322   -0.5301    0.2887 C   0  0  0  0  0  0  0  0  0  0  0  0
  1  2  1  0
  2  3  1  0
  2  4  1  0
  2  5  1  0
  5  6  2  0
  6  7  1  0
  7  8  2  0
  8  9  1  0
  9 10  1  0
 10 11  2  0
 11 12  1  0
 11 13  1  0
 13 14  1  0
 14 15  1  0
 15 16  1  6
 15 17  1  0
 17 18  1  0
 18 19  1  0
 19 20  2  0
 20 21  1  0
 21 22  2  0
 22 23  1  0
 23 24  2  0
 13 25  1  0
 25 26  2  0
 26 27  1  0
 27 28  2  0
 28 29  1  0
 29 30  2  0
  8 31  1  0
 31 32  2  0
 32  5  1  0
 30 10  1  0
 24 19  1  0
 30 25  1  0
M  CHG  1  10   1
M  END
>  <zinc_id>  (1) 
ZINC000001247059

>  <smiles>  (1) 
CC(C)(C)c1ccc(C[n+]2c(N)n(C[C@H](O)COc3ccccc3)c3ccccc32)cc1

$$$$
