
     RDKit          3D

 31 34  0  0  0  0  0  0  0  0999 V2000
    2.2822    2.3875   -1.1855 C   0  0  0  0  0  0  0  0  0  0  0  0
    3.1901    1.0235   -1.6278 C   0  0  2  0  0  0  0  0  0  0  0  0
    2.3574    0.1016   -0.6766 N   0  0  0  0  0  0  0  0  0  0  0  0
    3.0531   -0.8915    0.0282 C   0  0  0  0  0  0  0  0  0  0  0  0
    4.2722   -0.9500   -0.1702 O   0  0  0  0  0  0  0  0  0  0  0  0
    2.3904   -1.8144    0.9457 C   0  0  0  0  0  0  0  0  0  0  0  0
    3.1523   -2.7331    1.6290 C   0  0  0  0  0  0  0  0  0  0  0  0
    2.5598   -3.6017    2.5162 C   0  0  0  0  0  0  0  0  0  0  0  0
    1.2067   -3.5770    2.7426 C   0  0  0  0  0  0  0  0  0  0  0  0
    0.4643   -2.6318    2.0309 C   0  0  0  0  0  0  0  0  0  0  0  0
    1.0353   -1.7705    1.1536 C   0  0  0  0  0  0  0  0  0  0  0  0
    0.3080   -0.8297    0.4379 O   0  0  0  0  0  0  0  0  0  0  0  0
   -1.0913   -0.7746    0.6312 C   0  0  0  0  0  0  0  0  0  0  0  0
   -1.6468    0.2655   -0.2431 C   0  0  0  0  0  0  0  0  0  0  0  0
   -0.8743    0.9859   -0.9228 O   0  0  0  0  0  0  0  0  0  0  0  0
   -3.1064    0.4802   -0.3481 C   0  0  0  0  0  0  0  0  0  0  0  0
   -3.6064    1.4407   -1.2152 C   0  0  0  0  0  0  0  0  0  0  0  0
   -4.9614    1.6508   -1.3608 C   0  0  0  0  0  0  0  0  0  0  0  0
   -5.8837    0.9255   -0.6584 C   0  0  0  0  0  0  0  0  0  0  0  0
   -5.3870   -0.0430    0.2188 C   0  0  0  0  0  0  0  0  0  0  0  0
   -4.0248   -0.2503    0.3608 C   0  0  0  0  0  0  0  0  0  0  0  0
   -6.4041   -0.8071    0.9762 C   0  0  0  0  0  0  0  0  0  0  0  0
   -7.6173   -0.0387    1.3695 C   0  0  0  0  0  0  0  0  0  0  0  0
   -7.8323    1.2714    0.6679 C   0  0  0  0  0  0  0  0  0  0  0  0
   -7.3628    1.0943   -0.7765 C   0  0  0  0  0  0  0  0  0  0  0  0
    4.4129    1.3053   -0.6703 C   0  0  0  0  0  0  0  0  0  0  0  0
    4.3843    1.6423    0.5939 C   0  0  0  0  0  0  0  0  0  0  0  0
    5.5663    1.8651    1.2901 C   0  0  0  0  0  0  0  0  0  0  0  0
    6.7884    1.7333    0.6587 C   0  0  0  0  0  0  0  0  0  0  0  0
    6.7830    1.3735   -0.6845 C   0  0  0  0  0  0  0  0  0  0  0  0
    5.5917    1.1669   -1.3220 C   0  0  0  0  0  0  0  0  0  0  0  0
  2  1  1  1
  2  3  1  0
  3  4  1  0
  4  5  2  0
  4  6  1  0
  6  7  2  0
  7  8  1  0
  8  9  2  0
  9 10  1  0
 10 11  2  0
 11 12  1  0
 12 13  1  0
 13 14  1  0
 14 15  2  0
 14 16  1  0
 16 17  2  0
 17 18  1  0
 18 19  2  0
 19 20  1  0
 20 21  2  0
 20 22  1  0
 22 23  1  0
 23 24  1  0
 24 25  1  0
  2 26  1  0
 26 27  2  0
 27 28  1  0
 28 29  2  0
 29 30  1  0
 30 31  2  0
 11  6  1  0
 21 16  1  0
 31 26  1  0
 25 19  1  0
M  END
>  <zinc_id>  (1) 
ZINC000003002662

>  <smiles>  (1) 
C[C@H](NC(=O)c1ccccc1OCC(=O)c1ccc2c(c1)CCCC2)c1ccccc1

$$$$
