
     RDKit          3D

 30 33  0  0  0  0  0  0  0  0999 V2000
    7.6942   -1.0074   -0.8088 C   0  0  0  0  0  0  0  0  0  0  0  0
    7.4691   -2.0316    0.2709 C   0  0  0  0  0  0  0  0  0  0  0  0
    6.3170   -2.9160   -0.0891 C   0  0  0  0  0  0  0  0  0  0  0  0
    5.0548   -2.1377   -0.2559 C   0  0  0  0  0  0  0  0  0  0  0  0
    4.6533   -1.3955    1.0029 C   0  0  0  0  0  0  0  0  0  0  0  0
    3.4230   -0.6727    0.7457 N   0  0  0  0  0  0  0  0  0  0  0  0
    2.2516   -1.3985    0.3601 C   0  0  0  0  0  0  0  0  0  0  0  0
    2.3557   -2.6423    0.2642 O   0  0  0  0  0  0  0  0  0  0  0  0
    0.9903   -0.7699    0.0852 C   0  0  0  0  0  0  0  0  0  0  0  0
   -0.1748   -1.3995   -0.2892 C   0  0  0  0  0  0  0  0  0  0  0  0
   -0.3443   -2.8130   -0.4752 N   0  0  0  0  0  0  0  0  0  0  0  0
   -1.1222   -0.4604   -0.4492 N   0  0  0  0  0  0  0  0  0  0  0  0
   -2.5064   -0.7116   -0.8445 C   0  0  0  0  0  0  0  0  0  0  0  0
   -3.2868   -0.9251    0.4495 C   0  0  0  0  0  0  0  0  0  0  0  0
   -4.7087   -1.1909    0.2089 C   0  0  0  0  0  0  0  0  0  0  0  0
   -5.1487   -2.4804    0.0409 C   0  0  0  0  0  0  0  0  0  0  0  0
   -6.4802   -2.7458   -0.1856 C   0  0  0  0  0  0  0  0  0  0  0  0
   -7.3680   -1.7004   -0.2419 C   0  0  0  0  0  0  0  0  0  0  0  0
   -6.9052   -0.4226   -0.0713 C   0  0  0  0  0  0  0  0  0  0  0  0
   -5.5885   -0.1385    0.1544 C   0  0  0  0  0  0  0  0  0  0  0  0
   -0.5781    0.7602   -0.1821 C   0  0  0  0  0  0  0  0  0  0  0  0
   -1.0714    2.0002   -0.1907 N   0  0  0  0  0  0  0  0  0  0  0  0
   -0.2998    3.0814    0.1233 C   0  0  0  0  0  0  0  0  0  0  0  0
   -0.8585    4.3402    0.0991 C   0  0  0  0  0  0  0  0  0  0  0  0
   -0.0844    5.4306    0.4146 C   0  0  0  0  0  0  0  0  0  0  0  0
    1.2282    5.2470    0.7475 C   0  0  0  0  0  0  0  0  0  0  0  0
    1.7730    3.9868    0.7679 C   0  0  0  0  0  0  0  0  0  0  0  0
    1.0216    2.8757    0.4563 C   0  0  0  0  0  0  0  0  0  0  0  0
    1.5417    1.6434    0.4728 N   0  0  0  0  0  0  0  0  0  0  0  0
    0.7522    0.5943    0.1572 C   0  0  0  0  0  0  0  0  0  0  0  0
  1  2  1  0
  2  3  1  0
  3  4  1  0
  4  5  1  0
  5  6  1  0
  6  7  1  0
  7  8  2  0
  7  9  1  0
  9 10  2  0
 10 11  1  0
 10 12  1  0
 12 13  1  0
 13 14  1  0
 14 15  1  0
 15 16  2  0
 16 17  1  0
 17 18  2  0
 18 19  1  0
 19 20  2  0
 12 21  1  0
 21 22  2  0
 22 23  1  0
 23 24  2  0
 24 25  1  0
 25 26  2  0
 26 27  1  0
 27 28  2  0
 28 29  1  0
 29 30  2  0
 30  9  1  0
 20 15  1  0
 30 21  1  0
 28 23  1  0
M  END
>  <zinc_id>  (1) 
ZINC000002310973

>  <smiles>  (1) 
CCCCCNC(=O)c1c(N)n(CCc2ccccc2)c2nc3ccccc3nc12

$$$$
