
     RDKit          3D

 30 32  0  0  0  0  0  0  0  0999 V2000
    7.4656   -0.8826   -0.2307 C   0  0  0  0  0  0  0  0  0  0  0  0
    6.9701   -1.3659    1.0693 C   0  0  0  0  0  0  0  0  0  0  0  0
    5.3827   -1.2430    1.1871 C   0  0  2  0  0  0  0  0  0  0  0  0
    5.0329   -2.1809   -0.0881 C   0  0  0  0  0  0  0  0  0  0  0  0
    5.1903    0.1760    0.5409 C   0  0  0  0  0  0  0  0  0  0  0  0
    6.2921    0.9912    0.3929 C   0  0  0  0  0  0  0  0  0  0  0  0
    6.1717    2.2649   -0.1421 C   0  0  0  0  0  0  0  0  0  0  0  0
    4.9161    2.6931   -0.5219 C   0  0  0  0  0  0  0  0  0  0  0  0
    3.8204    1.8373   -0.3569 C   0  0  0  0  0  0  0  0  0  0  0  0
    3.9335    0.5812    0.1695 C   0  0  0  0  0  0  0  0  0  0  0  0
    2.8967   -0.3510    0.3727 N   0  0  0  0  0  0  0  0  0  0  0  0
    1.5385   -0.1136    0.0064 C   0  0  0  0  0  0  0  0  0  0  0  0
    1.3843    1.0059   -0.5075 O   0  0  0  0  0  0  0  0  0  0  0  0
    0.5746   -1.1456    0.2623 C   0  0  0  0  0  0  0  0  0  0  0  0
   -0.7107   -1.0143   -0.1116 O   0  0  0  0  0  0  0  0  0  0  0  0
   -1.6665   -0.1044    0.2273 C   0  0  0  0  0  0  0  0  0  0  0  0
   -1.3141    0.7785    1.0338 O   0  0  0  0  0  0  0  0  0  0  0  0
   -3.0466   -0.1205   -0.3008 C   0  0  0  0  0  0  0  0  0  0  0  0
   -3.7844   -1.3515    0.0077 C   0  0  0  0  0  0  0  0  0  0  0  0
   -3.8279   -1.9837    1.2224 C   0  0  0  0  0  0  0  0  0  0  0  0
   -4.5688   -3.1313    1.3688 C   0  0  0  0  0  0  0  0  0  0  0  0
   -5.2711   -3.6655    0.3271 C   0  0  0  0  0  0  0  0  0  0  0  0
   -5.2365   -3.0470   -0.8861 C   0  0  0  0  0  0  0  0  0  0  0  0
   -4.5046   -1.9132   -1.0331 C   0  0  0  0  0  0  0  0  0  0  0  0
   -3.8241    1.0935   -0.0463 C   0  0  0  0  0  0  0  0  0  0  0  0
   -3.8377    1.7808    1.1529 C   0  0  0  0  0  0  0  0  0  0  0  0
   -4.6282    2.8951    1.2277 C   0  0  0  0  0  0  0  0  0  0  0  0
   -5.3849    3.3288    0.1638 C   0  0  0  0  0  0  0  0  0  0  0  0
   -5.3681    2.6482   -1.0153 C   0  0  0  0  0  0  0  0  0  0  0  0
   -4.5952    1.5397   -1.1228 C   0  0  0  0  0  0  0  0  0  0  0  0
  1  2  1  0
  2  3  1  0
  3  4  1  6
  3  5  1  0
  5  6  2  0
  6  7  1  0
  7  8  2  0
  8  9  1  0
  9 10  2  0
 10 11  1  0
 11 12  1  0
 12 13  2  0
 12 14  1  0
 14 15  1  0
 15 16  1  0
 16 17  2  0
 16 18  1  0
 18 19  1  0
 19 20  2  0
 20 21  1  0
 21 22  2  0
 22 23  1  0
 23 24  2  0
 18 25  1  0
 25 26  2  0
 26 27  1  0
 27 28  2  0
 28 29  1  0
 29 30  2  0
 10  5  1  0
 24 19  1  0
 30 25  1  0
M  END
>  <zinc_id>  (1) 
ZINC000003237120

>  <smiles>  (1) 
CC[C@H](C)c1ccccc1NC(=O)COC(=O)C(c1ccccc1)c1ccccc1

$$$$
