
     RDKit          3D

 29 31  0  0  0  0  0  0  0  0999 V2000
   -6.1169    3.7965    0.7723 C   0  0  0  0  0  0  0  0  0  0  0  0
   -5.8365    2.3508    1.1026 C   0  0  0  0  0  0  0  0  0  0  0  0
   -6.5912    1.4396    0.1479 C   0  0  0  0  0  0  0  0  0  0  0  0
   -6.2995    0.0943    0.4937 O   0  0  0  0  0  0  0  0  0  0  0  0
   -5.0072   -0.4076    0.4727 C   0  0  0  0  0  0  0  0  0  0  0  0
   -4.7996   -1.7161    0.8188 C   0  0  0  0  0  0  0  0  0  0  0  0
   -3.5179   -2.2313    0.8029 C   0  0  0  0  0  0  0  0  0  0  0  0
   -2.4260   -1.4791    0.4503 C   0  0  0  0  0  0  0  0  0  0  0  0
   -1.1077   -2.0716    0.4517 N   0  0  0  0  0  0  0  0  0  0  0  0
    0.0245   -1.3075    0.1025 C   0  0  0  0  0  0  0  0  0  0  0  0
   -0.1665   -0.1267   -0.1999 O   0  0  0  0  0  0  0  0  0  0  0  0
    1.3584   -1.9796    0.1278 C   0  0  0  0  0  0  0  0  0  0  0  0
    2.5160   -1.2818   -0.0800 C   0  0  0  0  0  0  0  0  0  0  0  0
    2.9511    0.0312   -0.0836 N   0  0  0  0  0  0  0  0  0  0  0  0
    2.6662    1.2840    0.2571 C   0  0  0  0  0  0  0  0  0  0  0  0
    1.6014    1.5313    0.8587 O   0  0  0  0  0  0  0  0  0  0  0  0
    3.5370    2.4654   -0.0255 C   0  0  0  0  0  0  0  0  0  0  0  0
    3.1718    3.7301    0.3551 C   0  0  0  0  0  0  0  0  0  0  0  0
    4.0038    4.8221    0.0797 C   0  0  0  0  0  0  0  0  0  0  0  0
    5.2045    4.6618   -0.5763 C   0  0  0  0  0  0  0  0  0  0  0  0
    5.5678    3.3889   -0.9570 C   0  0  0  0  0  0  0  0  0  0  0  0
    4.7329    2.2989   -0.6798 C   0  0  0  0  0  0  0  0  0  0  0  0
    3.6897   -2.6134   -0.1658 S   0  0  0  0  0  0  0  0  0  0  0  0
    2.6647   -3.9063    0.0673 C   0  0  0  0  0  0  0  0  0  0  0  0
    3.0476   -5.3649    0.1076 C   0  0  0  0  0  0  0  0  0  0  0  0
    1.4458   -3.3351    0.2057 C   0  0  0  0  0  0  0  0  0  0  0  0
    0.2499   -4.2727    0.4443 C   0  0  0  0  0  0  0  0  0  0  0  0
   -2.6440   -0.1633    0.1034 C   0  0  0  0  0  0  0  0  0  0  0  0
   -3.9200    0.3622    0.1157 C   0  0  0  0  0  0  0  0  0  0  0  0
  1  2  1  0
  2  3  1  0
  3  4  1  0
  4  5  1  0
  5  6  2  0
  6  7  1  0
  7  8  2  0
  8  9  1  0
  9 10  1  0
 10 11  2  0
 10 12  1  0
 12 13  2  0
 13 14  1  0
 14 15  1  0
 15 16  2  0
 15 17  1  0
 17 18  2  0
 18 19  1  0
 19 20  2  0
 20 21  1  0
 21 22  2  0
 13 23  1  0
 23 24  1  0
 24 25  1  0
 24 26  2  0
 26 27  1  0
  8 28  1  0
 28 29  2  0
 29  5  1  0
 26 12  1  0
 22 17  1  0
M  END
>  <zinc_id>  (1) 
ZINC000001933864

>  <smiles>  (1) 
CCCOc1ccc(NC(=O)c2c(NC(=O)c3ccccc3)sc(C)c2C)cc1

$$$$
