
     RDKit          3D

 28 30  0  0  0  0  0  0  0  0999 V2000
   -7.8015    3.4259   -0.2148 C   0  0  0  0  0  0  0  0  0  0  0  0
   -6.7215    2.3881   -0.1050 C   0  0  0  0  0  0  0  0  0  0  0  0
   -5.5904    2.5499   -0.8650 C   0  0  0  0  0  0  0  0  0  0  0  0
   -4.5744    1.6072   -0.7853 C   0  0  0  0  0  0  0  0  0  0  0  0
   -4.6920    0.5153    0.0471 C   0  0  0  0  0  0  0  0  0  0  0  0
   -3.6278   -0.4859    0.1398 C   0  0  0  0  0  0  0  0  0  0  0  0
   -3.7720   -1.5588    0.9760 C   0  0  0  0  0  0  0  0  0  0  0  0
   -2.7577   -2.4896    1.0481 C   0  0  0  0  0  0  0  0  0  0  0  0
   -1.6325   -2.3283    0.2896 C   0  0  0  0  0  0  0  0  0  0  0  0
   -0.3198   -3.5172    0.3725 S   0  0  0  0  0  0  0  0  0  0  0  0
    0.8299   -3.0031    1.6633 C   0  0  0  0  0  0  0  0  0  0  0  0
    1.5351   -1.7399    1.3322 C   0  0  0  0  0  0  0  0  0  0  0  0
    0.9830   -0.5340    1.7070 C   0  0  0  0  0  0  0  0  0  0  0  0
    1.6199    0.6600    1.4109 C   0  0  0  0  0  0  0  0  0  0  0  0
    2.8214    0.6642    0.7339 C   0  0  0  0  0  0  0  0  0  0  0  0
    3.3885   -0.5359    0.3510 C   0  0  0  0  0  0  0  0  0  0  0  0
    4.6594   -0.4996   -0.3623 C   0  0  0  0  0  0  0  0  0  0  0  0
    5.1680   -1.6101   -0.6993 O   0  0  0  0  0  0  0  0  0  0  0  0
    5.3368    0.6805   -0.6890 N   0  0  0  0  0  0  0  0  0  0  0  0
    6.5985    0.5940   -1.4023 C   0  0  0  0  0  0  0  0  0  0  0  0
    7.0867    2.0110   -1.6115 C   0  0  0  0  0  0  0  0  0  0  0  0
    8.3875    2.0903   -2.3384 C   0  0  0  0  0  0  0  0  0  0  0  0
    7.0413    2.7772   -0.3265 C   0  0  0  0  0  0  0  0  0  0  0  0
    2.7413   -1.7108    0.6538 C   0  0  0  0  0  0  0  0  0  0  0  0
   -1.5294   -1.2691   -0.5133 N   0  0  0  0  0  0  0  0  0  0  0  0
   -2.5048   -0.3487   -0.6004 N   0  0  0  0  0  0  0  0  0  0  0  0
   -5.8381    0.3664    0.8067 C   0  0  0  0  0  0  0  0  0  0  0  0
   -6.8356    1.3011    0.7219 C   0  0  0  0  0  0  0  0  0  0  0  0
  1  2  1  0
  2  3  2  0
  3  4  1  0
  4  5  2  0
  5  6  1  0
  6  7  2  0
  7  8  1  0
  8  9  2  0
  9 10  1  0
 10 11  1  0
 11 12  1  0
 12 13  2  0
 13 14  1  0
 14 15  2  0
 15 16  1  0
 16 17  1  0
 17 18  2  0
 17 19  1  0
 19 20  1  0
 20 21  1  0
 21 22  1  0
 21 23  1  0
 16 24  2  0
  9 25  1  0
 25 26  2  0
  5 27  1  0
 27 28  2  0
 28  2  1  0
 26  6  1  0
 24 12  1  0
M  END
>  <zinc_id>  (1) 
ZINC000000737760

>  <smiles>  (1) 
Cc1ccc(-c2ccc(SCc3cccc(C(=O)NCC(C)C)c3)nn2)cc1

$$$$
