
     RDKit          3D

 31 34  0  0  0  0  0  0  0  0999 V2000
   -7.7298   -2.0498   -1.1921 C   0  0  0  0  0  0  0  0  0  0  0  0
   -6.8890   -2.7664   -0.1576 C   0  0  0  0  0  0  0  0  0  0  0  0
   -5.6965   -1.9600    0.2378 C   0  0  0  0  0  0  0  0  0  0  0  0
   -4.5083   -2.0863   -0.4362 C   0  0  0  0  0  0  0  0  0  0  0  0
   -3.3808   -1.3635   -0.1078 C   0  0  0  0  0  0  0  0  0  0  0  0
   -3.4383   -0.4812    0.9312 C   0  0  0  0  0  0  0  0  0  0  0  0
   -2.3418    0.3134    1.3557 N   0  0  0  0  0  0  0  0  0  0  0  0
   -1.0689    0.2735    0.7431 C   0  0  0  0  0  0  0  0  0  0  0  0
   -0.3677    1.3721    0.4057 C   0  0  0  0  0  0  0  0  0  0  0  0
   -0.8782    3.0637    0.6515 S   0  0  0  0  0  0  0  0  0  0  0  0
    0.3843    4.1400    0.0440 C   0  0  0  0  0  0  0  0  0  0  0  0
    1.4063    4.5802    0.8456 C   0  0  0  0  0  0  0  0  0  0  0  0
    2.3898    5.4255    0.3517 C   0  0  0  0  0  0  0  0  0  0  0  0
    2.3586    5.8400   -0.9571 C   0  0  0  0  0  0  0  0  0  0  0  0
    1.3402    5.4065   -1.7713 C   0  0  0  0  0  0  0  0  0  0  0  0
    0.3523    4.5544   -1.2662 C   0  0  0  0  0  0  0  0  0  0  0  0
    0.8919    0.9686   -0.2007 C   0  0  0  0  0  0  0  0  0  0  0  0
    1.8196    1.7213   -0.6471 O   0  0  0  0  0  0  0  0  0  0  0  0
    0.9479   -0.4522   -0.2277 N   0  0  0  0  0  0  0  0  0  0  0  0
    2.0178   -1.2903   -0.7428 C   0  0  0  0  0  0  0  0  0  0  0  0
    2.9909   -1.5676    0.3735 C   0  0  0  0  0  0  0  0  0  0  0  0
    4.1068   -2.4221   -0.0999 C   0  0  0  0  0  0  0  0  0  0  0  0
    3.9615   -3.7910   -0.0022 C   0  0  0  0  0  0  0  0  0  0  0  0
    4.9911   -4.5953   -0.4387 C   0  0  0  0  0  0  0  0  0  0  0  0
    6.1246   -4.0078   -0.9549 C   0  0  0  0  0  0  0  0  0  0  0  0
    6.2556   -2.6400   -1.0463 C   0  0  0  0  0  0  0  0  0  0  0  0
    5.2310   -1.8291   -0.6122 C   0  0  0  0  0  0  0  0  0  0  0  0
   -0.2732   -0.8850    0.3600 C   0  0  0  0  0  0  0  0  0  0  0  0
   -0.6377   -2.0704    0.5353 O   0  0  0  0  0  0  0  0  0  0  0  0
   -4.6229   -0.3372    1.6240 C   0  0  0  0  0  0  0  0  0  0  0  0
   -5.7371   -1.0642    1.2849 C   0  0  0  0  0  0  0  0  0  0  0  0
  1  2  1  0
  2  3  1  0
  3  4  2  0
  4  5  1  0
  5  6  2  0
  6  7  1  0
  7  8  1  0
  8  9  2  0
  9 10  1  0
 10 11  1  0
 11 12  2  0
 12 13  1  0
 13 14  2  0
 14 15  1  0
 15 16  2  0
  9 17  1  0
 17 18  2  0
 17 19  1  0
 19 20  1  0
 20 21  1  0
 21 22  1  0
 22 23  2  0
 23 24  1  0
 24 25  2  0
 25 26  1  0
 26 27  2  0
 19 28  1  0
 28 29  2  0
  6 30  1  0
 30 31  2  0
 31  3  1  0
 28  8  1  0
 16 11  1  0
 27 22  1  0
M  END
>  <zinc_id>  (1) 
ZINC000001932114

>  <smiles>  (1) 
CCc1ccc(NC2=C(Sc3ccccc3)C(=O)N(CCc3ccccc3)C2=O)cc1

$$$$
