
     RDKit          3D

 32 35  0  0  0  0  0  0  0  0999 V2000
    1.4345    5.9560    0.8727 C   0  0  0  0  0  0  0  0  0  0  0  0
    1.8205    4.5696    1.3380 C   0  0  0  0  0  0  0  0  0  0  0  0
    0.5864    3.7058    1.2950 C   0  0  0  0  0  0  0  0  0  0  0  0
    0.8757    2.3131    1.7402 C   0  0  0  0  0  0  0  0  0  0  0  0
   -0.3896    1.4864    1.6800 C   0  0  0  0  0  0  0  0  0  0  0  0
   -0.9465    1.4328    0.2750 C   0  0  0  0  0  0  0  0  0  0  0  0
    0.1020    0.8116   -0.6022 C   0  0  0  0  0  0  0  0  0  0  0  0
    0.0660   -0.2549   -1.3188 C   0  0  0  0  0  0  0  0  0  0  0  0
   -1.0052   -1.1859   -1.4998 C   0  0  0  0  0  0  0  0  0  0  0  0
   -0.8365   -2.1854   -2.2582 O   0  0  0  0  0  0  0  0  0  0  0  0
   -2.2678   -1.0820   -0.8884 N   0  0  0  0  0  0  0  0  0  0  0  0
   -3.2817   -2.0528   -1.1212 C   0  0  0  0  0  0  0  0  0  0  0  0
   -4.5457   -1.7299   -0.3582 C   0  0  0  0  0  0  0  0  0  0  0  0
   -4.6446   -0.6316    0.4388 C   0  0  0  0  0  0  0  0  0  0  0  0
   -5.8149   -0.3834    1.1105 C   0  0  0  0  0  0  0  0  0  0  0  0
   -6.9122   -1.2158    1.0085 C   0  0  0  0  0  0  0  0  0  0  0  0
   -6.8062   -2.3303    0.1973 C   0  0  0  0  0  0  0  0  0  0  0  0
   -5.6294   -2.5717   -0.4724 C   0  0  0  0  0  0  0  0  0  0  0  0
   -5.4825   -4.1256   -1.6029 Br  0  0  0  0  0  0  0  0  0  0  0  0
    1.4847   -0.4017   -1.9967 C   0  0  2  0  0  0  0  0  0  0  0  0
    2.3235   -0.7337   -0.6911 C   0  0  0  0  0  0  0  0  0  0  0  0
    1.8266   -1.6186    0.2089 C   0  0  0  0  0  0  0  0  0  0  0  0
    2.5556   -1.9204    1.3728 C   0  0  0  0  0  0  0  0  0  0  0  0
    3.7706   -1.3021    1.5716 C   0  0  0  0  0  0  0  0  0  0  0  0
    4.2915   -0.3994    0.6667 C   0  0  0  0  0  0  0  0  0  0  0  0
    5.5058    0.2273    0.8481 C   0  0  0  0  0  0  0  0  0  0  0  0
    5.9523    1.1051   -0.0933 C   0  0  0  0  0  0  0  0  0  0  0  0
    5.2253    1.4007   -1.2462 C   0  0  0  0  0  0  0  0  0  0  0  0
    4.0287    0.7536   -1.3786 C   0  0  0  0  0  0  0  0  0  0  0  0
    3.5199   -0.1406   -0.4711 C   0  0  0  0  0  0  0  0  0  0  0  0
    1.8048    1.0945   -2.0230 O   0  0  0  0  0  0  0  0  0  0  0  0
    1.3883    1.4095   -0.7690 N   0  0  0  0  0  0  0  0  0  0  0  0
  1  2  1  0
  2  3  1  0
  3  4  1  0
  4  5  1  0
  5  6  1  0
  6  7  1  0
  7  8  2  0
  8  9  1  0
  9 10  2  0
  9 11  1  0
 11 12  1  0
 12 13  1  0
 13 14  2  0
 14 15  1  0
 15 16  2  0
 16 17  1  0
 17 18  2  0
 18 19  1  0
  8 20  1  0
 20 21  1  1
 21 22  2  0
 22 23  1  0
 23 24  2  0
 24 25  1  0
 25 26  2  0
 26 27  1  0
 27 28  2  0
 28 29  1  0
 29 30  2  0
 20 31  1  0
 31 32  1  0
 32  7  1  0
 18 13  1  0
 30 21  1  0
 30 25  1  0
M  END
>  <zinc_id>  (1) 
ZINC000002474233

>  <smiles>  (1) 
CCCCCCC1=C(C(=O)NCc2ccccc2Br)[C@H](c2cccc3ccccc23)ON1

$$$$
