
     RDKit          3D

 31 34  0  0  0  0  0  0  0  0999 V2000
   -8.7620   -0.3546    0.3493 C   0  0  0  0  0  0  0  0  0  0  0  0
   -7.2900   -0.4587    0.6343 C   0  0  0  0  0  0  0  0  0  0  0  0
   -6.8272   -0.9399    1.8372 C   0  0  0  0  0  0  0  0  0  0  0  0
   -5.4864   -1.0517    2.1389 C   0  0  0  0  0  0  0  0  0  0  0  0
   -4.5803   -0.6690    1.2052 C   0  0  0  0  0  0  0  0  0  0  0  0
   -3.1162   -0.7535    1.4415 C   0  0  0  0  0  0  0  0  0  0  0  0
   -2.6474   -1.2344    2.6441 C   0  0  0  0  0  0  0  0  0  0  0  0
   -0.9564   -1.1348    2.4276 S   0  0  0  0  0  0  0  0  0  0  0  0
   -0.9496   -0.4992    0.8494 C   0  0  0  0  0  0  0  0  0  0  0  0
    0.1205   -0.1310   -0.0452 N   0  0  0  0  0  0  0  0  0  0  0  0
    1.4713   -0.2930    0.3816 C   0  0  0  0  0  0  0  0  0  0  0  0
    1.6577   -0.7529    1.5270 O   0  0  0  0  0  0  0  0  0  0  0  0
    2.6022    0.0531   -0.4570 C   0  0  0  0  0  0  0  0  0  0  0  0
    2.4403    0.5630   -1.7261 C   0  0  0  0  0  0  0  0  0  0  0  0
    3.5339    0.8864   -2.5091 C   0  0  0  0  0  0  0  0  0  0  0  0
    4.8019    0.7065   -2.0394 C   0  0  0  0  0  0  0  0  0  0  0  0
    5.0059    0.2010   -0.7805 C   0  0  0  0  0  0  0  0  0  0  0  0
    6.2830    0.0246   -0.3194 O   0  0  0  0  0  0  0  0  0  0  0  0
    7.3803    0.3570   -1.1245 C   0  0  0  0  0  0  0  0  0  0  0  0
    8.6989    0.0988   -0.4597 C   0  0  0  0  0  0  0  0  0  0  0  0
    8.8175    0.9143    0.8143 C   0  0  0  0  0  0  0  0  0  0  0  0
    8.7035    2.3753    0.3991 C   0  0  0  0  0  0  0  0  0  0  0  0
   10.1754    0.7133    1.4357 C   0  0  0  0  0  0  0  0  0  0  0  0
    3.8902   -0.1211   -0.0013 C   0  0  0  0  0  0  0  0  0  0  0  0
   -2.2304   -0.3942    0.5656 N   0  0  0  0  0  0  0  0  0  0  0  0
   -5.0316   -0.1862   -0.0014 C   0  0  0  0  0  0  0  0  0  0  0  0
   -4.1209    0.2121   -0.9736 C   0  0  0  0  0  0  0  0  0  0  0  0
   -4.5408    0.6993   -2.1906 C   0  0  0  0  0  0  0  0  0  0  0  0
   -5.8813    0.8141   -2.4996 C   0  0  0  0  0  0  0  0  0  0  0  0
   -6.7927    0.4254   -1.5512 C   0  0  0  0  0  0  0  0  0  0  0  0
   -6.3693   -0.0700   -0.3138 C   0  0  0  0  0  0  0  0  0  0  0  0
  1  2  1  0
  2  3  2  0
  3  4  1  0
  4  5  2  0
  5  6  1  0
  6  7  2  0
  7  8  1  0
  8  9  1  0
  9 10  1  0
 10 11  1  0
 11 12  2  0
 11 13  1  0
 13 14  2  0
 14 15  1  0
 15 16  2  0
 16 17  1  0
 17 18  1  0
 18 19  1  0
 19 20  1  0
 20 21  1  0
 21 22  1  0
 21 23  1  0
 17 24  2  0
  9 25  2  0
  5 26  1  0
 26 27  2  0
 27 28  1  0
 28 29  2  0
 29 30  1  0
 30 31  2  0
 31  2  1  0
 25  6  1  0
 31 26  1  0
 24 13  1  0
M  END
>  <zinc_id>  (1) 
ZINC000003767970

>  <smiles>  (1) 
Cc1ccc(-c2csc(NC(=O)c3cccc(OCCC(C)C)c3)n2)c2ccccc12

$$$$
