
     RDKit          3D

 31 35  0  0  0  0  0  0  0  0999 V2000
   -2.5990   -1.7221    4.8061 O   0  0  0  0  0  0  0  0  0  0  0  0
   -2.4342   -1.4126    3.4595 C   0  0  0  0  0  0  0  0  0  0  0  0
   -1.6746   -2.2855    2.7116 C   0  0  0  0  0  0  0  0  0  0  0  0
   -1.4936   -1.9988    1.3594 C   0  0  0  0  0  0  0  0  0  0  0  0
   -2.0478   -0.8840    0.7708 C   0  0  0  0  0  0  0  0  0  0  0  0
   -2.7788   -0.0540    1.5142 C   0  0  0  0  0  0  0  0  0  0  0  0
   -2.9884   -0.3088    2.8971 C   0  0  0  0  0  0  0  0  0  0  0  0
   -3.4245    1.1686    1.0052 C   0  0  0  0  0  0  0  0  0  0  0  0
   -2.5705    1.6685   -0.1443 C   0  0  0  0  0  0  0  0  0  0  0  0
   -2.5565    0.6164   -1.0742 N   0  0  0  0  0  0  0  0  0  0  0  0
   -3.2177    0.6115   -2.3160 C   0  0  0  0  0  0  0  0  0  0  0  0
   -3.9591    1.7064   -2.7084 C   0  0  0  0  0  0  0  0  0  0  0  0
   -4.6138    1.7178   -3.9233 C   0  0  0  0  0  0  0  0  0  0  0  0
   -4.5459    0.6402   -4.7753 C   0  0  0  0  0  0  0  0  0  0  0  0
   -3.8110   -0.4592   -4.3991 C   0  0  0  0  0  0  0  0  0  0  0  0
   -3.1614   -0.4581   -3.1824 C   0  0  0  0  0  0  0  0  0  0  0  0
   -1.7544   -0.6944   -0.7641 C   0  0  1  0  0  0  0  0  0  0  0  0
   -0.3143    0.0106   -0.6088 C   0  0  0  0  0  0  0  0  0  0  0  0
    0.7347   -0.6122   -1.2381 C   0  0  0  0  0  0  0  0  0  0  0  0
    2.0150   -0.0505   -1.1425 C   0  0  0  0  0  0  0  0  0  0  0  0
    2.1830    1.1078   -0.4215 C   0  0  0  0  0  0  0  0  0  0  0  0
    3.4723    1.6735   -0.3252 O   0  0  0  0  0  0  0  0  0  0  0  0
    4.5910    1.1069   -0.9325 C   0  0  0  0  0  0  0  0  0  0  0  0
    4.8939   -0.2882   -0.4635 C   0  0  0  0  0  0  0  0  0  0  0  0
    5.1456   -0.3098    0.9651 N   0  0  0  0  0  0  0  0  0  0  0  0
    5.4314   -1.6676    1.3692 C   0  0  0  0  0  0  0  0  0  0  0  0
    6.9308   -1.7668    1.5137 C   0  0  0  0  0  0  0  0  0  0  0  0
    7.3479   -0.3683    1.8574 C   0  0  0  0  0  0  0  0  0  0  0  0
    6.2591    0.5055    1.3195 C   0  0  0  0  0  0  0  0  0  0  0  0
    1.0975    1.6810    0.1831 C   0  0  0  0  0  0  0  0  0  0  0  0
   -0.1568    1.1261    0.0866 C   0  0  0  0  0  0  0  0  0  0  0  0
  1  2  1  0
  2  3  2  0
  3  4  1  0
  4  5  2  0
  5  6  1  0
  6  7  2  0
  6  8  1  0
  8  9  1  0
  9 10  1  0
 10 11  1  0
 11 12  2  0
 12 13  1  0
 13 14  2  0
 14 15  1  0
 15 16  2  0
 10 17  1  0
 17 18  1  1
 18 19  2  0
 19 20  1  0
 20 21  2  0
 21 22  1  0
 22 23  1  0
 23 24  1  0
 24 25  1  0
 25 26  1  0
 26 27  1  0
 27 28  1  0
 28 29  1  0
 21 30  1  0
 30 31  2  0
  7  2  1  0
 16 11  1  0
 31 18  1  0
 17  5  1  0
 29 25  1  0
M  END
>  <zinc_id>  (1) 
ZINC000000838695

>  <smiles>  (1) 
Oc1ccc2c(c1)CCN(c1ccccc1)[C@H]2c1ccc(OCCN2CCCC2)cc1

$$$$
