
     RDKit          3D

 33 37  0  0  0  0  0  0  0  0999 V2000
    6.9678    2.7104   -1.4876 C   0  0  0  0  0  0  0  0  0  0  0  0
    6.6479    1.4409   -0.9703 O   0  0  0  0  0  0  0  0  0  0  0  0
    5.5585    1.2390   -0.1350 C   0  0  0  0  0  0  0  0  0  0  0  0
    4.7466    2.2939    0.2167 C   0  0  0  0  0  0  0  0  0  0  0  0
    3.6564    2.0881    1.0534 C   0  0  0  0  0  0  0  0  0  0  0  0
    3.3641    0.8492    1.5437 C   0  0  0  0  0  0  0  0  0  0  0  0
    2.1987    0.6228    2.4397 C   0  0  0  0  0  0  0  0  0  0  0  0
    1.0608    0.3092    1.5912 N   0  0  0  0  0  0  0  0  0  0  0  0
    0.1708    1.1603    1.0532 C   0  0  0  0  0  0  0  0  0  0  0  0
    0.1626    2.5815    1.2100 N   0  0  0  0  0  0  0  0  0  0  0  0
   -0.7572    0.4624    0.3106 C   0  0  0  0  0  0  0  0  0  0  0  0
   -1.8905    0.9914   -0.4379 C   0  0  0  0  0  0  0  0  0  0  0  0
   -2.0772    2.2333   -0.4290 O   0  0  0  0  0  0  0  0  0  0  0  0
   -2.7609    0.2042   -1.1496 O   0  0  0  0  0  0  0  0  0  0  0  0
   -3.8579    0.7159   -1.8736 C   0  0  0  0  0  0  0  0  0  0  0  0
   -4.8073    1.4428   -0.9787 C   0  0  0  0  0  0  0  0  0  0  0  0
   -4.6261    1.5537    0.3750 C   0  0  0  0  0  0  0  0  0  0  0  0
   -5.4956    2.2215    1.2073 C   0  0  0  0  0  0  0  0  0  0  0  0
   -6.6035    2.8108    0.6692 C   0  0  0  0  0  0  0  0  0  0  0  0
   -6.8141    2.7164   -0.6936 C   0  0  0  0  0  0  0  0  0  0  0  0
   -5.9276    2.0395   -1.5172 C   0  0  0  0  0  0  0  0  0  0  0  0
   -0.3766   -0.8584    0.4312 C   0  0  0  0  0  0  0  0  0  0  0  0
   -0.9523   -1.9645   -0.1065 N   0  0  0  0  0  0  0  0  0  0  0  0
   -0.4113   -3.1735    0.1414 C   0  0  0  0  0  0  0  0  0  0  0  0
   -0.9525   -4.3416   -0.3787 C   0  0  0  0  0  0  0  0  0  0  0  0
   -0.4120   -5.5862   -0.1353 C   0  0  0  0  0  0  0  0  0  0  0  0
    0.7239   -5.6699    0.6663 C   0  0  0  0  0  0  0  0  0  0  0  0
    1.2656   -4.5169    1.1850 C   0  0  0  0  0  0  0  0  0  0  0  0
    0.7139   -3.2647    0.9345 C   0  0  0  0  0  0  0  0  0  0  0  0
    1.2866   -2.1570    1.4702 N   0  0  0  0  0  0  0  0  0  0  0  0
    0.7462   -0.9411    1.2235 C   0  0  0  0  0  0  0  0  0  0  0  0
    4.1888   -0.2122    1.1842 C   0  0  0  0  0  0  0  0  0  0  0  0
    5.2635   -0.0013    0.3576 C   0  0  0  0  0  0  0  0  0  0  0  0
  1  2  1  0
  2  3  1  0
  3  4  2  0
  4  5  1  0
  5  6  2  0
  6  7  1  0
  7  8  1  0
  8  9  1  0
  9 10  1  0
  9 11  2  0
 11 12  1  0
 12 13  2  0
 12 14  1  0
 14 15  1  0
 15 16  1  0
 16 17  2  0
 17 18  1  0
 18 19  2  0
 19 20  1  0
 20 21  2  0
 11 22  1  0
 22 23  2  0
 23 24  1  0
 24 25  2  0
 25 26  1  0
 26 27  2  0
 27 28  1  0
 28 29  2  0
 29 30  1  0
 30 31  2  0
  6 32  1  0
 32 33  2  0
 33  3  1  0
 31  8  1  0
 21 16  1  0
 31 22  1  0
 29 24  1  0
M  END
>  <zinc_id>  (1) 
ZINC000002427937

>  <smiles>  (1) 
COc1ccc(Cn2c(N)c(C(=O)OCc3ccccc3)c3nc4ccccc4nc32)cc1

$$$$
