
     RDKit          3D

 31 34  0  0  0  0  0  0  0  0999 V2000
    9.1103    1.0823   -2.5494 C   0  0  0  0  0  0  0  0  0  0  0  0
    8.4294    1.3031   -1.3386 O   0  0  0  0  0  0  0  0  0  0  0  0
    7.3602    0.5172   -0.9420 C   0  0  0  0  0  0  0  0  0  0  0  0
    6.7477    0.8140    0.2768 C   0  0  0  0  0  0  0  0  0  0  0  0
    5.6732    0.0690    0.7346 C   0  0  0  0  0  0  0  0  0  0  0  0
    5.1823   -0.9780    0.0053 C   0  0  0  0  0  0  0  0  0  0  0  0
    3.8349   -1.8843    0.6164 S   0  0  0  0  0  0  0  0  0  0  0  0
    3.8968   -1.8279    2.1208 O   0  0  0  0  0  0  0  0  0  0  0  0
    3.9188   -3.3222    0.1370 O   0  0  0  0  0  0  0  0  0  0  0  0
    2.3221   -1.2809    0.1270 N   0  0  0  0  0  0  0  0  0  0  0  0
    2.0782    0.0725    0.5898 C   0  0  0  0  0  0  0  0  0  0  0  0
    0.7304    0.5798    0.1402 C   0  0  0  0  0  0  0  0  0  0  0  0
   -0.4017   -0.2785    0.6622 C   0  0  0  0  0  0  0  0  0  0  0  0
   -1.6760    0.2933    0.1684 C   0  0  0  0  0  0  0  0  0  0  0  0
   -2.4042   -0.2635   -0.8766 C   0  0  0  0  0  0  0  0  0  0  0  0
   -3.4954    0.4981   -1.0673 N   0  0  0  0  0  0  0  0  0  0  0  0
   -4.4871    0.2341   -2.0676 C   0  0  0  0  0  0  0  0  0  0  0  0
   -5.5661   -0.6379   -1.5457 C   0  0  0  0  0  0  0  0  0  0  0  0
   -6.6899   -0.0425   -0.9602 C   0  0  0  0  0  0  0  0  0  0  0  0
   -7.7292   -0.8059   -0.4556 C   0  0  0  0  0  0  0  0  0  0  0  0
   -7.6373   -2.1642   -0.5403 C   0  0  0  0  0  0  0  0  0  0  0  0
   -6.5701   -2.8040   -1.0985 C   0  0  0  0  0  0  0  0  0  0  0  0
   -5.5439   -2.0100   -1.5956 C   0  0  0  0  0  0  0  0  0  0  0  0
   -3.5315    1.5291   -0.2067 C   0  0  0  0  0  0  0  0  0  0  0  0
   -4.4246    2.5793    0.0053 C   0  0  0  0  0  0  0  0  0  0  0  0
   -4.1794    3.5088    0.9972 C   0  0  0  0  0  0  0  0  0  0  0  0
   -3.0387    3.3426    1.7396 C   0  0  0  0  0  0  0  0  0  0  0  0
   -2.1366    2.3160    1.5547 C   0  0  0  0  0  0  0  0  0  0  0  0
   -2.3857    1.3904    0.5632 C   0  0  0  0  0  0  0  0  0  0  0  0
    5.7633   -1.2932   -1.1960 C   0  0  0  0  0  0  0  0  0  0  0  0
    6.8498   -0.5367   -1.6544 C   0  0  0  0  0  0  0  0  0  0  0  0
  1  2  1  0
  2  3  1  0
  3  4  2  0
  4  5  1  0
  5  6  2  0
  6  7  1  0
  7  8  2  0
  7  9  2  0
  7 10  1  0
 10 11  1  0
 11 12  1  0
 12 13  1  0
 13 14  1  0
 14 15  2  0
 15 16  1  0
 16 17  1  0
 17 18  1  0
 18 19  2  0
 19 20  1  0
 20 21  2  0
 21 22  1  0
 22 23  2  0
 16 24  1  0
 24 25  2  0
 25 26  1  0
 26 27  2  0
 27 28  1  0
 28 29  2  0
  6 30  1  0
 30 31  2  0
 31  3  1  0
 29 14  1  0
 23 18  1  0
 29 24  1  0
M  END
>  <zinc_id>  (1) 
ZINC000003765538

>  <smiles>  (1) 
COc1ccc(S(=O)(=O)NCCCc2cn(Cc3ccccc3)c3ccccc23)cc1

$$$$
