
     RDKit          3D

 31 33  0  0  0  0  0  0  0  0999 V2000
   -5.7635    2.4846    0.6521 C   0  0  0  0  0  0  0  0  0  0  0  0
   -7.1322    1.8793    0.3424 C   0  0  0  0  0  0  0  0  0  0  0  0
   -7.1431    0.4502    0.8998 C   0  0  0  0  0  0  0  0  0  0  0  0
   -8.4469   -0.2494    0.6412 C   0  0  0  0  0  0  0  0  0  0  0  0
   -6.8207    0.4729    2.4019 C   0  0  0  0  0  0  0  0  0  0  0  0
   -6.0146   -0.3078    0.2842 C   0  0  0  0  0  0  0  0  0  0  0  0
   -6.1405   -1.4702   -0.4184 C   0  0  0  0  0  0  0  0  0  0  0  0
   -5.0461   -2.1411   -0.9667 C   0  0  0  0  0  0  0  0  0  0  0  0
   -3.8134   -1.6284   -0.8012 C   0  0  0  0  0  0  0  0  0  0  0  0
   -2.6361   -2.2279   -1.3156 O   0  0  0  0  0  0  0  0  0  0  0  0
   -1.4528   -1.5793   -1.0042 C   0  0  0  0  0  0  0  0  0  0  0  0
   -0.7155   -1.9762    0.0695 C   0  0  0  0  0  0  0  0  0  0  0  0
    0.4547   -1.3197    0.4082 C   0  0  0  0  0  0  0  0  0  0  0  0
    0.9077   -0.2292   -0.3500 C   0  0  0  0  0  0  0  0  0  0  0  0
    2.0781    0.4757    0.0929 N   0  0  0  0  0  0  0  0  0  0  0  0
    3.0904   -0.0760    0.8857 C   0  0  0  0  0  0  0  0  0  0  0  0
    2.9275   -1.3179    1.1648 O   0  0  0  0  0  0  0  0  0  0  0  0
    4.2814    0.5549    1.4346 C   0  0  0  0  0  0  0  0  0  0  0  0
    5.5778    0.3351    0.8416 C   0  0  0  0  0  0  0  0  0  0  0  0
    6.3232   -0.7948    1.2204 C   0  0  0  0  0  0  0  0  0  0  0  0
    7.5342   -1.0165    0.6031 C   0  0  0  0  0  0  0  0  0  0  0  0
    8.0348   -0.1789   -0.3571 C   0  0  0  0  0  0  0  0  0  0  0  0
    7.3329    0.9161   -0.7371 C   0  0  0  0  0  0  0  0  0  0  0  0
    6.0849    1.1779   -0.1283 C   0  0  0  0  0  0  0  0  0  0  0  0
    5.3957    2.3691   -0.4742 N   0  0  0  0  0  4  0  0  0  0  0  0
    4.1633    2.5058   -0.5116 O   0  0  0  0  0  0  0  0  0  0  0  0
    6.1684    3.4984   -0.7974 O   0  0  0  0  0  1  0  0  0  0  0  0
    0.1566    0.1587   -1.4357 C   0  0  0  0  0  0  0  0  0  0  0  0
   -1.0073   -0.5078   -1.7580 C   0  0  0  0  0  0  0  0  0  0  0  0
   -3.6646   -0.4553   -0.0947 C   0  0  0  0  0  0  0  0  0  0  0  0
   -4.7143    0.1975    0.4385 C   0  0  0  0  0  0  0  0  0  0  0  0
  1  2  1  0
  2  3  1  0
  3  4  1  0
  3  5  1  0
  3  6  1  0
  6  7  2  0
  7  8  1  0
  8  9  2  0
  9 10  1  0
 10 11  1  0
 11 12  2  0
 12 13  1  0
 13 14  2  0
 14 15  1  0
 15 16  1  0
 16 17  2  0
 16 18  1  0
 18 19  1  0
 19 20  2  0
 20 21  1  0
 21 22  2  0
 22 23  1  0
 23 24  2  0
 24 25  1  0
 25 26  2  0
 25 27  1  0
 14 28  1  0
 28 29  2  0
  9 30  1  0
 30 31  2  0
 31  6  1  0
 29 11  1  0
 24 19  1  0
M  CHG  2  25   1  27  -1
M  END
>  <zinc_id>  (1) 
ZINC000003314294

>  <smiles>  (1) 
CCC(C)(C)c1ccc(Oc2ccc(NC(=O)Cc3ccccc3[N+](=O)[O-])cc2)cc1

$$$$
