
     RDKit          3D

 32 35  0  0  0  0  0  0  0  0999 V2000
    7.3969   -1.7493   -2.6528 C   0  0  0  0  0  0  0  0  0  0  0  0
    7.1668   -1.4877   -1.2849 O   0  0  0  0  0  0  0  0  0  0  0  0
    5.8782   -1.2011   -0.8665 C   0  0  0  0  0  0  0  0  0  0  0  0
    5.5906   -0.9366    0.4598 C   0  0  0  0  0  0  0  0  0  0  0  0
    4.2780   -0.6516    0.8440 C   0  0  0  0  0  0  0  0  0  0  0  0
    3.2506   -0.6246   -0.0615 C   0  0  0  0  0  0  0  0  0  0  0  0
    1.9488   -0.3373    0.3443 N   0  0  0  0  0  0  0  0  0  0  0  0
    1.0493   -1.2007    1.0081 C   0  0  0  0  0  0  0  0  0  0  0  0
    1.3118   -2.4090    1.3405 O   0  0  0  0  0  0  0  0  0  0  0  0
   -0.1850   -0.4961    1.2387 C   0  0  0  0  0  0  0  0  0  0  0  0
   -1.3399   -1.0218    1.8835 N   0  0  0  0  0  0  0  0  0  0  0  0
   -2.4731   -1.4613    1.1164 C   0  0  0  0  0  0  0  0  0  0  0  0
   -3.5976   -1.9673    1.7452 C   0  0  0  0  0  0  0  0  0  0  0  0
   -4.6794   -2.3859    0.9997 C   0  0  0  0  0  0  0  0  0  0  0  0
   -4.7067   -2.3276   -0.3771 C   0  0  0  0  0  0  0  0  0  0  0  0
   -5.8831   -2.7842   -1.1694 C   0  0  0  0  0  0  0  0  0  0  0  0
   -7.0672   -1.8685   -0.9807 C   0  0  0  0  0  0  0  0  0  0  0  0
   -6.2802   -4.1948   -0.7993 C   0  0  0  0  0  0  0  0  0  0  0  0
   -3.5901   -1.8246   -1.0098 C   0  0  0  0  0  0  0  0  0  0  0  0
   -2.4998   -1.4028   -0.2603 C   0  0  0  0  0  0  0  0  0  0  0  0
   -0.1095    0.7629    0.7553 C   0  0  0  0  0  0  0  0  0  0  0  0
   -1.4598    1.9017    0.8759 S   0  0  0  0  0  0  0  0  0  0  0  0
   -1.0852    3.4942    0.2121 C   0  0  0  0  0  0  0  0  0  0  0  0
    0.0914    3.8975   -0.3478 C   0  0  0  0  0  0  0  0  0  0  0  0
    0.3198    5.1550   -0.8453 C   0  0  0  0  0  0  0  0  0  0  0  0
   -0.6742    6.1402   -0.8096 C   0  0  0  0  0  0  0  0  0  0  0  0
   -1.8709    5.7527   -0.2475 C   0  0  0  0  0  0  0  0  0  0  0  0
   -2.0826    4.4921    0.2451 C   0  0  0  0  0  0  0  0  0  0  0  0
    1.2212    0.8883    0.1881 C   0  0  0  0  0  0  0  0  0  0  0  0
    1.7164    1.9052   -0.3727 O   0  0  0  0  0  0  0  0  0  0  0  0
    3.5275   -0.8858   -1.3787 C   0  0  0  0  0  0  0  0  0  0  0  0
    4.8369   -1.1713   -1.7693 C   0  0  0  0  0  0  0  0  0  0  0  0
  1  2  1  0
  2  3  1  0
  3  4  2  0
  4  5  1  0
  5  6  2  0
  6  7  1  0
  7  8  1  0
  8  9  2  0
  8 10  1  0
 10 11  1  0
 11 12  1  0
 12 13  2  0
 13 14  1  0
 14 15  2  0
 15 16  1  0
 16 17  1  0
 16 18  1  0
 15 19  1  0
 19 20  2  0
 10 21  2  0
 21 22  1  0
 22 23  1  0
 23 24  2  0
 24 25  1  0
 25 26  2  0
 26 27  1  0
 27 28  2  0
 21 29  1  0
 29 30  2  0
  6 31  1  0
 31 32  2  0
 32  3  1  0
 29  7  1  0
 20 12  1  0
 28 23  1  0
M  END
>  <zinc_id>  (1) 
ZINC000001954528

>  <smiles>  (1) 
COc1ccc(N2C(=O)C(Nc3ccc(C(C)C)cc3)=C(Sc3ccccc3)C2=O)cc1

$$$$
