
     RDKit          3D

 30 33  0  0  0  0  0  0  0  0999 V2000
    6.1054    0.6740    1.1346 C   0  0  0  0  0  0  0  0  0  0  0  0
    5.2429    1.1080   -0.0477 C   0  0  0  0  0  0  0  0  0  0  0  0
    5.3491   -0.2161   -1.0667 C   0  0  2  0  0  0  0  0  0  0  0  0
    4.3931    0.4837   -2.1768 C   0  0  0  0  0  0  0  0  0  0  0  0
    4.2364   -1.0965   -0.3439 C   0  0  0  0  0  0  0  0  0  0  0  0
    3.0050   -0.7102   -0.2378 O   0  0  0  0  0  0  0  0  0  0  0  0
    1.9904   -0.5337   -1.1270 C   0  0  0  0  0  0  0  0  0  0  0  0
    2.1921   -0.7886   -2.3302 O   0  0  0  0  0  0  0  0  0  0  0  0
    0.6474   -0.0441   -0.6967 C   0  0  0  0  0  0  0  0  0  0  0  0
   -0.4255    0.1544   -1.5627 C   0  0  0  0  0  0  0  0  0  0  0  0
   -0.4244   -0.0696   -2.9862 N   0  0  0  0  0  0  0  0  0  0  0  0
   -1.4108    0.5867   -0.7869 N   0  0  0  0  0  0  0  0  0  0  0  0
   -2.8444    0.9513   -1.2773 C   0  0  1  0  0  0  0  0  0  0  0  0
   -2.4100    1.5684   -2.7452 C   0  0  0  0  0  0  0  0  0  0  0  0
   -3.2489   -0.5082   -1.7893 C   0  0  0  0  0  0  0  0  0  0  0  0
   -3.0716   -0.9386   -3.0186 C   0  0  0  0  0  0  0  0  0  0  0  0
   -3.4360   -2.1958   -3.3996 C   0  0  0  0  0  0  0  0  0  0  0  0
   -3.9968   -3.0268   -2.4882 C   0  0  0  0  0  0  0  0  0  0  0  0
   -4.1931   -2.6069   -1.2041 C   0  0  0  0  0  0  0  0  0  0  0  0
   -3.8161   -1.3267   -0.8375 C   0  0  0  0  0  0  0  0  0  0  0  0
   -1.0468    0.6773    0.4976 C   0  0  0  0  0  0  0  0  0  0  0  0
   -1.6551    1.0522    1.6534 N   0  0  0  0  0  0  0  0  0  0  0  0
   -1.0402    1.0495    2.8462 C   0  0  0  0  0  0  0  0  0  0  0  0
   -1.6907    1.4388    4.0094 C   0  0  0  0  0  0  0  0  0  0  0  0
   -1.0720    1.4403    5.2360 C   0  0  0  0  0  0  0  0  0  0  0  0
    0.2538    1.0370    5.3131 C   0  0  0  0  0  0  0  0  0  0  0  0
    0.9076    0.6462    4.1472 C   0  0  0  0  0  0  0  0  0  0  0  0
    0.2762    0.6487    2.9206 C   0  0  0  0  0  0  0  0  0  0  0  0
    0.9056    0.2691    1.7770 N   0  0  0  0  0  0  0  0  0  0  0  0
    0.2774    0.2765    0.5875 C   0  0  0  0  0  0  0  0  0  0  0  0
  1  2  1  0
  2  3  1  0
  3  4  1  6
  3  5  1  0
  5  6  1  0
  6  7  1  0
  7  8  2  0
  7  9  1  0
  9 10  2  0
 10 11  1  0
 10 12  1  0
 12 13  1  0
 13 14  1  6
 13 15  1  0
 15 16  2  0
 16 17  1  0
 17 18  2  0
 18 19  1  0
 19 20  2  0
 12 21  1  0
 21 22  2  0
 22 23  1  0
 23 24  2  0
 24 25  1  0
 25 26  2  0
 26 27  1  0
 27 28  2  0
 28 29  1  0
 29 30  2  0
 30  9  1  0
 20 15  1  0
 30 21  1  0
 28 23  1  0
M  END
>  <zinc_id>  (1) 
ZINC000002220860

>  <smiles>  (1) 
CC[C@H](C)COC(=O)c1c(N)n([C@@H](C)c2ccccc2)c2nc3ccccc3nc12

$$$$
