
     RDKit          3D

 31 33  0  0  0  0  0  0  0  0999 V2000
    6.6970    2.2601    0.7338 C   0  0  0  0  0  0  0  0  0  0  0  0
    5.5317    1.4881    0.5329 O   0  0  0  0  0  0  0  0  0  0  0  0
    5.6565    0.1455    0.2030 C   0  0  0  0  0  0  0  0  0  0  0  0
    6.8782   -0.4867    0.0629 C   0  0  0  0  0  0  0  0  0  0  0  0
    6.9913   -1.8025   -0.2602 C   0  0  0  0  0  0  0  0  0  0  0  0
    5.8280   -2.5157   -0.4518 C   0  0  0  0  0  0  0  0  0  0  0  0
    4.5875   -1.9359   -0.3250 C   0  0  0  0  0  0  0  0  0  0  0  0
    4.4908   -0.5824    0.0080 C   0  0  0  0  0  0  0  0  0  0  0  0
    3.1521   -0.0091    0.1410 C   0  0  0  0  0  0  0  0  0  0  0  0
    2.7352    0.8870   -1.0087 C   0  0  0  0  0  0  0  0  0  0  0  0
    1.3711    1.3409   -0.6812 N   0  0  0  0  0  0  0  0  0  0  0  0
    0.3258    0.4211   -0.5176 C   0  0  0  0  0  0  0  0  0  0  0  0
    0.6627   -0.8034   -0.6769 O   0  0  0  0  0  0  0  0  0  0  0  0
   -1.0408    0.6965   -0.1982 C   0  0  0  0  0  0  0  0  0  0  0  0
   -1.4834    1.8940   -0.0045 C   0  0  0  0  0  0  0  0  0  0  0  0
   -0.6894    3.0820   -0.0755 C   0  0  0  0  0  0  0  0  0  0  0  0
   -1.0788    4.1803   -0.8078 C   0  0  0  0  0  0  0  0  0  0  0  0
   -0.3069    5.2523   -0.7835 C   0  0  0  0  0  0  0  0  0  0  0  0
    0.8341    5.2139   -0.0341 C   0  0  0  0  0  0  0  0  0  0  0  0
    0.7651    3.6379    0.6141 S   0  0  0  0  0  0  0  0  0  0  0  0
   -1.9457   -0.4511   -0.0927 N   0  0  0  0  0  0  0  0  0  0  0  0
   -3.3072   -0.1727    0.2509 C   0  0  0  0  0  0  0  0  0  0  0  0
   -3.6947    1.0086    0.4522 O   0  0  0  0  0  0  0  0  0  0  0  0
   -4.2955   -1.2297    0.3841 C   0  0  0  0  0  0  0  0  0  0  0  0
   -5.4794   -1.0425    1.0423 C   0  0  0  0  0  0  0  0  0  0  0  0
   -6.4106   -2.0613    1.1566 C   0  0  0  0  0  0  0  0  0  0  0  0
   -6.1266   -3.2838    0.5925 C   0  0  0  0  0  0  0  0  0  0  0  0
   -7.1073   -4.4087    0.6994 C   0  0  0  0  0  0  0  0  0  0  0  0
   -4.9285   -3.4860   -0.0783 C   0  0  0  0  0  0  0  0  0  0  0  0
   -4.5827   -4.7864   -0.7064 C   0  0  0  0  0  0  0  0  0  0  0  0
   -4.0297   -2.4501   -0.1714 C   0  0  0  0  0  0  0  0  0  0  0  0
  1  2  1  0
  2  3  1  0
  3  4  2  0
  4  5  1  0
  5  6  2  0
  6  7  1  0
  7  8  2  0
  8  9  1  0
  9 10  1  0
 10 11  1  0
 11 12  1  0
 12 13  2  0
 12 14  1  0
 14 15  2  0
 15 16  1  0
 16 17  2  0
 17 18  1  0
 18 19  2  0
 19 20  1  0
 14 21  1  0
 21 22  1  0
 22 23  2  0
 22 24  1  0
 24 25  2  0
 25 26  1  0
 26 27  2  0
 27 28  1  0
 27 29  1  0
 29 30  1  0
 29 31  2  0
  8  3  1  0
 20 16  1  0
 31 24  1  0
M  END
>  <zinc_id>  (1) 
ZINC000002152286

>  <smiles>  (1) 
COc1ccccc1CCNC(=O)/C(=C\c1cccs1)NC(=O)c1ccc(C)c(C)c1

$$$$
