
     RDKit          3D

 29 31  0  0  0  0  0  0  0  0999 V2000
   -5.1792   -0.3998   -3.7283 C   0  0  0  0  0  0  0  0  0  0  0  0
   -3.7275   -0.1035   -3.4132 C   0  0  0  0  0  0  0  0  0  0  0  0
   -3.6028   -0.1774   -1.9962 O   0  0  0  0  0  0  0  0  0  0  0  0
   -2.3722    0.0527   -1.4222 C   0  0  0  0  0  0  0  0  0  0  0  0
   -1.4342    0.3169   -2.2169 O   0  0  0  0  0  0  0  0  0  0  0  0
   -2.1379   -0.0044    0.0584 C   0  0  0  0  0  0  0  0  0  0  0  0
   -3.1062   -0.2862    0.9619 C   0  0  0  0  0  0  0  0  0  0  0  0
   -4.5558   -0.5340    0.6592 C   0  0  0  0  0  0  0  0  0  0  0  0
   -5.3044    0.3382   -0.0704 C   0  0  0  0  0  0  0  0  0  0  0  0
   -6.6565    0.0999   -0.3422 C   0  0  0  0  0  0  0  0  0  0  0  0
   -7.2523   -1.0506    0.1410 C   0  0  0  0  0  0  0  0  0  0  0  0
   -6.4935   -1.9314    0.8791 C   0  0  0  0  0  0  0  0  0  0  0  0
   -5.1689   -1.6725    1.1307 C   0  0  0  0  0  0  0  0  0  0  0  0
   -2.7157   -0.3125    2.2838 C   0  0  0  0  0  0  0  0  0  0  0  0
   -1.0697    0.0449    2.2366 S   0  0  0  0  0  0  0  0  0  0  0  0
   -0.8756    0.2254    0.5597 C   0  0  0  0  0  0  0  0  0  0  0  0
    0.3221    0.5448   -0.1993 N   0  0  0  0  0  0  0  0  0  0  0  0
    1.5198    0.7466    0.5458 C   0  0  0  0  0  0  0  0  0  0  0  0
    1.4442    0.6333    1.7944 O   0  0  0  0  0  0  0  0  0  0  0  0
    2.8110    1.0746   -0.0699 C   0  0  0  0  0  0  0  0  0  0  0  0
    3.8064    1.2135    0.9724 N   0  0  0  0  0  0  0  0  0  0  0  0
    4.0302   -0.0943    1.5580 C   0  0  0  0  0  0  0  0  0  0  0  0
    4.7164   -0.9510    0.5132 C   0  0  0  0  0  0  0  0  0  0  0  0
    6.0058   -0.2657    0.1863 C   0  0  0  0  0  0  0  0  0  0  0  0
    7.1590   -0.5621    0.9003 C   0  0  0  0  0  0  0  0  0  0  0  0
    8.3100    0.0839    0.5729 C   0  0  0  0  0  0  0  0  0  0  0  0
    8.3271    1.0077   -0.4421 C   0  0  0  0  0  0  0  0  0  0  0  0
    7.1750    1.3063   -1.1582 C   0  0  0  0  0  0  0  0  0  0  0  0
    6.0252    0.6569   -0.8265 C   0  0  0  0  0  0  0  0  0  0  0  0
  1  2  1  0
  2  3  1  0
  3  4  1  0
  4  5  2  0
  4  6  1  0
  6  7  1  0
  7  8  1  0
  8  9  2  0
  9 10  1  0
 10 11  2  0
 11 12  1  0
 12 13  2  0
  7 14  2  0
 14 15  1  0
 15 16  1  0
 16 17  1  0
 17 18  1  0
 18 19  2  0
 18 20  1  0
 20 21  1  0
 21 22  1  0
 22 23  1  0
 23 24  1  0
 24 25  2  0
 25 26  1  0
 26 27  2  0
 27 28  1  0
 28 29  2  0
 16  6  2  0
 29 24  1  0
 13  8  1  0
M  END
>  <zinc_id>  (1) 
ZINC000001930826

>  <smiles>  (1) 
CCOC(=O)c1c(-c2ccccc2)csc1NC(=O)CNCCc1ccccc1

$$$$
