
     RDKit          3D

 32 35  0  0  0  0  0  0  0  0999 V2000
   -8.7589    0.9174    0.2104 C   0  0  0  0  0  0  0  0  0  0  0  0
   -8.6298   -0.0112    1.4340 C   0  0  0  0  0  0  0  0  0  0  0  0
   -7.3986    0.3013    2.1106 O   0  0  0  0  0  0  0  0  0  0  0  0
   -6.1838    0.1699    1.4748 C   0  0  0  0  0  0  0  0  0  0  0  0
   -4.9769    0.4574    2.0650 C   0  0  0  0  0  0  0  0  0  0  0  0
   -3.7629    0.3333    1.4478 C   0  0  0  0  0  0  0  0  0  0  0  0
   -3.6853   -0.1136    0.1173 C   0  0  0  0  0  0  0  0  0  0  0  0
   -2.3920   -0.2587   -0.5320 C   0  0  0  0  0  0  0  0  0  0  0  0
   -1.2179    0.0807    0.1296 C   0  0  0  0  0  0  0  0  0  0  0  0
   -0.0017   -0.0935   -0.4821 C   0  0  0  0  0  0  0  0  0  0  0  0
    1.2521    0.1815    0.2140 C   0  0  0  0  0  0  0  0  0  0  0  0
    1.5414    1.3993    0.4385 O   0  0  0  0  0  0  0  0  0  0  0  0
    2.1394   -0.8133    0.6504 N   0  0  0  0  0  0  0  0  0  0  0  0
    3.3694   -0.5327    1.3312 C   0  0  0  0  0  0  0  0  0  0  0  0
    4.3419    0.0513    0.3688 C   0  0  0  0  0  0  0  0  0  0  0  0
    4.0424    0.1505   -0.9912 C   0  0  0  0  0  0  0  0  0  0  0  0
    5.0017    0.6330   -1.8836 C   0  0  0  0  0  0  0  0  0  0  0  0
    6.2296    1.0012   -1.4009 C   0  0  0  0  0  0  0  0  0  0  0  0
    6.5218    0.9002   -0.0376 C   0  0  0  0  0  0  0  0  0  0  0  0
    5.5783    0.4262    0.8467 C   0  0  0  0  0  0  0  0  0  0  0  0
    5.7924    0.3034    2.2029 O   0  0  0  0  0  0  0  0  0  0  0  0
    6.9514    0.6131    2.9043 C   0  0  0  0  0  0  0  0  0  0  0  0
    7.3750    2.0706    2.7836 C   0  0  0  0  0  0  0  0  0  0  0  0
    0.0164   -0.6070   -1.7603 C   0  0  0  0  0  0  0  0  0  0  0  0
    1.1868   -0.7972   -2.4522 C   0  0  0  0  0  0  0  0  0  0  0  0
    1.2079   -1.3017   -3.7477 C   0  0  0  0  0  0  0  0  0  0  0  0
    0.0480   -1.6327   -4.3950 C   0  0  0  0  0  0  0  0  0  0  0  0
   -1.1280   -1.4504   -3.7217 C   0  0  0  0  0  0  0  0  0  0  0  0
   -1.1728   -0.9446   -2.4183 C   0  0  0  0  0  0  0  0  0  0  0  0
   -2.3147   -0.7526   -1.7701 N   0  0  0  0  0  0  0  0  0  0  0  0
   -4.8759   -0.4055   -0.4883 C   0  0  0  0  0  0  0  0  0  0  0  0
   -6.0968   -0.2757    0.1492 C   0  0  0  0  0  0  0  0  0  0  0  0
  1  2  1  0
  2  3  1  0
  3  4  1  0
  4  5  2  0
  5  6  1  0
  6  7  2  0
  7  8  1  0
  8  9  2  0
  9 10  1  0
 10 11  1  0
 11 12  2  0
 11 13  1  0
 13 14  1  0
 14 15  1  0
 15 16  2  0
 16 17  1  0
 17 18  2  0
 18 19  1  0
 19 20  2  0
 20 21  1  0
 21 22  1  0
 22 23  1  0
 10 24  2  0
 24 25  1  0
 25 26  2  0
 26 27  1  0
 27 28  2  0
 28 29  1  0
 29 30  2  0
  7 31  1  0
 31 32  2  0
 32  4  1  0
 30  8  1  0
 20 15  1  0
 29 24  1  0
M  END
>  <zinc_id>  (1) 
ZINC000003044938

>  <smiles>  (1) 
CCOc1ccc(-c2cc(C(=O)NCc3ccccc3OCC)c3ccccc3n2)cc1

$$$$
