
     RDKit          3D

 31 33  0  0  0  0  0  0  0  0999 V2000
    3.7780    4.0444    0.8918 C   0  0  0  0  0  0  0  0  0  0  0  0
    2.9640    3.9355   -0.3820 C   0  0  0  0  0  0  0  0  0  0  0  0
    2.1480    2.7654   -0.2749 O   0  0  0  0  0  0  0  0  0  0  0  0
    2.7801    1.5476   -0.1133 C   0  0  0  0  0  0  0  0  0  0  0  0
    4.0414    1.5173   -0.0664 O   0  0  0  0  0  0  0  0  0  0  0  0
    2.0727    0.3214    0.0027 N   0  0  0  0  0  0  0  0  0  0  0  0
    0.6903    0.2204   -0.0353 N   0  0  0  0  0  0  0  0  0  0  0  0
   -0.1856    1.0590    0.6869 C   0  0  0  0  0  0  0  0  0  0  0  0
    0.2679    1.9634    1.4188 O   0  0  0  0  0  0  0  0  0  0  0  0
   -1.6369    0.8648    0.5756 C   0  0  0  0  0  0  0  0  0  0  0  0
   -2.2761    1.8107    1.3948 O   0  0  0  0  0  0  0  0  0  0  0  0
   -2.1116    0.9757   -0.8313 C   0  0  0  0  0  0  0  0  0  0  0  0
   -3.4496    0.8514   -1.1408 C   0  0  0  0  0  0  0  0  0  0  0  0
   -3.8851    0.9634   -2.4668 C   0  0  0  0  0  0  0  0  0  0  0  0
   -3.0059    1.1986   -3.4991 C   0  0  0  0  0  0  0  0  0  0  0  0
   -3.4919    1.3167   -4.9138 C   0  0  0  0  0  0  0  0  0  0  0  0
   -1.6687    1.3221   -3.1848 C   0  0  0  0  0  0  0  0  0  0  0  0
   -1.2387    1.2092   -1.8584 C   0  0  0  0  0  0  0  0  0  0  0  0
   -1.9619   -0.5122    1.0792 C   0  0  0  0  0  0  0  0  0  0  0  0
   -3.2759   -0.9124    1.1659 C   0  0  0  0  0  0  0  0  0  0  0  0
   -3.5888   -2.1959    1.6362 C   0  0  0  0  0  0  0  0  0  0  0  0
   -2.6076   -3.0823    2.0205 C   0  0  0  0  0  0  0  0  0  0  0  0
   -2.9138   -4.4494    2.5237 C   0  0  0  0  0  0  0  0  0  0  0  0
   -1.2994   -2.6771    1.9319 C   0  0  0  0  0  0  0  0  0  0  0  0
   -0.9876   -1.4047    1.4654 C   0  0  0  0  0  0  0  0  0  0  0  0
    2.7859   -0.9185    0.1723 C   0  0  0  0  0  0  0  0  0  0  0  0
    2.5876   -1.7015    1.2785 C   0  0  0  0  0  0  0  0  0  0  0  0
    3.2662   -2.8813    1.4388 C   0  0  0  0  0  0  0  0  0  0  0  0
    4.1620   -3.3081    0.4944 C   0  0  0  0  0  0  0  0  0  0  0  0
    4.3577   -2.5117   -0.6220 C   0  0  0  0  0  0  0  0  0  0  0  0
    3.6833   -1.3321   -0.7883 C   0  0  0  0  0  0  0  0  0  0  0  0
  1  2  1  0
  2  3  1  0
  3  4  1  0
  4  5  2  0
  4  6  1  0
  6  7  1  0
  7  8  1  0
  8  9  2  0
  8 10  1  0
 10 11  1  0
 10 12  1  0
 12 13  2  0
 13 14  1  0
 14 15  2  0
 15 16  1  0
 15 17  1  0
 17 18  2  0
 10 19  1  0
 19 20  2  0
 20 21  1  0
 21 22  2  0
 22 23  1  0
 22 24  1  0
 24 25  2  0
  6 26  1  0
 26 27  2  0
 27 28  1  0
 28 29  2  0
 29 30  1  0
 30 31  2  0
 18 12  1  0
 25 19  1  0
 31 26  1  0
M  END
>  <zinc_id>  (1) 
ZINC000003764944

>  <smiles>  (1) 
CCOC(=O)N(NC(=O)C(O)(c1ccc(C)cc1)c1ccc(C)cc1)c1ccccc1

$$$$
