
     RDKit          3D

 31 34  0  0  0  0  0  0  0  0999 V2000
   -3.8798   -4.2063    1.1619 C   0  0  0  0  0  0  0  0  0  0  0  0
   -3.8020   -3.3723   -0.0671 C   0  0  0  0  0  0  0  0  0  0  0  0
   -4.8178   -3.4423   -0.9921 C   0  0  0  0  0  0  0  0  0  0  0  0
   -4.8155   -2.7057   -2.1453 C   0  0  0  0  0  0  0  0  0  0  0  0
   -3.7784   -1.8573   -2.4196 C   0  0  0  0  0  0  0  0  0  0  0  0
   -3.7015   -1.0272   -3.6433 C   0  0  0  0  0  0  0  0  0  0  0  0
   -2.7360   -1.7724   -1.4907 C   0  0  0  0  0  0  0  0  0  0  0  0
   -1.6470   -0.8797   -1.7816 N   0  0  0  0  0  0  0  0  0  0  0  0
   -0.5859   -0.7839   -0.8508 C   0  0  0  0  0  0  0  0  0  0  0  0
   -0.2823    0.2807   -0.0783 C   0  0  0  0  0  0  0  0  0  0  0  0
   -1.2215    1.7606   -0.1385 S   0  0  0  0  0  0  0  0  0  0  0  0
   -0.7038    3.0543    0.9244 C   0  0  0  0  0  0  0  0  0  0  0  0
   -1.4633    4.2348    0.8677 C   0  0  0  0  0  0  0  0  0  0  0  0
   -1.1688    5.3182    1.6420 C   0  0  0  0  0  0  0  0  0  0  0  0
   -0.1061    5.2836    2.5107 C   0  0  0  0  0  0  0  0  0  0  0  0
    0.6321    4.1216    2.5585 C   0  0  0  0  0  0  0  0  0  0  0  0
    0.3403    3.0348    1.7850 C   0  0  0  0  0  0  0  0  0  0  0  0
    0.8761   -0.0367    0.7320 C   0  0  0  0  0  0  0  0  0  0  0  0
    1.4756    0.6478    1.5663 O   0  0  0  0  0  0  0  0  0  0  0  0
    1.2852   -1.3830    0.4154 N   0  0  0  0  0  0  0  0  0  0  0  0
    2.3928   -2.1170    0.9737 C   0  0  0  0  0  0  0  0  0  0  0  0
    3.6398   -1.9105    0.1560 C   0  0  0  0  0  0  0  0  0  0  0  0
    4.0041   -0.4893    0.1122 C   0  0  0  0  0  0  0  0  0  0  0  0
    4.8151    0.0643    1.0571 C   0  0  0  0  0  0  0  0  0  0  0  0
    5.1666    1.3972    1.0195 C   0  0  0  0  0  0  0  0  0  0  0  0
    4.6849    2.1837    0.0016 C   0  0  0  0  0  0  0  0  0  0  0  0
    3.8651    1.6352   -0.9582 C   0  0  0  0  0  0  0  0  0  0  0  0
    3.5215    0.3049   -0.9100 C   0  0  0  0  0  0  0  0  0  0  0  0
    0.3690   -1.8345   -0.5681 C   0  0  0  0  0  0  0  0  0  0  0  0
    0.3913   -2.9827   -1.1098 O   0  0  0  0  0  0  0  0  0  0  0  0
   -2.7498   -2.5209   -0.3306 C   0  0  0  0  0  0  0  0  0  0  0  0
  1  2  1  0
  2  3  2  0
  3  4  1  0
  4  5  2  0
  5  6  1  0
  5  7  1  0
  7  8  1  0
  8  9  1  0
  9 10  2  0
 10 11  1  0
 11 12  1  0
 12 13  2  0
 13 14  1  0
 14 15  2  0
 15 16  1  0
 16 17  2  0
 10 18  1  0
 18 19  2  0
 18 20  1  0
 20 21  1  0
 21 22  1  0
 22 23  1  0
 23 24  2  0
 24 25  1  0
 25 26  2  0
 26 27  1  0
 27 28  2  0
 20 29  1  0
 29 30  2  0
  7 31  2  0
 31  2  1  0
 29  9  1  0
 17 12  1  0
 28 23  1  0
M  END
>  <zinc_id>  (1) 
ZINC000001932113

>  <smiles>  (1) 
Cc1ccc(C)c(NC2=C(Sc3ccccc3)C(=O)N(CCc3ccccc3)C2=O)c1

$$$$
