
     RDKit          3D

 31 35  0  0  0  0  0  0  0  0999 V2000
   -7.9562    1.5943   -0.4760 C   0  0  0  0  0  0  0  0  0  0  0  0
   -6.6889    1.1016   -0.0903 O   0  0  0  0  0  0  0  0  0  0  0  0
   -6.6071   -0.1945    0.4093 C   0  0  0  0  0  0  0  0  0  0  0  0
   -7.7200   -0.9984    0.5348 C   0  0  0  0  0  0  0  0  0  0  0  0
   -7.6746   -2.2846    1.0250 C   0  0  0  0  0  0  0  0  0  0  0  0
   -6.4371   -2.7860    1.4092 C   0  0  0  0  0  0  0  0  0  0  0  0
   -5.3338   -2.0007    1.2892 C   0  0  0  0  0  0  0  0  0  0  0  0
   -5.3639   -0.7000    0.7960 C   0  0  0  0  0  0  0  0  0  0  0  0
   -4.2127    0.0996    0.6782 N   0  0  0  0  0  0  0  0  0  0  0  0
   -4.1331    1.3436    1.3877 C   0  0  0  0  0  0  0  0  0  0  0  0
   -3.3853    2.4172    0.6747 C   0  0  0  0  0  0  0  0  0  0  0  0
   -2.3498    1.9355   -0.2030 N   0  0  0  0  0  0  0  0  0  0  0  0
   -1.2639    1.4337    0.5955 C   0  0  0  0  0  0  0  0  0  0  0  0
   -0.1223    0.9029   -0.1940 C   0  0  0  0  0  0  0  0  0  0  0  0
    0.5079    1.9332   -1.1018 C   0  0  0  0  0  0  0  0  0  0  0  0
    1.5750    1.4341   -1.8388 O   0  0  0  0  0  0  0  0  0  0  0  0
    2.6914    0.9163   -1.2193 C   0  0  0  0  0  0  0  0  0  0  0  0
    2.7410    0.8974    0.1551 C   0  0  0  0  0  0  0  0  0  0  0  0
    3.8310    0.3920    0.8331 C   0  0  0  0  0  0  0  0  0  0  0  0
    4.9243   -0.1190    0.1596 C   0  0  0  0  0  0  0  0  0  0  0  0
    4.8675   -0.0968   -1.2178 C   0  0  0  0  0  0  0  0  0  0  0  0
    3.7740    0.4102   -1.9045 C   0  0  0  0  0  0  0  0  0  0  0  0
    6.0415   -0.6447   -1.6288 N   0  0  0  0  0  0  0  0  0  0  0  0
    6.8051   -0.9970   -0.5860 C   0  0  0  0  0  0  0  0  0  0  0  0
    8.0603   -1.5810   -0.4542 C   0  0  0  0  0  0  0  0  0  0  0  0
    8.6047   -1.8306    0.7880 C   0  0  0  0  0  0  0  0  0  0  0  0
    7.9307   -1.5133    1.9487 C   0  0  0  0  0  0  0  0  0  0  0  0
    6.6753   -0.9292    1.8108 C   0  0  0  0  0  0  0  0  0  0  0  0
    6.1271   -0.6778    0.5704 C   0  0  0  0  0  0  0  0  0  0  0  0
   -2.7914    0.8627   -1.0686 C   0  0  0  0  0  0  0  0  0  0  0  0
   -3.1167   -0.3207   -0.1473 C   0  0  0  0  0  0  0  0  0  0  0  0
  1  2  1  0
  2  3  1  0
  3  4  2  0
  4  5  1  0
  5  6  2  0
  6  7  1  0
  7  8  2  0
  8  9  1  0
  9 10  1  0
 10 11  1  0
 11 12  1  0
 12 13  1  0
 13 14  1  0
 14 15  1  0
 15 16  1  0
 16 17  1  0
 17 18  2  0
 18 19  1  0
 19 20  2  0
 20 21  1  0
 21 22  2  0
 21 23  1  0
 23 24  1  0
 24 25  2  0
 25 26  1  0
 26 27  2  0
 27 28  1  0
 28 29  2  0
 12 30  1  0
 30 31  1  0
  8  3  1  0
 31  9  1  0
 22 17  1  0
 29 24  1  0
 29 20  1  0
M  END
>  <zinc_id>  (1) 
ZINC000003809371

>  <smiles>  (1) 
COc1ccccc1N1CCN(CCCOc2ccc3c(c2)[nH]c2ccccc23)CC1

$$$$
