
     RDKit          3D

 33 36  0  0  0  0  0  0  0  0999 V2000
    2.8597    2.9063   -2.4580 C   0  0  0  0  0  0  0  0  0  0  0  0
    3.5875    2.1028   -1.4401 C   0  0  0  0  0  0  0  0  0  0  0  0
    3.4192    0.6639   -1.5860 C   0  0  2  0  0  0  0  0  0  0  0  0
    1.9763    0.3730   -1.5396 O   0  0  0  0  0  0  0  0  0  0  0  0
    1.4370   -0.1675   -0.3504 C   0  0  0  0  0  0  0  0  0  0  0  0
    2.2212   -0.2493    0.6064 O   0  0  0  0  0  0  0  0  0  0  0  0
    0.0644   -0.6058   -0.2160 C   0  0  0  0  0  0  0  0  0  0  0  0
   -1.0511    0.2746   -0.2125 C   0  0  0  0  0  0  0  0  0  0  0  0
   -2.3419   -0.1323   -0.0847 C   0  0  0  0  0  0  0  0  0  0  0  0
   -3.4803    0.7828   -0.1041 C   0  0  0  0  0  0  0  0  0  0  0  0
   -4.6083    0.4753   -0.8445 C   0  0  0  0  0  0  0  0  0  0  0  0
   -5.7895    1.1661   -0.6818 C   0  0  0  0  0  0  0  0  0  0  0  0
   -5.9604    2.2166    0.2236 C   0  0  0  0  0  0  0  0  0  0  0  0
   -7.2689    2.9309    0.3585 C   0  0  0  0  0  0  0  0  0  0  0  0
   -7.8302    2.9432    1.7734 C   0  0  0  0  0  0  0  0  0  0  0  0
   -8.2774    2.0934   -0.4172 C   0  0  0  0  0  0  0  0  0  0  0  0
   -4.8339    2.5181    0.9528 C   0  0  0  0  0  0  0  0  0  0  0  0
   -3.6229    1.8182    0.7916 C   0  0  0  0  0  0  0  0  0  0  0  0
   -2.5786   -1.4757    0.0461 N   0  0  0  0  0  0  0  0  0  0  0  0
   -1.5315   -2.3731    0.0549 C   0  0  0  0  0  0  0  0  0  0  0  0
   -1.8368   -3.7271    0.2246 C   0  0  0  0  0  0  0  0  0  0  0  0
   -0.7963   -4.6245    0.2699 C   0  0  0  0  0  0  0  0  0  0  0  0
    0.4736   -4.1657    0.1451 C   0  0  0  0  0  0  0  0  0  0  0  0
    0.7995   -2.8113   -0.0271 C   0  0  0  0  0  0  0  0  0  0  0  0
   -0.3041   -1.9155   -0.0661 C   0  0  0  0  0  0  0  0  0  0  0  0
    4.0691   -0.3157   -0.6677 C   0  0  0  0  0  0  0  0  0  0  0  0
    3.5398   -1.4778   -0.7400 O   0  0  0  0  0  0  0  0  0  0  0  0
    5.1691   -0.0385    0.1848 C   0  0  0  0  0  0  0  0  0  0  0  0
    5.7206    1.1516    0.3297 C   0  0  0  0  0  0  0  0  0  0  0  0
    6.8370    1.3836    1.1371 C   0  0  0  0  0  0  0  0  0  0  0  0
    7.4071    0.3006    1.8278 C   0  0  0  0  0  0  0  0  0  0  0  0
    6.8075   -0.8879    1.6452 C   0  0  0  0  0  0  0  0  0  0  0  0
    5.7234   -1.1332    0.8645 C   0  0  0  0  0  0  0  0  0  0  0  0
  1  2  1  0
  3  2  1  1
  3  4  1  0
  4  5  1  0
  5  6  2  0
  5  7  1  0
  7  8  2  0
  8  9  1  0
  9 10  1  0
 10 11  2  0
 11 12  1  0
 12 13  2  0
 13 14  1  0
 14 15  1  0
 14 16  1  0
 13 17  1  0
 17 18  2  0
  9 19  2  0
 19 20  1  0
 20 21  2  0
 21 22  1  0
 22 23  2  0
 23 24  1  0
 24 25  2  0
  3 26  1  0
 26 27  2  0
 26 28  1  0
 28 29  2  0
 29 30  1  0
 30 31  2  0
 31 32  1  0
 32 33  2  0
 25  7  1  0
 33 28  1  0
 18 10  1  0
 25 20  1  0
M  END
>  <zinc_id>  (1) 
ZINC000002079448

>  <smiles>  (1) 
CC[C@H](OC(=O)c1cc(-c2ccc(C(C)C)cc2)nc2ccccc12)C(=O)c1ccccc1

$$$$
