
     RDKit          3D

 31 34  0  0  0  0  0  0  0  0999 V2000
    1.4393   -2.2942    4.9593 C   0  0  0  0  0  0  0  0  0  0  0  0
    1.1320   -1.3302    3.8367 C   0  0  0  0  0  0  0  0  0  0  0  0
    1.6986   -0.0820    3.8268 C   0  0  0  0  0  0  0  0  0  0  0  0
    1.4362    0.8508    2.8111 C   0  0  0  0  0  0  0  0  0  0  0  0
    0.5769    0.4738    1.7937 C   0  0  0  0  0  0  0  0  0  0  0  0
    0.0023   -0.7627    1.7809 C   0  0  0  0  0  0  0  0  0  0  0  0
    0.2824   -1.6816    2.8141 C   0  0  0  0  0  0  0  0  0  0  0  0
   -0.7732   -0.7493    0.6502 C   0  0  0  0  0  0  0  0  0  0  0  0
   -1.6305   -1.8444    0.2306 C   0  0  0  0  0  0  0  0  0  0  0  0
   -1.5034   -2.4124   -1.0030 C   0  0  0  0  0  0  0  0  0  0  0  0
   -2.2947   -3.4519   -1.4477 C   0  0  0  0  0  0  0  0  0  0  0  0
   -3.2807   -3.9678   -0.6198 C   0  0  0  0  0  0  0  0  0  0  0  0
   -3.4221   -3.4127    0.6187 C   0  0  0  0  0  0  0  0  0  0  0  0
   -2.6331   -2.3794    1.0580 C   0  0  0  0  0  0  0  0  0  0  0  0
   -0.6955    0.4497   -0.0317 C   0  0  0  0  0  0  0  0  0  0  0  0
   -1.4665    0.8538   -1.2097 C   0  0  0  0  0  0  0  0  0  0  0  0
   -2.8423    1.1380   -0.9975 C   0  0  0  0  0  0  0  0  0  0  0  0
   -3.6797    1.5564   -1.9736 C   0  0  0  0  0  0  0  0  0  0  0  0
   -3.2357    1.7336   -3.2546 C   0  0  0  0  0  0  0  0  0  0  0  0
   -1.8781    1.4641   -3.5099 C   0  0  0  0  0  0  0  0  0  0  0  0
   -1.0721    1.0383   -2.4760 C   0  0  0  0  0  0  0  0  0  0  0  0
    0.1659    1.2152    0.7075 N   0  0  0  0  0  0  0  0  0  0  0  0
    0.5578    2.5260    0.3621 C   0  0  0  0  0  0  0  0  0  0  0  0
    2.0539    2.5788   -0.1491 C   0  0  2  0  0  0  0  0  0  0  0  0
    1.9514    4.0986   -0.4093 O   0  0  0  0  0  0  0  0  0  0  0  0
    1.8669    2.1827   -1.6695 C   0  0  0  0  0  0  0  0  0  0  0  0
    2.0614    0.7174   -1.7376 N   0  0  0  0  0  0  0  0  0  0  0  0
    3.4519    0.4253   -1.3668 C   0  0  0  0  0  0  0  0  0  0  0  0
    3.3817   -0.4997   -0.1754 C   0  0  0  0  0  0  0  0  0  0  0  0
    4.2151   -0.1931   -2.4762 C   0  0  0  0  0  0  0  0  0  0  0  0
    4.1340    1.7587   -0.9424 C   0  0  0  0  0  0  0  0  0  0  0  0
  1  2  1  0
  2  3  2  0
  3  4  1  0
  4  5  2  0
  5  6  1  0
  6  7  2  0
  6  8  1  0
  8  9  1  0
  9 10  2  0
 10 11  1  0
 11 12  2  0
 12 13  1  0
 13 14  2  0
  8 15  2  0
 15 16  1  0
 16 17  2  0
 17 18  1  0
 18 19  2  0
 19 20  1  0
 20 21  2  0
 15 22  1  0
 22 23  1  0
 23 24  1  0
 24 25  1  6
 24 26  1  0
 26 27  1  0
 27 28  1  0
 28 29  1  0
 28 30  1  0
 28 31  1  0
  7  2  1  0
 14  9  1  0
 21 16  1  0
 22  5  1  0
M  END
>  <zinc_id>  (1) 
ZINC000004139854

>  <smiles>  (1) 
Cc1ccc2c(c1)c(-c1ccccc1)c(-c1ccccc1)n2C[C@H](O)CNC(C)(C)C

$$$$
