
     RDKit          3D

 34 38  0  0  0  0  0  0  0  0999 V2000
    5.8451    0.9414   -0.9380 C   0  0  0  0  0  0  0  0  0  0  0  0
    4.4977    1.5791   -0.6457 C   0  0  0  0  0  0  0  0  0  0  0  0
    3.6533    0.7842    0.1533 N   0  0  0  0  0  0  0  0  0  0  0  0
    4.0199    0.5616    1.5020 C   0  0  0  0  0  0  0  0  0  0  0  0
    5.2452   -0.2865    1.6619 C   0  0  0  0  0  0  0  0  0  0  0  0
    2.3124    0.5936   -0.2143 C   0  0  0  0  0  0  0  0  0  0  0  0
    2.2580   -0.3034   -1.5753 C   0  0  2  0  0  0  0  0  0  0  0  0
    3.0258    0.7083   -2.4260 O   0  0  0  0  0  0  0  0  0  0  0  0
    0.7821    0.2230   -2.0902 C   0  0  0  0  0  0  0  0  0  0  0  0
   -0.1726   -0.0855   -1.0932 N   0  0  0  0  0  0  0  0  0  0  0  0
   -0.7792    0.7062   -0.1963 C   0  0  0  0  0  0  0  0  0  0  0  0
   -0.8145    2.1477   -0.0225 C   0  0  0  0  0  0  0  0  0  0  0  0
   -1.9952    2.8653   -0.2566 C   0  0  0  0  0  0  0  0  0  0  0  0
   -2.1055    4.2155   -0.0965 C   0  0  0  0  0  0  0  0  0  0  0  0
   -1.0120    4.9299    0.3171 C   0  0  0  0  0  0  0  0  0  0  0  0
    0.1829    4.2872    0.5664 C   0  0  0  0  0  0  0  0  0  0  0  0
    0.2190    2.9280    0.3841 C   0  0  0  0  0  0  0  0  0  0  0  0
   -1.5637   -0.1121    0.6391 C   0  0  0  0  0  0  0  0  0  0  0  0
   -2.3756    0.3564    1.7409 C   0  0  0  0  0  0  0  0  0  0  0  0
   -3.4973    1.1546    1.5460 C   0  0  0  0  0  0  0  0  0  0  0  0
   -4.2479    1.5972    2.6110 C   0  0  0  0  0  0  0  0  0  0  0  0
   -3.8957    1.2520    3.9047 C   0  0  0  0  0  0  0  0  0  0  0  0
   -2.8011    0.4714    4.1140 C   0  0  0  0  0  0  0  0  0  0  0  0
   -2.0720    0.0439    3.0456 C   0  0  0  0  0  0  0  0  0  0  0  0
   -1.4162   -1.4052    0.2209 C   0  0  0  0  0  0  0  0  0  0  0  0
   -1.9649   -2.5890    0.7023 C   0  0  0  0  0  0  0  0  0  0  0  0
   -1.6046   -3.7488    0.0521 C   0  0  0  0  0  0  0  0  0  0  0  0
   -0.7418   -3.7524   -1.0269 C   0  0  0  0  0  0  0  0  0  0  0  0
   -0.3718   -4.9071   -1.6895 C   0  0  0  0  0  0  0  0  0  0  0  0
    0.4875   -4.9303   -2.7686 C   0  0  0  0  0  0  0  0  0  0  0  0
    1.0092   -3.7326   -3.2145 C   0  0  0  0  0  0  0  0  0  0  0  0
    0.6598   -2.5622   -2.5752 C   0  0  0  0  0  0  0  0  0  0  0  0
   -0.2129   -2.5519   -1.4807 C   0  0  0  0  0  0  0  0  0  0  0  0
   -0.5534   -1.3794   -0.8515 C   0  0  0  0  0  0  0  0  0  0  0  0
  1  2  1  0
  2  3  1  0
  3  4  1  0
  4  5  1  0
  3  6  1  0
  6  7  1  0
  7  8  1  6
  7  9  1  0
  9 10  1  0
 10 11  1  0
 11 12  1  0
 12 13  2  0
 13 14  1  0
 14 15  2  0
 15 16  1  0
 16 17  2  0
 11 18  2  0
 18 19  1  0
 19 20  2  0
 20 21  1  0
 21 22  2  0
 22 23  1  0
 23 24  2  0
 18 25  1  0
 25 26  2  0
 26 27  1  0
 27 28  2  0
 28 29  1  0
 29 30  2  0
 30 31  1  0
 31 32  2  0
 32 33  1  0
 33 34  2  0
 34 10  1  0
 17 12  1  0
 24 19  1  0
 34 25  1  0
 33 28  1  0
M  END
>  <zinc_id>  (1) 
ZINC000002083322

>  <smiles>  (1) 
CCN(CC)C[C@H](O)Cn1c(-c2ccccc2)c(-c2ccccc2)c2ccc3ccccc3c21

$$$$
