
     RDKit          3D

 31 34  0  0  0  0  0  0  0  0999 V2000
    8.2845    2.2091    1.3070 C   0  0  0  0  0  0  0  0  0  0  0  0
    7.2019    1.2031    0.9838 C   0  0  0  0  0  0  0  0  0  0  0  0
    7.4638    0.7322   -0.4452 C   0  0  0  0  0  0  0  0  0  0  0  0
    5.9185    1.8060    0.9676 O   0  0  0  0  0  0  0  0  0  0  0  0
    4.8386    1.0081    0.6872 C   0  0  0  0  0  0  0  0  0  0  0  0
    4.9489   -0.3369    0.4244 C   0  0  0  0  0  0  0  0  0  0  0  0
    3.8587   -1.1308    0.1437 C   0  0  0  0  0  0  0  0  0  0  0  0
    2.6094   -0.5633    0.1239 C   0  0  0  0  0  0  0  0  0  0  0  0
    1.4312   -1.3379   -0.1623 N   0  0  0  0  0  0  0  0  0  0  0  0
    0.1498   -0.7255   -0.1764 C   0  0  0  0  0  0  0  0  0  0  0  0
    0.1234    0.4874    0.0685 O   0  0  0  0  0  0  0  0  0  0  0  0
   -1.0907   -1.5117   -0.4717 C   0  0  0  0  0  0  0  0  0  0  0  0
   -2.2948   -0.8585   -0.4691 C   0  0  0  0  0  0  0  0  0  0  0  0
   -2.5529    0.5484   -0.2095 N   0  0  0  0  0  0  0  0  0  0  0  0
   -3.8834    1.0137   -0.2591 C   0  0  0  0  0  0  0  0  0  0  0  0
   -4.8055    0.2058   -0.5245 O   0  0  0  0  0  0  0  0  0  0  0  0
   -4.2307    2.4045   -0.0125 C   0  0  0  0  0  0  0  0  0  0  0  0
   -5.5262    2.8399   -0.0642 C   0  0  0  0  0  0  0  0  0  0  0  0
   -5.8476    4.1541    0.1695 C   0  0  0  0  0  0  0  0  0  0  0  0
   -4.8704    5.0871    0.4664 C   0  0  0  0  0  0  0  0  0  0  0  0
   -3.5786    4.6555    0.5185 C   0  0  0  0  0  0  0  0  0  0  0  0
   -3.2443    3.3434    0.2866 C   0  0  0  0  0  0  0  0  0  0  0  0
   -3.4189   -2.0704   -0.8388 S   0  0  0  0  0  0  0  0  0  0  0  0
   -2.3400   -3.3958   -0.9922 C   0  0  0  0  0  0  0  0  0  0  0  0
   -1.1242   -2.8421   -0.7471 C   0  0  0  0  0  0  0  0  0  0  0  0
    0.1171   -3.7452   -0.7965 C   0  0  0  0  0  0  0  0  0  0  0  0
   -0.3277   -5.1274   -0.4643 C   0  0  0  0  0  0  0  0  0  0  0  0
   -1.2893   -5.5311   -1.5922 C   0  0  0  0  0  0  0  0  0  0  0  0
   -2.5735   -4.8554   -1.3126 C   0  0  0  0  0  0  0  0  0  0  0  0
    2.4766    0.7813    0.3843 C   0  0  0  0  0  0  0  0  0  0  0  0
    3.5766    1.5521    0.6613 C   0  0  0  0  0  0  0  0  0  0  0  0
  1  2  1  0
  2  3  1  0
  2  4  1  0
  4  5  1  0
  5  6  2  0
  6  7  1  0
  7  8  2  0
  8  9  1  0
  9 10  1  0
 10 11  2  0
 10 12  1  0
 12 13  2  0
 13 14  1  0
 14 15  1  0
 15 16  2  0
 15 17  1  0
 17 18  2  0
 18 19  1  0
 19 20  2  0
 20 21  1  0
 21 22  2  0
 13 23  1  0
 23 24  1  0
 24 25  2  0
 25 26  1  0
 26 27  1  0
 27 28  1  0
 28 29  1  0
  8 30  1  0
 30 31  2  0
 31  5  1  0
 25 12  1  0
 22 17  1  0
 29 24  1  0
M  END
>  <zinc_id>  (1) 
ZINC000001933526

>  <smiles>  (1) 
CC(C)Oc1ccc(NC(=O)c2c(NC(=O)c3ccccc3)sc3c2CCCC3)cc1

$$$$
