
     RDKit          3D

 32 36  0  0  0  0  0  0  0  0999 V2000
   -4.2664   -1.4049   -1.8822 C   0  0  0  0  0  0  0  0  0  0  0  0
   -3.3386   -0.3477   -1.3751 C   0  0  0  0  0  0  0  0  0  0  0  0
   -3.2209    0.8405   -1.9370 N   0  0  0  0  0  0  0  0  0  0  0  0
   -2.3973    1.8077   -1.4417 C   0  0  0  0  0  0  0  0  0  0  0  0
   -2.2927    3.0366   -2.0269 C   0  0  0  0  0  0  0  0  0  0  0  0
   -1.4441    4.0314   -1.4990 C   0  0  0  0  0  0  0  0  0  0  0  0
   -0.7159    3.7258   -0.3738 C   0  0  0  0  0  0  0  0  0  0  0  0
   -0.8066    2.4859    0.2245 C   0  0  0  0  0  0  0  0  0  0  0  0
   -1.6663    1.5351   -0.3292 C   0  0  0  0  0  0  0  0  0  0  0  0
   -1.7221    0.2945    0.3310 C   0  0  0  0  0  0  0  0  0  0  0  0
   -0.8115    0.1072    1.4245 N   0  0  0  0  0  0  0  0  0  0  0  0
    0.5872   -0.1189    1.0450 C   0  0  0  0  0  0  0  0  0  0  0  0
    0.9331   -0.6526   -0.1484 C   0  0  0  0  0  0  0  0  0  0  0  0
    2.1996   -0.7552   -0.5690 C   0  0  0  0  0  0  0  0  0  0  0  0
    3.2933   -0.3003    0.2211 C   0  0  0  0  0  0  0  0  0  0  0  0
    4.5027   -0.3449   -0.4044 N   0  0  0  0  0  0  0  0  0  0  0  0
    5.8306   -0.0712   -0.1662 C   0  0  0  0  0  0  0  0  0  0  0  0
    6.6936   -0.1941   -1.2649 C   0  0  0  0  0  0  0  0  0  0  0  0
    8.0491   -0.0073   -1.1306 C   0  0  0  0  0  0  0  0  0  0  0  0
    8.6051    0.3148    0.0977 C   0  0  0  0  0  0  0  0  0  0  0  0
    7.7745    0.4506    1.1879 C   0  0  0  0  0  0  0  0  0  0  0  0
    6.3853    0.2523    1.0461 C   0  0  0  0  0  0  0  0  0  0  0  0
    2.9613    0.2461    1.4599 C   0  0  0  0  0  0  0  0  0  0  0  0
    1.6466    0.3303    1.8517 C   0  0  0  0  0  0  0  0  0  0  0  0
   -2.5722   -0.6275   -0.2067 C   0  0  0  0  0  0  0  0  0  0  0  0
   -2.6968   -1.9763    0.3432 C   0  0  0  0  0  0  0  0  0  0  0  0
   -4.0686   -2.1257    0.7950 N   0  0  0  0  0  0  0  0  0  0  0  0
   -4.6262   -0.9485    1.4421 C   0  0  0  0  0  0  0  0  0  0  0  0
   -6.0911   -0.8932    0.9220 C   0  0  0  0  0  0  0  0  0  0  0  0
   -6.5975   -2.3412    1.0416 C   0  0  0  0  0  0  0  0  0  0  0  0
   -5.7763   -3.0750    2.1107 C   0  0  0  0  0  0  0  0  0  0  0  0
   -4.3506   -3.2741    1.5584 C   0  0  0  0  0  0  0  0  0  0  0  0
  1  2  1  0
  2  3  2  0
  3  4  1  0
  4  5  2  0
  5  6  1  0
  6  7  2  0
  7  8  1  0
  8  9  2  0
  9 10  1  0
 10 11  1  0
 11 12  1  0
 12 13  2  0
 13 14  1  0
 14 15  2  0
 15 16  1  0
 16 17  1  0
 17 18  2  0
 18 19  1  0
 19 20  2  0
 20 21  1  0
 21 22  2  0
 15 23  1  0
 23 24  2  0
 10 25  2  0
 25 26  1  0
 26 27  1  0
 27 28  1  0
 28 29  1  0
 29 30  1  0
 30 31  1  0
 31 32  1  0
 25  2  1  0
 32 27  1  0
  9  4  1  0
 24 12  1  0
 22 17  1  0
M  END
>  <zinc_id>  (1) 
ZINC000004425988

>  <smiles>  (1) 
Cc1nc2ccccc2c(Nc2ccc(Nc3ccccc3)cc2)c1CN1CCCCC1

$$$$
