
     RDKit          3D

 30 33  0  0  0  0  0  0  0  0999 V2000
    3.7951    5.0712   -1.6313 C   0  0  0  0  0  0  0  0  0  0  0  0
    4.1637    5.2946   -0.1942 C   0  0  0  0  0  0  0  0  0  0  0  0
    2.9662    5.3815    0.7149 C   0  0  0  0  0  0  0  0  0  0  0  0
    2.1277    4.1268    0.6938 C   0  0  0  0  0  0  0  0  0  0  0  0
    1.6431    3.9069   -0.7164 C   0  0  0  0  0  0  0  0  0  0  0  0
    0.8471    2.7578   -0.8524 O   0  0  0  0  0  0  0  0  0  0  0  0
    1.2772    1.4794   -0.5644 C   0  0  0  0  0  0  0  0  0  0  0  0
    2.4540    1.3170   -0.1530 O   0  0  0  0  0  0  0  0  0  0  0  0
    0.4310    0.3024   -0.7140 C   0  0  0  0  0  0  0  0  0  0  0  0
   -0.8791    0.2581   -1.1466 C   0  0  0  0  0  0  0  0  0  0  0  0
   -1.6383    1.3903   -1.5280 N   0  0  0  0  0  0  0  0  0  0  0  0
   -1.3210   -1.0135   -1.1505 N   0  0  0  0  0  0  0  0  0  0  0  0
   -2.6356   -1.4905   -1.5356 C   0  0  0  0  0  0  0  0  0  0  0  0
   -3.6021   -1.5382   -0.3978 C   0  0  0  0  0  0  0  0  0  0  0  0
   -3.8296   -0.2179    0.2295 C   0  0  0  0  0  0  0  0  0  0  0  0
   -4.8396    0.6424   -0.2114 C   0  0  0  0  0  0  0  0  0  0  0  0
   -4.9779    1.8538    0.4335 C   0  0  0  0  0  0  0  0  0  0  0  0
   -4.1741    2.2498    1.4816 C   0  0  0  0  0  0  0  0  0  0  0  0
   -3.1849    1.3892    1.9020 C   0  0  0  0  0  0  0  0  0  0  0  0
   -3.0162    0.1603    1.2756 C   0  0  0  0  0  0  0  0  0  0  0  0
   -0.3107   -1.8279   -0.7211 C   0  0  0  0  0  0  0  0  0  0  0  0
   -0.2705   -3.1622   -0.5569 N   0  0  0  0  0  0  0  0  0  0  0  0
    0.8740   -3.7318   -0.1103 C   0  0  0  0  0  0  0  0  0  0  0  0
    0.9610   -5.1088    0.0743 C   0  0  0  0  0  0  0  0  0  0  0  0
    2.1385   -5.6602    0.5298 C   0  0  0  0  0  0  0  0  0  0  0  0
    3.2155   -4.8437    0.7972 C   0  0  0  0  0  0  0  0  0  0  0  0
    3.1433   -3.4846    0.6196 C   0  0  0  0  0  0  0  0  0  0  0  0
    1.9555   -2.9228    0.1594 C   0  0  0  0  0  0  0  0  0  0  0  0
    1.9167   -1.5713   -0.0062 N   0  0  0  0  0  0  0  0  0  0  0  0
    0.7702   -1.0079   -0.4527 C   0  0  0  0  0  0  0  0  0  0  0  0
  1  2  1  0
  2  3  1  0
  3  4  1  0
  4  5  1  0
  5  6  1  0
  6  7  1  0
  7  8  2  0
  7  9  1  0
  9 10  2  0
 10 11  1  0
 10 12  1  0
 12 13  1  0
 13 14  1  0
 14 15  1  0
 15 16  2  0
 16 17  1  0
 17 18  2  0
 18 19  1  0
 19 20  2  0
 12 21  1  0
 21 22  2  0
 22 23  1  0
 23 24  2  0
 24 25  1  0
 25 26  2  0
 26 27  1  0
 27 28  2  0
 28 29  1  0
 29 30  2  0
 30  9  1  0
 20 15  1  0
 30 21  1  0
 28 23  1  0
M  END
>  <zinc_id>  (1) 
ZINC000002409851

>  <smiles>  (1) 
CCCCCOC(=O)c1c(N)n(CCc2ccccc2)c2nc3ccccc3nc12

$$$$
