
     RDKit          3D

 32 35  0  0  0  0  0  0  0  0999 V2000
   -4.4246    3.4874    2.2853 C   0  0  0  0  0  0  0  0  0  0  0  0
   -4.3204    3.1430    0.8099 C   0  0  0  0  0  0  0  0  0  0  0  0
   -5.6317    3.5570    0.1495 C   0  0  0  0  0  0  0  0  0  0  0  0
   -4.0667    1.6977    0.6618 C   0  0  0  0  0  0  0  0  0  0  0  0
   -2.8917    1.1549    0.2320 C   0  0  0  0  0  0  0  0  0  0  0  0
   -2.6855   -0.1802    0.1049 C   0  0  0  0  0  0  0  0  0  0  0  0
   -1.4312   -0.7779   -0.3547 C   0  0  0  0  0  0  0  0  0  0  0  0
   -1.5709   -1.7922   -1.2916 C   0  0  0  0  0  0  0  0  0  0  0  0
   -0.4179   -2.3864   -1.7550 C   0  0  0  0  0  0  0  0  0  0  0  0
    0.8031   -1.9684   -1.2885 C   0  0  0  0  0  0  0  0  0  0  0  0
    0.9344   -0.9717   -0.3683 C   0  0  0  0  0  0  0  0  0  0  0  0
    2.2484   -0.5761    0.0842 C   0  0  0  0  0  0  0  0  0  0  0  0
    2.8057    0.6958   -0.7329 C   0  0  1  0  0  0  0  0  0  0  0  0
    4.1751    0.8164    0.0526 C   0  0  0  0  0  0  0  0  0  0  0  0
    4.1532    0.6872    1.4058 C   0  0  0  0  0  0  0  0  0  0  0  0
    5.3753    0.8122    2.0820 C   0  0  0  0  0  0  0  0  0  0  0  0
    6.5162    1.0504    1.4072 N   0  0  0  0  0  4  0  0  0  0  0  0
    7.7291    1.1767    2.0558 O   0  0  0  0  0  1  0  0  0  0  0  0
    6.5138    1.1727    0.0873 C   0  0  0  0  0  0  0  0  0  0  0  0
    5.3240    1.0537   -0.6006 C   0  0  0  0  0  0  0  0  0  0  0  0
    3.4179   -0.1050   -2.0096 C   0  0  0  0  0  0  0  0  0  0  0  0
    4.4361   -1.0795   -1.5214 C   0  0  0  0  0  0  0  0  0  0  0  0
    4.0918    1.0018   -2.8480 C   0  0  0  0  0  0  0  0  0  0  0  0
    2.4167   -0.5670   -2.7865 O   0  0  0  0  0  0  0  0  0  0  0  0
   -0.2046   -0.3665    0.1062 C   0  0  0  0  0  0  0  0  0  0  0  0
   -3.7031   -1.0538    0.4211 C   0  0  0  0  0  0  0  0  0  0  0  0
   -3.5215   -2.3938    0.3023 N   0  0  0  0  0  0  0  0  0  0  0  0
   -4.4637   -3.2917    0.5914 C   0  0  0  0  0  0  0  0  0  0  0  0
   -5.6851   -2.8038    1.0350 C   0  0  0  0  0  0  0  0  0  0  0  0
   -5.9238   -1.4539    1.1740 C   0  0  0  0  0  0  0  0  0  0  0  0
   -4.9062   -0.5505    0.8590 C   0  0  0  0  0  0  0  0  0  0  0  0
   -5.0922    0.8113    0.9802 C   0  0  0  0  0  0  0  0  0  0  0  0
  1  2  1  0
  2  3  1  0
  2  4  1  0
  4  5  2  0
  5  6  1  0
  6  7  1  0
  7  8  2  0
  8  9  1  0
  9 10  2  0
 10 11  1  0
 11 12  1  0
 13 12  1  1
 13 14  1  0
 14 15  2  0
 15 16  1  0
 16 17  2  0
 17 18  1  0
 17 19  1  0
 19 20  2  0
 13 21  1  0
 21 22  1  0
 21 23  1  0
 21 24  1  0
 11 25  2  0
  6 26  2  0
 26 27  1  0
 27 28  2  0
 28 29  1  0
 29 30  2  0
 30 31  1  0
 31 32  2  0
 32  4  1  0
 25  7  1  0
 31 26  1  0
 20 14  1  0
M  CHG  2  17   1  18  -1
M  END
>  <zinc_id>  (1) 
ZINC000001491280

>  <smiles>  (1) 
CC(C)c1cc(-c2cccc(C[C@@H](c3cc[n+]([O-])cc3)C(C)(C)O)c2)c2ncccc2c1

$$$$
