
     RDKit          3D

 30 32  0  0  0  0  0  0  0  0999 V2000
    3.9382   -0.7583   -3.7903 C   0  0  0  0  0  0  0  0  0  0  0  0
    3.0134   -1.7264   -3.0979 C   0  0  0  0  0  0  0  0  0  0  0  0
    3.6058   -2.1668   -1.7838 C   0  0  0  0  0  0  0  0  0  0  0  0
    4.1711   -3.4132   -1.6599 C   0  0  0  0  0  0  0  0  0  0  0  0
    4.7165   -3.8392   -0.4775 C   0  0  0  0  0  0  0  0  0  0  0  0
    4.6824   -2.9747    0.5959 C   0  0  0  0  0  0  0  0  0  0  0  0
    4.1253   -1.7241    0.5058 C   0  0  0  0  0  0  0  0  0  0  0  0
    4.0999   -0.7934    1.6890 C   0  0  0  0  0  0  0  0  0  0  0  0
    5.1965    0.2339    1.4227 C   0  0  0  0  0  0  0  0  0  0  0  0
    3.5890   -1.3303   -0.6926 C   0  0  0  0  0  0  0  0  0  0  0  0
    2.9892   -0.0262   -0.8476 N   0  0  0  0  0  0  0  0  0  0  0  0
    1.6073    0.1553   -0.5899 C   0  0  0  0  0  0  0  0  0  0  0  0
    0.9516   -0.8487   -0.2319 O   0  0  0  0  0  0  0  0  0  0  0  0
    0.9391    1.4824   -0.7330 C   0  0  0  0  0  0  0  0  0  0  0  0
   -0.4229    1.3449   -0.4100 O   0  0  0  0  0  0  0  0  0  0  0  0
   -0.8780    0.9169    0.8169 C   0  0  0  0  0  0  0  0  0  0  0  0
   -0.0724    0.6208    1.7287 O   0  0  0  0  0  0  0  0  0  0  0  0
   -2.3177    0.8040    1.0665 C   0  0  0  0  0  0  0  0  0  0  0  0
   -3.0116    2.1237    0.9105 C   0  0  0  0  0  0  0  0  0  0  0  0
   -4.0723    2.4553    1.7249 C   0  0  0  0  0  0  0  0  0  0  0  0
   -4.7356    3.6705    1.6028 C   0  0  0  0  0  0  0  0  0  0  0  0
   -4.3486    4.5909    0.6528 C   0  0  0  0  0  0  0  0  0  0  0  0
   -3.2907    4.2637   -0.1621 C   0  0  0  0  0  0  0  0  0  0  0  0
   -2.6377    3.0558   -0.0345 C   0  0  0  0  0  0  0  0  0  0  0  0
   -3.0052   -0.1352    0.1661 C   0  0  0  0  0  0  0  0  0  0  0  0
   -2.5600   -0.3026   -1.1210 C   0  0  0  0  0  0  0  0  0  0  0  0
   -3.1809   -1.1726   -1.9915 C   0  0  0  0  0  0  0  0  0  0  0  0
   -4.2718   -1.8995   -1.5848 C   0  0  0  0  0  0  0  0  0  0  0  0
   -4.7242   -1.7390   -0.3000 C   0  0  0  0  0  0  0  0  0  0  0  0
   -4.0956   -0.8682    0.5578 C   0  0  0  0  0  0  0  0  0  0  0  0
  1  2  1  0
  2  3  1  0
  3  4  2  0
  4  5  1  0
  5  6  2  0
  6  7  1  0
  7  8  1  0
  8  9  1  0
  7 10  2  0
 10 11  1  0
 11 12  1  0
 12 13  2  0
 12 14  1  0
 14 15  1  0
 15 16  1  0
 16 17  2  0
 16 18  1  0
 18 19  1  0
 19 20  2  0
 20 21  1  0
 21 22  2  0
 22 23  1  0
 23 24  2  0
 18 25  1  0
 25 26  2  0
 26 27  1  0
 27 28  2  0
 28 29  1  0
 29 30  2  0
 10  3  1  0
 24 19  1  0
 30 25  1  0
M  END
>  <zinc_id>  (1) 
ZINC000001993593

>  <smiles>  (1) 
CCc1cccc(CC)c1NC(=O)COC(=O)C(c1ccccc1)c1ccccc1

$$$$
