
     RDKit          3D

 32 35  0  0  0  0  0  0  0  0999 V2000
   -8.3337   -2.2244    0.3276 C   0  0  0  0  0  0  0  0  0  0  0  0
   -7.1396   -2.9000    0.0682 O   0  0  0  0  0  0  0  0  0  0  0  0
   -5.8828   -2.3173    0.1615 C   0  0  0  0  0  0  0  0  0  0  0  0
   -4.7231   -3.0039   -0.0991 C   0  0  0  0  0  0  0  0  0  0  0  0
   -3.4745   -2.3798    0.0065 C   0  0  0  0  0  0  0  0  0  0  0  0
   -3.3731   -1.0577    0.3751 C   0  0  0  0  0  0  0  0  0  0  0  0
   -2.0946   -0.3679    0.4975 C   0  0  0  0  0  0  0  0  0  0  0  0
   -0.9082   -1.0335    0.2412 C   0  0  0  0  0  0  0  0  0  0  0  0
    0.3061   -0.3880    0.3548 C   0  0  0  0  0  0  0  0  0  0  0  0
    1.5718   -1.0630    0.0913 C   0  0  0  0  0  0  0  0  0  0  0  0
    1.5238   -2.2848   -0.2522 O   0  0  0  0  0  0  0  0  0  0  0  0
    2.8210   -0.4054    0.2064 N   0  0  0  0  0  0  0  0  0  0  0  0
    4.0253   -1.1676   -0.0783 C   0  0  0  0  0  0  0  0  0  0  0  0
    4.0345   -1.6946   -1.4846 C   0  0  0  0  0  0  0  0  0  0  0  0
    3.9641   -0.5202   -2.4355 C   0  0  0  0  0  0  0  0  0  0  0  0
    5.1486    0.3612   -2.2052 C   0  0  0  0  0  0  0  0  0  0  0  0
    6.2943    0.1260   -2.9205 C   0  0  0  0  0  0  0  0  0  0  0  0
    7.4121    0.9060   -2.7478 C   0  0  0  0  0  0  0  0  0  0  0  0
    7.4108    1.9558   -1.8417 C   0  0  0  0  0  0  0  0  0  0  0  0
    6.2440    2.1678   -1.1370 C   0  0  0  0  0  0  0  0  0  0  0  0
    5.1222    1.3932   -1.3033 C   0  0  0  0  0  0  0  0  0  0  0  0
    0.3665    0.9391    0.7273 C   0  0  0  0  0  0  0  0  0  0  0  0
    1.5625    1.6177    0.8513 C   0  0  0  0  0  0  0  0  0  0  0  0
    1.6052    2.9560    1.2280 C   0  0  0  0  0  0  0  0  0  0  0  0
    0.4141    3.6079    1.4807 C   0  0  0  0  0  0  0  0  0  0  0  0
   -0.7714    2.9144    1.3519 C   0  0  0  0  0  0  0  0  0  0  0  0
   -0.8196    1.5778    0.9759 C   0  0  0  0  0  0  0  0  0  0  0  0
   -1.9991    0.9232    0.8578 N   0  0  0  0  0  0  0  0  0  0  0  0
   -4.5433   -0.3783    0.6342 C   0  0  0  0  0  0  0  0  0  0  0  0
   -4.4494    0.9571    1.0071 O   0  0  0  0  0  0  0  0  0  0  0  0
   -5.5373    1.7791    1.3019 C   0  0  0  0  0  0  0  0  0  0  0  0
   -5.7771   -0.9957    0.5298 C   0  0  0  0  0  0  0  0  0  0  0  0
  1  2  1  0
  2  3  1  0
  3  4  2  0
  4  5  1  0
  5  6  2  0
  6  7  1  0
  7  8  2  0
  8  9  1  0
  9 10  1  0
 10 11  2  0
 10 12  1  0
 12 13  1  0
 13 14  1  0
 14 15  1  0
 15 16  1  0
 16 17  2  0
 17 18  1  0
 18 19  2  0
 19 20  1  0
 20 21  2  0
  9 22  2  0
 22 23  1  0
 23 24  2  0
 24 25  1  0
 25 26  2  0
 26 27  1  0
 27 28  2  0
  6 29  1  0
 29 30  1  0
 30 31  1  0
 29 32  2  0
 32  3  1  0
 28  7  1  0
 21 16  1  0
 27 22  1  0
M  END
>  <zinc_id>  (1) 
ZINC000002086656

>  <smiles>  (1) 
COc1ccc(-c2cc(C(=O)NCCCc3ccccc3)c3ccccc3n2)c(OC)c1

$$$$
