MODEL 1
REMARK VINA RESULT:      -7.0      0.000      0.000
REMARK  Name = 
REMARK  3 active torsions:
REMARK  status: ('A' for Active; 'I' for Inactive)
REMARK    1  A    between atoms: O_2  and  C_3
REMARK    2  A    between atoms: C_3  and  C_6
REMARK    3  A    between atoms: C_8  and  C_9
REMARK                            x       y       z     vdW  Elec       q    Type
REMARK                         _______ _______ _______ _____ _____    ______ ____
ROOT
ATOM      1  C   UNL     1      17.536 -10.169  29.388  0.00  0.00    +0.000 A 
ATOM      2  C   UNL     1      18.145  -9.043  28.873  0.00  0.00    +0.000 A 
ATOM      3  C   UNL     1      17.815  -8.576  27.620  0.00  0.00    +0.000 A 
ATOM      4  N   UNL     1      16.880  -9.275  26.949  0.00  0.00    +0.000 NA
ATOM      5  C   UNL     1      16.297 -10.375  27.474  0.00  0.00    +0.000 A 
ATOM      6  N   UNL     1      15.306 -11.098  26.738  0.00  0.00    +0.000 NA
ATOM      7  N   UNL     1      16.606 -10.847  28.695  0.00  0.00    +0.000 NA
ENDROOT
BRANCH   3   8
ATOM      8  C   UNL     1      18.455  -7.382  27.061  0.00  0.00    +0.000 A 
ATOM      9  C   UNL     1      17.908  -6.126  27.220  0.00  0.00    +0.000 A 
ATOM     10  C   UNL     1      18.556  -5.042  26.672  0.00  0.00    +0.000 A 
ATOM     11  C   UNL     1      19.737  -5.182  25.971  0.00  0.00    +0.000 A 
ATOM     12  C   UNL     1      20.257  -6.445  25.831  0.00  0.00    +0.000 A 
ATOM     13  C   UNL     1      21.444  -6.563  25.123  0.00  0.00    +0.000 A 
ATOM     14  C   UNL     1      22.001  -7.816  24.960  0.00  0.00    +0.000 A 
ATOM     15  C   UNL     1      21.380  -8.937  25.496  0.00  0.00    +0.000 A 
ATOM     16  C   UNL     1      20.201  -8.777  26.194  0.00  0.00    +0.000 A 
ATOM     17  C   UNL     1      19.631  -7.551  26.367  0.00  0.00    +0.000 A 
ENDBRANCH   3   8
BRANCH   1  18
ATOM     18  C   UNL     1      17.929 -10.638  30.755  0.00  0.00    +0.000 C 
ATOM     19  C   UNL     1      16.764 -10.461  31.697  0.00  0.00    +0.000 C 
ATOM     20  C   UNL     1      19.110  -9.800  31.177  0.00  0.00    +0.000 C 
BRANCH  18  22
ATOM     21  C   UNL     1      19.689 -12.056  30.524  0.00  0.00    +0.000 C 
ATOM     22  O   UNL     1      18.287 -11.989  30.664  0.00  0.00    +0.000 OA
ENDBRANCH  18  22
ENDBRANCH   1  18
TORSDOF 3
ENDMDL
MODEL 2
REMARK VINA RESULT:      -6.9     32.353     33.918
REMARK  Name = 
REMARK  3 active torsions:
REMARK  status: ('A' for Active; 'I' for Inactive)
REMARK    1  A    between atoms: O_2  and  C_3
REMARK    2  A    between atoms: C_3  and  C_6
REMARK    3  A    between atoms: C_8  and  C_9
REMARK                            x       y       z     vdW  Elec       q    Type
REMARK                         _______ _______ _______ _____ _____    ______ ____
ROOT
ATOM      1  C   UNL     1      26.466  24.536  29.998  0.00  0.00    +0.000 A 
ATOM      2  C   UNL     1      27.324  24.348  28.934  0.00  0.00    +0.000 A 
ATOM      3  C   UNL     1      27.692  23.079  28.543  0.00  0.00    +0.000 A 
ATOM      4  N   UNL     1      27.172  22.060  29.253  0.00  0.00    +0.000 NA
ATOM      5  C   UNL     1      26.333  22.269  30.292  0.00  0.00    +0.000 A 
ATOM      6  N   UNL     1      25.794  21.167  31.028  0.00  0.00    +0.000 NA
ATOM      7  N   UNL     1      25.961  23.499  30.689  0.00  0.00    +0.000 NA
ENDROOT
BRANCH   3   8
ATOM      8  C   UNL     1      28.604  22.867  27.415  0.00  0.00    +0.000 A 
ATOM      9  C   UNL     1      29.924  22.520  27.607  0.00  0.00    +0.000 A 
ATOM     10  C   UNL     1      30.732  22.334  26.508  0.00  0.00    +0.000 A 
ATOM     11  C   UNL     1      30.252  22.484  25.223  0.00  0.00    +0.000 A 
ATOM     12  C   UNL     1      28.932  22.830  25.064  0.00  0.00    +0.000 A 
ATOM     13  C   UNL     1      28.470  22.976  23.764  0.00  0.00    +0.000 A 
ATOM     14  C   UNL     1      27.149  23.322  23.561  0.00  0.00    +0.000 A 
ATOM     15  C   UNL     1      26.300  23.519  24.642  0.00  0.00    +0.000 A 
ATOM     16  C   UNL     1      26.798  23.364  25.919  0.00  0.00    +0.000 A 
ATOM     17  C   UNL     1      28.098  23.024  26.145  0.00  0.00    +0.000 A 
ENDBRANCH   3   8
BRANCH   1  18
ATOM     18  C   UNL     1      26.094  25.934  30.385  0.00  0.00    +0.000 C 
ATOM     19  C   UNL     1      27.347  26.717  30.690  0.00  0.00    +0.000 C 
ATOM     20  C   UNL     1      25.204  25.825  31.599  0.00  0.00    +0.000 C 
BRANCH  18  22
ATOM     21  C   UNL     1      24.024  26.449  29.604  0.00  0.00    +0.000 C 
ATOM     22  O   UNL     1      25.403  26.511  29.313  0.00  0.00    +0.000 OA
ENDBRANCH  18  22
ENDBRANCH   1  18
TORSDOF 3
ENDMDL
MODEL 3
REMARK VINA RESULT:      -6.5     32.688     34.077
REMARK  Name = 
REMARK  3 active torsions:
REMARK  status: ('A' for Active; 'I' for Inactive)
REMARK    1  A    between atoms: O_2  and  C_3
REMARK    2  A    between atoms: C_3  and  C_6
REMARK    3  A    between atoms: C_8  and  C_9
REMARK                            x       y       z     vdW  Elec       q    Type
REMARK                         _______ _______ _______ _____ _____    ______ ____
ROOT
ATOM      1  C   UNL     1      25.790  24.962  29.715  0.00  0.00    +0.000 A 
ATOM      2  C   UNL     1      26.106  24.848  28.376  0.00  0.00    +0.000 A 
ATOM      3  C   UNL     1      26.452  23.629  27.837  0.00  0.00    +0.000 A 
ATOM      4  N   UNL     1      26.462  22.582  28.684  0.00  0.00    +0.000 NA
ATOM      5  C   UNL     1      26.149  22.718  29.990  0.00  0.00    +0.000 A 
ATOM      6  N   UNL     1      26.167  21.587  30.868  0.00  0.00    +0.000 NA
ATOM      7  N   UNL     1      25.808  23.900  30.536  0.00  0.00    +0.000 NA
ENDROOT
BRANCH   3   8
ATOM      8  C   UNL     1      26.791  23.495  26.417  0.00  0.00    +0.000 A 
ATOM      9  C   UNL     1      25.847  23.674  25.428  0.00  0.00    +0.000 A 
ATOM     10  C   UNL     1      26.224  23.535  24.112  0.00  0.00    +0.000 A 
ATOM     11  C   UNL     1      27.521  23.224  23.759  0.00  0.00    +0.000 A 
ATOM     12  C   UNL     1      28.439  23.052  24.767  0.00  0.00    +0.000 A 
ATOM     13  C   UNL     1      29.737  22.739  24.391  0.00  0.00    +0.000 A 
ATOM     14  C   UNL     1      30.691  22.559  25.373  0.00  0.00    +0.000 A 
ATOM     15  C   UNL     1      30.352  22.689  26.714  0.00  0.00    +0.000 A 
ATOM     16  C   UNL     1      29.051  23.002  27.046  0.00  0.00    +0.000 A 
ATOM     17  C   UNL     1      28.092  23.184  26.095  0.00  0.00    +0.000 A 
ENDBRANCH   3   8
BRANCH   1  18
ATOM     18  C   UNL     1      25.419  26.309  30.254  0.00  0.00    +0.000 C 
ATOM     19  C   UNL     1      25.116  27.240  29.107  0.00  0.00    +0.000 C 
ATOM     20  C   UNL     1      26.600  26.793  31.059  0.00  0.00    +0.000 C 
BRANCH  18  22
ATOM     21  C   UNL     1      23.217  26.830  30.459  0.00  0.00    +0.000 C 
ATOM     22  O   UNL     1      24.293  26.154  31.072  0.00  0.00    +0.000 OA
ENDBRANCH  18  22
ENDBRANCH   1  18
TORSDOF 3
ENDMDL
MODEL 4
REMARK VINA RESULT:      -6.5      1.839      3.362
REMARK  Name = 
REMARK  3 active torsions:
REMARK  status: ('A' for Active; 'I' for Inactive)
REMARK    1  A    between atoms: O_2  and  C_3
REMARK    2  A    between atoms: C_3  and  C_6
REMARK    3  A    between atoms: C_8  and  C_9
REMARK                            x       y       z     vdW  Elec       q    Type
REMARK                         _______ _______ _______ _____ _____    ______ ____
ROOT
ATOM      1  C   UNL     1      16.179 -10.323  27.488  0.00  0.00    +0.000 A 
ATOM      2  C   UNL     1      16.784  -9.204  26.953  0.00  0.00    +0.000 A 
ATOM      3  C   UNL     1      17.794  -8.558  27.631  0.00  0.00    +0.000 A 
ATOM      4  N   UNL     1      18.142  -9.079  28.822  0.00  0.00    +0.000 NA
ATOM      5  C   UNL     1      17.537 -10.176  29.327  0.00  0.00    +0.000 A 
ATOM      6  N   UNL     1      17.929 -10.709  30.595  0.00  0.00    +0.000 NA
ATOM      7  N   UNL     1      16.549 -10.822  28.680  0.00  0.00    +0.000 NA
ENDROOT
BRANCH   3   8
ATOM      8  C   UNL     1      18.442  -7.368  27.073  0.00  0.00    +0.000 A 
ATOM      9  C   UNL     1      17.900  -6.110  27.225  0.00  0.00    +0.000 A 
ATOM     10  C   UNL     1      18.555  -5.030  26.678  0.00  0.00    +0.000 A 
ATOM     11  C   UNL     1      19.739  -5.176  25.985  0.00  0.00    +0.000 A 
ATOM     12  C   UNL     1      20.255  -6.442  25.851  0.00  0.00    +0.000 A 
ATOM     13  C   UNL     1      21.446  -6.567  25.151  0.00  0.00    +0.000 A 
ATOM     14  C   UNL     1      21.999  -7.823  24.995  0.00  0.00    +0.000 A 
ATOM     15  C   UNL     1      21.371  -8.939  25.530  0.00  0.00    +0.000 A 
ATOM     16  C   UNL     1      20.188  -8.773  26.220  0.00  0.00    +0.000 A 
ATOM     17  C   UNL     1      19.622  -7.544  26.387  0.00  0.00    +0.000 A 
ENDBRANCH   3   8
BRANCH   1  18
ATOM     18  C   UNL     1      15.086 -10.992  26.713  0.00  0.00    +0.000 C 
ATOM     19  C   UNL     1      14.998 -12.441  27.123  0.00  0.00    +0.000 C 
ATOM     20  C   UNL     1      15.443 -10.853  25.254  0.00  0.00    +0.000 C 
BRANCH  18  22
ATOM     21  C   UNL     1      13.315  -9.926  25.769  0.00  0.00    +0.000 C 
ATOM     22  O   UNL     1      13.886 -10.327  26.995  0.00  0.00    +0.000 OA
ENDBRANCH  18  22
ENDBRANCH   1  18
TORSDOF 3
ENDMDL
MODEL 5
REMARK VINA RESULT:      -6.3     32.444     33.382
REMARK  Name = 
REMARK  3 active torsions:
REMARK  status: ('A' for Active; 'I' for Inactive)
REMARK    1  A    between atoms: O_2  and  C_3
REMARK    2  A    between atoms: C_3  and  C_6
REMARK    3  A    between atoms: C_8  and  C_9
REMARK                            x       y       z     vdW  Elec       q    Type
REMARK                         _______ _______ _______ _____ _____    ______ ____
ROOT
ATOM      1  C   UNL     1      29.556  22.677  30.388  0.00  0.00    +0.000 A 
ATOM      2  C   UNL     1      29.788  22.760  29.030  0.00  0.00    +0.000 A 
ATOM      3  C   UNL     1      28.764  22.570  28.128  0.00  0.00    +0.000 A 
ATOM      4  N   UNL     1      27.552  22.303  28.649  0.00  0.00    +0.000 NA
ATOM      5  C   UNL     1      27.348  22.227  29.982  0.00  0.00    +0.000 A 
ATOM      6  N   UNL     1      26.048  21.943  30.508  0.00  0.00    +0.000 NA
ATOM      7  N   UNL     1      28.334  22.410  30.879  0.00  0.00    +0.000 NA
ENDROOT
BRANCH   3   8
ATOM      8  C   UNL     1      28.999  22.655  26.684  0.00  0.00    +0.000 A 
ATOM      9  C   UNL     1      30.228  22.364  26.132  0.00  0.00    +0.000 A 
ATOM     10  C   UNL     1      30.388  22.462  24.768  0.00  0.00    +0.000 A 
ATOM     11  C   UNL     1      29.349  22.842  23.943  0.00  0.00    +0.000 A 
ATOM     12  C   UNL     1      28.136  23.125  24.522  0.00  0.00    +0.000 A 
ATOM     13  C   UNL     1      27.106  23.505  23.675  0.00  0.00    +0.000 A 
ATOM     14  C   UNL     1      25.870  23.797  24.218  0.00  0.00    +0.000 A 
ATOM     15  C   UNL     1      25.666  23.711  25.588  0.00  0.00    +0.000 A 
ATOM     16  C   UNL     1      26.716  23.329  26.397  0.00  0.00    +0.000 A 
ATOM     17  C   UNL     1      27.945  23.037  25.886  0.00  0.00    +0.000 A 
ENDBRANCH   3   8
BRANCH   1  18
ATOM     18  C   UNL     1      30.701  22.891  31.328  0.00  0.00    +0.000 C 
ATOM     19  C   UNL     1      30.197  23.558  32.584  0.00  0.00    +0.000 C 
ATOM     20  C   UNL     1      31.698  23.763  30.605  0.00  0.00    +0.000 C 
BRANCH  18  22
ATOM     21  C   UNL     1      31.044  21.386  32.995  0.00  0.00    +0.000 C 
ATOM     22  O   UNL     1      31.259  21.642  31.625  0.00  0.00    +0.000 OA
ENDBRANCH  18  22
ENDBRANCH   1  18
TORSDOF 3
ENDMDL
MODEL 6
REMARK VINA RESULT:      -6.2     33.365     34.651
REMARK  Name = 
REMARK  3 active torsions:
REMARK  status: ('A' for Active; 'I' for Inactive)
REMARK    1  A    between atoms: O_2  and  C_3
REMARK    2  A    between atoms: C_3  and  C_6
REMARK    3  A    between atoms: C_8  and  C_9
REMARK                            x       y       z     vdW  Elec       q    Type
REMARK                         _______ _______ _______ _____ _____    ______ ____
ROOT
ATOM      1  C   UNL     1      27.731  24.746  23.182  0.00  0.00    +0.000 A 
ATOM      2  C   UNL     1      27.911  24.563  24.538  0.00  0.00    +0.000 A 
ATOM      3  C   UNL     1      27.103  23.700  25.244  0.00  0.00    +0.000 A 
ATOM      4  N   UNL     1      26.150  23.062  24.539  0.00  0.00    +0.000 NA
ATOM      5  C   UNL     1      25.993  23.256  23.211  0.00  0.00    +0.000 A 
ATOM      6  N   UNL     1      24.971  22.564  22.487  0.00  0.00    +0.000 NA
ATOM      7  N   UNL     1      26.771  24.095  22.503  0.00  0.00    +0.000 NA
ENDROOT
BRANCH   3   8
ATOM      8  C   UNL     1      27.284  23.498  26.684  0.00  0.00    +0.000 A 
ATOM      9  C   UNL     1      26.251  23.692  27.577  0.00  0.00    +0.000 A 
ATOM     10  C   UNL     1      26.481  23.486  28.918  0.00  0.00    +0.000 A 
ATOM     11  C   UNL     1      27.716  23.091  29.389  0.00  0.00    +0.000 A 
ATOM     12  C   UNL     1      28.725  22.906  28.476  0.00  0.00    +0.000 A 
ATOM     13  C   UNL     1      29.959  22.510  28.970  0.00  0.00    +0.000 A 
ATOM     14  C   UNL     1      31.000  22.311  28.084  0.00  0.00    +0.000 A 
ATOM     15  C   UNL     1      30.811  22.508  26.723  0.00  0.00    +0.000 A 
ATOM     16  C   UNL     1      29.568  22.902  26.271  0.00  0.00    +0.000 A 
ATOM     17  C   UNL     1      28.526  23.104  27.125  0.00  0.00    +0.000 A 
ENDBRANCH   3   8
BRANCH   1  18
ATOM     18  C   UNL     1      28.635  25.696  22.457  0.00  0.00    +0.000 C 
ATOM     19  C   UNL     1      29.269  24.986  21.287  0.00  0.00    +0.000 C 
ATOM     20  C   UNL     1      29.672  26.150  23.454  0.00  0.00    +0.000 C 
BRANCH  18  22
ATOM     21  C   UNL     1      28.114  27.867  22.877  0.00  0.00    +0.000 C 
ATOM     22  O   UNL     1      27.863  26.778  22.017  0.00  0.00    +0.000 OA
ENDBRANCH  18  22
ENDBRANCH   1  18
TORSDOF 3
ENDMDL
MODEL 7
REMARK VINA RESULT:      -6.2     31.925     33.198
REMARK  Name = 
REMARK  3 active torsions:
REMARK  status: ('A' for Active; 'I' for Inactive)
REMARK    1  A    between atoms: O_2  and  C_3
REMARK    2  A    between atoms: C_3  and  C_6
REMARK    3  A    between atoms: C_8  and  C_9
REMARK                            x       y       z     vdW  Elec       q    Type
REMARK                         _______ _______ _______ _____ _____    ______ ____
ROOT
ATOM      1  C   UNL     1      28.931  22.583  30.213  0.00  0.00    +0.000 A 
ATOM      2  C   UNL     1      28.713  22.958  28.902  0.00  0.00    +0.000 A 
ATOM      3  C   UNL     1      27.489  22.752  28.306  0.00  0.00    +0.000 A 
ATOM      4  N   UNL     1      26.542  22.174  29.069  0.00  0.00    +0.000 NA
ATOM      5  C   UNL     1      26.777  21.816  30.350  0.00  0.00    +0.000 A 
ATOM      6  N   UNL     1      25.752  21.205  31.138  0.00  0.00    +0.000 NA
ATOM      7  N   UNL     1      27.966  22.009  30.951  0.00  0.00    +0.000 NA
ENDROOT
BRANCH   3   8
ATOM      8  C   UNL     1      27.246  23.145  26.915  0.00  0.00    +0.000 A 
ATOM      9  C   UNL     1      26.032  23.658  26.509  0.00  0.00    +0.000 A 
ATOM     10  C   UNL     1      25.864  24.009  25.189  0.00  0.00    +0.000 A 
ATOM     11  C   UNL     1      26.878  23.861  24.265  0.00  0.00    +0.000 A 
ATOM     12  C   UNL     1      28.076  23.348  24.699  0.00  0.00    +0.000 A 
ATOM     13  C   UNL     1      29.082  23.207  23.755  0.00  0.00    +0.000 A 
ATOM     14  C   UNL     1      30.302  22.695  24.151  0.00  0.00    +0.000 A 
ATOM     15  C   UNL     1      30.514  22.328  25.473  0.00  0.00    +0.000 A 
ATOM     16  C   UNL     1      29.488  22.484  26.382  0.00  0.00    +0.000 A 
ATOM     17  C   UNL     1      28.275  22.986  26.015  0.00  0.00    +0.000 A 
ENDBRANCH   3   8
BRANCH   1  18
ATOM     18  C   UNL     1      30.279  22.828  30.817  0.00  0.00    +0.000 C 
ATOM     19  C   UNL     1      30.284  24.176  31.495  0.00  0.00    +0.000 C 
ATOM     20  C   UNL     1      31.275  22.777  29.686  0.00  0.00    +0.000 C 
BRANCH  18  22
ATOM     21  C   UNL     1      31.787  21.248  31.441  0.00  0.00    +0.000 C 
ATOM     22  O   UNL     1      30.529  21.810  31.745  0.00  0.00    +0.000 OA
ENDBRANCH  18  22
ENDBRANCH   1  18
TORSDOF 3
ENDMDL
MODEL 8
REMARK VINA RESULT:      -6.1     32.916     35.052
REMARK  Name = 
REMARK  3 active torsions:
REMARK  status: ('A' for Active; 'I' for Inactive)
REMARK    1  A    between atoms: O_2  and  C_3
REMARK    2  A    between atoms: C_3  and  C_6
REMARK    3  A    between atoms: C_8  and  C_9
REMARK                            x       y       z     vdW  Elec       q    Type
REMARK                         _______ _______ _______ _____ _____    ______ ____
ROOT
ATOM      1  C   UNL     1      27.504  25.088  23.640  0.00  0.00    +0.000 A 
ATOM      2  C   UNL     1      27.572  24.854  24.999  0.00  0.00    +0.000 A 
ATOM      3  C   UNL     1      26.820  23.857  25.579  0.00  0.00    +0.000 A 
ATOM      4  N   UNL     1      26.032  23.144  24.752  0.00  0.00    +0.000 NA
ATOM      5  C   UNL     1      25.982  23.391  23.425  0.00  0.00    +0.000 A 
ATOM      6  N   UNL     1      25.136  22.617  22.569  0.00  0.00    +0.000 NA
ATOM      7  N   UNL     1      26.709  24.360  22.839  0.00  0.00    +0.000 NA
ENDROOT
BRANCH   3   8
ATOM      8  C   UNL     1      26.884  23.599  27.021  0.00  0.00    +0.000 A 
ATOM      9  C   UNL     1      27.661  22.587  27.541  0.00  0.00    +0.000 A 
ATOM     10  C   UNL     1      27.680  22.393  28.904  0.00  0.00    +0.000 A 
ATOM     11  C   UNL     1      26.943  23.186  29.759  0.00  0.00    +0.000 A 
ATOM     12  C   UNL     1      26.179  24.187  29.210  0.00  0.00    +0.000 A 
ATOM     13  C   UNL     1      25.445  24.972  30.087  0.00  0.00    +0.000 A 
ATOM     14  C   UNL     1      24.664  25.990  29.576  0.00  0.00    +0.000 A 
ATOM     15  C   UNL     1      24.615  26.220  28.208  0.00  0.00    +0.000 A 
ATOM     16  C   UNL     1      25.360  25.417  27.369  0.00  0.00    +0.000 A 
ATOM     17  C   UNL     1      26.138  24.406  27.849  0.00  0.00    +0.000 A 
ENDBRANCH   3   8
BRANCH   1  18
ATOM     18  C   UNL     1      28.341  26.184  23.056  0.00  0.00    +0.000 C 
ATOM     19  C   UNL     1      29.797  25.899  23.329  0.00  0.00    +0.000 C 
ATOM     20  C   UNL     1      27.897  27.466  23.715  0.00  0.00    +0.000 C 
BRANCH  18  22
ATOM     21  C   UNL     1      29.328  26.024  21.016  0.00  0.00    +0.000 C 
ATOM     22  O   UNL     1      28.099  26.226  21.677  0.00  0.00    +0.000 OA
ENDBRANCH  18  22
ENDBRANCH   1  18
TORSDOF 3
ENDMDL
MODEL 9
REMARK VINA RESULT:      -6.1      2.810      4.820
REMARK  Name = 
REMARK  3 active torsions:
REMARK  status: ('A' for Active; 'I' for Inactive)
REMARK    1  A    between atoms: O_2  and  C_3
REMARK    2  A    between atoms: C_3  and  C_6
REMARK    3  A    between atoms: C_8  and  C_9
REMARK                            x       y       z     vdW  Elec       q    Type
REMARK                         _______ _______ _______ _____ _____    ______ ____
ROOT
ATOM      1  C   UNL     1      19.485  -8.159  26.716  0.00  0.00    +0.000 A 
ATOM      2  C   UNL     1      20.631  -8.239  25.952  0.00  0.00    +0.000 A 
ATOM      3  C   UNL     1      21.115  -7.132  25.292  0.00  0.00    +0.000 A 
ATOM      4  N   UNL     1      20.411  -5.993  25.439  0.00  0.00    +0.000 NA
ATOM      5  C   UNL     1      19.292  -5.938  26.192  0.00  0.00    +0.000 A 
ATOM      6  N   UNL     1      18.564  -4.714  26.331  0.00  0.00    +0.000 NA
ATOM      7  N   UNL     1      18.802  -7.009  26.845  0.00  0.00    +0.000 NA
ENDROOT
BRANCH   3   8
ATOM      8  C   UNL     1      22.331  -7.205  24.477  0.00  0.00    +0.000 A 
ATOM      9  C   UNL     1      23.432  -6.420  24.749  0.00  0.00    +0.000 A 
ATOM     10  C   UNL     1      24.546  -6.533  23.947  0.00  0.00    +0.000 A 
ATOM     11  C   UNL     1      24.587  -7.411  22.883  0.00  0.00    +0.000 A 
ATOM     12  C   UNL     1      23.475  -8.179  22.639  0.00  0.00    +0.000 A 
ATOM     13  C   UNL     1      23.537  -9.054  21.564  0.00  0.00    +0.000 A 
ATOM     14  C   UNL     1      22.440  -9.845  21.285  0.00  0.00    +0.000 A 
ATOM     15  C   UNL     1      21.296  -9.763  22.067  0.00  0.00    +0.000 A 
ATOM     16  C   UNL     1      21.274  -8.880  23.127  0.00  0.00    +0.000 A 
ATOM     17  C   UNL     1      22.344  -8.088  23.423  0.00  0.00    +0.000 A 
ENDBRANCH   3   8
BRANCH   1  18
ATOM     18  C   UNL     1      18.997  -9.391  27.415  0.00  0.00    +0.000 C 
ATOM     19  C   UNL     1      19.961  -9.753  28.517  0.00  0.00    +0.000 C 
ATOM     20  C   UNL     1      18.920 -10.478  26.371  0.00  0.00    +0.000 C 
BRANCH  18  22
ATOM     21  C   UNL     1      17.723  -9.529  29.291  0.00  0.00    +0.000 C 
ATOM     22  O   UNL     1      17.729  -9.118  27.941  0.00  0.00    +0.000 OA
ENDBRANCH  18  22
ENDBRANCH   1  18
TORSDOF 3
ENDMDL
MODEL 10
REMARK VINA RESULT:      -6.1     16.545     19.856
REMARK  Name = 
REMARK  3 active torsions:
REMARK  status: ('A' for Active; 'I' for Inactive)
REMARK    1  A    between atoms: O_2  and  C_3
REMARK    2  A    between atoms: C_3  and  C_6
REMARK    3  A    between atoms: C_8  and  C_9
REMARK                            x       y       z     vdW  Elec       q    Type
REMARK                         _______ _______ _______ _____ _____    ______ ____
ROOT
ATOM      1  C   UNL     1      27.060   6.312  15.854  0.00  0.00    +0.000 A 
ATOM      2  C   UNL     1      26.148   5.304  16.095  0.00  0.00    +0.000 A 
ATOM      3  C   UNL     1      25.851   4.918  17.383  0.00  0.00    +0.000 A 
ATOM      4  N   UNL     1      26.494   5.574  18.367  0.00  0.00    +0.000 NA
ATOM      5  C   UNL     1      27.382   6.558  18.107  0.00  0.00    +0.000 A 
ATOM      6  N   UNL     1      28.051   7.239  19.173  0.00  0.00    +0.000 NA
ATOM      7  N   UNL     1      27.686   6.950  16.856  0.00  0.00    +0.000 NA
ENDROOT
BRANCH   3   8
ATOM      8  C   UNL     1      24.886   3.848  17.651  0.00  0.00    +0.000 A 
ATOM      9  C   UNL     1      23.605   4.121  18.084  0.00  0.00    +0.000 A 
ATOM     10  C   UNL     1      22.743   3.074  18.320  0.00  0.00    +0.000 A 
ATOM     11  C   UNL     1      23.129   1.762  18.132  0.00  0.00    +0.000 A 
ATOM     12  C   UNL     1      24.410   1.522  17.701  0.00  0.00    +0.000 A 
ATOM     13  C   UNL     1      24.778   0.197  17.519  0.00  0.00    +0.000 A 
ATOM     14  C   UNL     1      26.057  -0.087  17.085  0.00  0.00    +0.000 A 
ATOM     15  C   UNL     1      26.959   0.939  16.836  0.00  0.00    +0.000 A 
ATOM     16  C   UNL     1      26.555   2.244  17.028  0.00  0.00    +0.000 A 
ATOM     17  C   UNL     1      25.298   2.550  17.456  0.00  0.00    +0.000 A 
ENDBRANCH   3   8
BRANCH   1  18
ATOM     18  C   UNL     1      27.350   6.697  14.436  0.00  0.00    +0.000 C 
ATOM     19  C   UNL     1      26.050   6.951  13.712  0.00  0.00    +0.000 C 
ATOM     20  C   UNL     1      28.106   5.545  13.821  0.00  0.00    +0.000 C 
BRANCH  18  22
ATOM     21  C   UNL     1      29.140   7.710  13.471  0.00  0.00    +0.000 C 
ATOM     22  O   UNL     1      28.137   7.854  14.453  0.00  0.00    +0.000 OA
ENDBRANCH  18  22
ENDBRANCH   1  18
TORSDOF 3
ENDMDL
