MODEL 1
REMARK VINA RESULT:      -5.4      0.000      0.000
REMARK  Name = 
REMARK  5 active torsions:
REMARK  status: ('A' for Active; 'I' for Inactive)
REMARK    1  A    between atoms: C_2  and  O_3
REMARK    2  A    between atoms: O_3  and  C_4
REMARK    3  A    between atoms: C_4  and  C_6
REMARK    4  A    between atoms: C_7  and  C_8
REMARK    5  A    between atoms: C_14  and  C_15
REMARK                            x       y       z     vdW  Elec       q    Type
REMARK                         _______ _______ _______ _____ _____    ______ ____
ROOT
ATOM      1  C   UNL     1      27.750  25.056  22.720  0.00  0.00    +0.000 C 
ATOM      2  C   UNL     1      27.700  26.227  22.201  0.00  0.00    +0.000 C 
ATOM      3  N   UNL     1      28.486  26.667  21.108  0.00  0.00    +0.000 NA
ATOM      4  C   UNL     1      29.387  25.718  20.568  0.00  0.00    +0.000 C 
ATOM      5  O   UNL     1      30.130  26.097  19.553  0.00  0.00    +0.000 OA
ATOM      6  N   UNL     1      29.458  24.479  21.098  0.00  0.00    +0.000 NA
ATOM      7  C   UNL     1      28.689  23.916  22.231  0.00  0.00    +0.000 C 
ENDROOT
BRANCH   7   8
ATOM      8  C   UNL     1      29.734  23.947  23.414  0.00  0.00    +0.000 A 
ATOM      9  C   UNL     1      30.430  25.035  23.762  0.00  0.00    +0.000 A 
ATOM     10  C   UNL     1      31.349  25.051  24.807  0.00  0.00    +0.000 A 
ATOM     11  C   UNL     1      31.555  23.900  25.516  0.00  0.00    +0.000 A 
ATOM     12  O   UNL     1      32.478  23.864  26.590  0.00  0.00    +0.000 OA
ATOM     13  C   UNL     1      30.854  22.766  25.183  0.00  0.00    +0.000 A 
ATOM     14  C   UNL     1      29.929  22.789  24.113  0.00  0.00    +0.000 A 
ENDBRANCH   7   8
BRANCH   1  15
ATOM     15  C   UNL     1      26.899  24.710  23.838  0.00  0.00    +0.000 C 
ATOM     16  O   UNL     1      25.895  23.939  23.726  0.00  0.00    +0.000 OA
BRANCH  15  17
ATOM     17  O   UNL     1      27.101  25.191  25.141  0.00  0.00    +0.000 OA
BRANCH  17  19
ATOM     18  C   UNL     1      28.378  24.950  27.157  0.00  0.00    +0.000 C 
ATOM     19  C   UNL     1      27.326  24.321  26.237  0.00  0.00    +0.000 C 
ENDBRANCH  17  19
ENDBRANCH  15  17
ENDBRANCH   1  15
BRANCH   2  20
ATOM     20  C   UNL     1      26.744  27.219  22.779  0.00  0.00    +0.000 C 
ATOM     21 CL   UNL     1      27.553  28.424  23.777  0.00  0.00    +0.000 Cl
ENDBRANCH   2  20
TORSDOF 5
ENDMDL
MODEL 2
REMARK VINA RESULT:      -5.3      1.696      2.164
REMARK  Name = 
REMARK  5 active torsions:
REMARK  status: ('A' for Active; 'I' for Inactive)
REMARK    1  A    between atoms: C_2  and  O_3
REMARK    2  A    between atoms: O_3  and  C_4
REMARK    3  A    between atoms: C_4  and  C_6
REMARK    4  A    between atoms: C_7  and  C_8
REMARK    5  A    between atoms: C_14  and  C_15
REMARK                            x       y       z     vdW  Elec       q    Type
REMARK                         _______ _______ _______ _____ _____    ______ ____
ROOT
ATOM      1  C   UNL     1      27.155  24.922  23.842  0.00  0.00    +0.000 C 
ATOM      2  C   UNL     1      27.700  25.923  23.255  0.00  0.00    +0.000 C 
ATOM      3  N   UNL     1      28.588  25.839  22.156  0.00  0.00    +0.000 NA
ATOM      4  C   UNL     1      28.879  24.533  21.691  0.00  0.00    +0.000 C 
ATOM      5  O   UNL     1      29.701  24.423  20.672  0.00  0.00    +0.000 OA
ATOM      6  N   UNL     1      28.318  23.463  22.292  0.00  0.00    +0.000 NA
ATOM      7  C   UNL     1      27.383  23.436  23.439  0.00  0.00    +0.000 C 
ENDROOT
BRANCH   7   8
ATOM      8  C   UNL     1      28.313  23.005  24.640  0.00  0.00    +0.000 A 
ATOM      9  C   UNL     1      27.851  22.594  25.826  0.00  0.00    +0.000 A 
ATOM     10  C   UNL     1      28.680  22.218  26.879  0.00  0.00    +0.000 A 
ATOM     11  C   UNL     1      30.035  22.269  26.697  0.00  0.00    +0.000 A 
ATOM     12  O   UNL     1      30.922  21.895  27.736  0.00  0.00    +0.000 OA
ATOM     13  C   UNL     1      30.539  22.687  25.488  0.00  0.00    +0.000 A 
ATOM     14  C   UNL     1      29.665  23.062  24.443  0.00  0.00    +0.000 A 
ENDBRANCH   7   8
BRANCH   1  15
ATOM     15  C   UNL     1      26.258  25.121  24.960  0.00  0.00    +0.000 C 
ATOM     16  O   UNL     1      25.000  24.971  24.867  0.00  0.00    +0.000 OA
BRANCH  15  17
ATOM     17  O   UNL     1      26.692  25.498  26.240  0.00  0.00    +0.000 OA
BRANCH  17  19
ATOM     18  C   UNL     1      25.755  24.511  28.216  0.00  0.00    +0.000 C 
ATOM     19  C   UNL     1      25.783  25.740  27.301  0.00  0.00    +0.000 C 
ENDBRANCH  17  19
ENDBRANCH  15  17
ENDBRANCH   1  15
BRANCH   2  20
ATOM     20  C   UNL     1      27.384  27.295  23.756  0.00  0.00    +0.000 C 
ATOM     21 CL   UNL     1      26.433  28.226  22.602  0.00  0.00    +0.000 Cl
ENDBRANCH   2  20
TORSDOF 5
ENDMDL
MODEL 3
REMARK VINA RESULT:      -5.3      2.514      5.030
REMARK  Name = 
REMARK  5 active torsions:
REMARK  status: ('A' for Active; 'I' for Inactive)
REMARK    1  A    between atoms: C_2  and  O_3
REMARK    2  A    between atoms: O_3  and  C_4
REMARK    3  A    between atoms: C_4  and  C_6
REMARK    4  A    between atoms: C_7  and  C_8
REMARK    5  A    between atoms: C_14  and  C_15
REMARK                            x       y       z     vdW  Elec       q    Type
REMARK                         _______ _______ _______ _____ _____    ______ ____
ROOT
ATOM      1  C   UNL     1      28.777  24.002  23.412  0.00  0.00    +0.000 C 
ATOM      2  C   UNL     1      27.895  23.775  24.314  0.00  0.00    +0.000 C 
ATOM      3  N   UNL     1      26.570  23.340  24.066  0.00  0.00    +0.000 NA
ATOM      4  C   UNL     1      26.223  23.150  22.707  0.00  0.00    +0.000 C 
ATOM      5  O   UNL     1      25.000  22.747  22.446  0.00  0.00    +0.000 OA
ATOM      6  N   UNL     1      27.134  23.383  21.739  0.00  0.00    +0.000 NA
ATOM      7  C   UNL     1      28.536  23.835  21.884  0.00  0.00    +0.000 C 
ENDROOT
BRANCH   7   8
ATOM      8  C   UNL     1      28.454  25.362  21.490  0.00  0.00    +0.000 A 
ATOM      9  C   UNL     1      27.510  26.196  21.940  0.00  0.00    +0.000 A 
ATOM     10  C   UNL     1      27.448  27.540  21.586  0.00  0.00    +0.000 A 
ATOM     11  C   UNL     1      28.396  28.039  20.736  0.00  0.00    +0.000 A 
ATOM     12  O   UNL     1      28.378  29.400  20.345  0.00  0.00    +0.000 OA
ATOM     13  C   UNL     1      29.379  27.206  20.257  0.00  0.00    +0.000 A 
ATOM     14  C   UNL     1      29.409  25.845  20.639  0.00  0.00    +0.000 A 
ENDBRANCH   7   8
BRANCH   1  15
ATOM     15  C   UNL     1      30.106  24.444  23.777  0.00  0.00    +0.000 C 
ATOM     16  O   UNL     1      30.397  25.667  23.963  0.00  0.00    +0.000 OA
BRANCH  15  17
ATOM     17  O   UNL     1      31.189  23.571  23.955  0.00  0.00    +0.000 OA
BRANCH  17  19
ATOM     18  C   UNL     1      32.029  23.737  26.196  0.00  0.00    +0.000 C 
ATOM     19  C   UNL     1      32.334  23.936  24.708  0.00  0.00    +0.000 C 
ENDBRANCH  17  19
ENDBRANCH  15  17
ENDBRANCH   1  15
BRANCH   2  20
ATOM     20  C   UNL     1      28.275  23.979  25.745  0.00  0.00    +0.000 C 
ATOM     21 CL   UNL     1      28.680  22.466  26.552  0.00  0.00    +0.000 Cl
ENDBRANCH   2  20
TORSDOF 5
ENDMDL
MODEL 4
REMARK VINA RESULT:      -5.2      2.957      4.946
REMARK  Name = 
REMARK  5 active torsions:
REMARK  status: ('A' for Active; 'I' for Inactive)
REMARK    1  A    between atoms: C_2  and  O_3
REMARK    2  A    between atoms: O_3  and  C_4
REMARK    3  A    between atoms: C_4  and  C_6
REMARK    4  A    between atoms: C_7  and  C_8
REMARK    5  A    between atoms: C_14  and  C_15
REMARK                            x       y       z     vdW  Elec       q    Type
REMARK                         _______ _______ _______ _____ _____    ______ ____
ROOT
ATOM      1  C   UNL     1      27.950  24.942  24.593  0.00  0.00    +0.000 C 
ATOM      2  C   UNL     1      28.319  23.990  23.818  0.00  0.00    +0.000 C 
ATOM      3  N   UNL     1      27.444  23.153  23.083  0.00  0.00    +0.000 NA
ATOM      4  C   UNL     1      26.060  23.414  23.236  0.00  0.00    +0.000 C 
ATOM      5  O   UNL     1      25.224  22.654  22.566  0.00  0.00    +0.000 OA
ATOM      6  N   UNL     1      25.648  24.411  24.046  0.00  0.00    +0.000 NA
ATOM      7  C   UNL     1      26.468  25.339  24.855  0.00  0.00    +0.000 C 
ENDROOT
BRANCH   7   8
ATOM      8  C   UNL     1      26.323  24.756  26.315  0.00  0.00    +0.000 A 
ATOM      9  C   UNL     1      26.676  23.512  26.657  0.00  0.00    +0.000 A 
ATOM     10  C   UNL     1      26.543  23.008  27.947  0.00  0.00    +0.000 A 
ATOM     11  C   UNL     1      26.025  23.821  28.918  0.00  0.00    +0.000 A 
ATOM     12  O   UNL     1      25.869  23.357  30.247  0.00  0.00    +0.000 OA
ATOM     13  C   UNL     1      25.653  25.105  28.597  0.00  0.00    +0.000 A 
ATOM     14  C   UNL     1      25.803  25.581  27.274  0.00  0.00    +0.000 A 
ENDBRANCH   7   8
BRANCH   1  15
ATOM     15  C   UNL     1      28.931  25.739  25.299  0.00  0.00    +0.000 C 
ATOM     16  O   UNL     1      29.258  26.910  24.933  0.00  0.00    +0.000 OA
BRANCH  15  17
ATOM     17  O   UNL     1      29.607  25.293  26.445  0.00  0.00    +0.000 OA
BRANCH  17  19
ATOM     18  C   UNL     1      29.601  24.981  28.823  0.00  0.00    +0.000 C 
ATOM     19  C   UNL     1      29.544  25.995  27.675  0.00  0.00    +0.000 C 
ENDBRANCH  17  19
ENDBRANCH  15  17
ENDBRANCH   1  15
BRANCH   2  20
ATOM     20  C   UNL     1      29.782  23.726  23.665  0.00  0.00    +0.000 C 
ATOM     21 CL   UNL     1      30.327  22.380  24.662  0.00  0.00    +0.000 Cl
ENDBRANCH   2  20
TORSDOF 5
ENDMDL
MODEL 5
REMARK VINA RESULT:      -5.2     33.800     35.341
REMARK  Name = 
REMARK  5 active torsions:
REMARK  status: ('A' for Active; 'I' for Inactive)
REMARK    1  A    between atoms: C_2  and  O_3
REMARK    2  A    between atoms: O_3  and  C_4
REMARK    3  A    between atoms: C_4  and  C_6
REMARK    4  A    between atoms: C_7  and  C_8
REMARK    5  A    between atoms: C_14  and  C_15
REMARK                            x       y       z     vdW  Elec       q    Type
REMARK                         _______ _______ _______ _____ _____    ______ ____
ROOT
ATOM      1  C   UNL     1      19.541  -8.103  26.685  0.00  0.00    +0.000 C 
ATOM      2  C   UNL     1      20.092  -7.286  25.864  0.00  0.00    +0.000 C 
ATOM      3  N   UNL     1      19.737  -5.924  25.708  0.00  0.00    +0.000 NA
ATOM      4  C   UNL     1      18.687  -5.457  26.537  0.00  0.00    +0.000 C 
ATOM      5  O   UNL     1      18.335  -4.197  26.414  0.00  0.00    +0.000 OA
ATOM      6  N   UNL     1      18.092  -6.297  27.408  0.00  0.00    +0.000 NA
ATOM      7  C   UNL     1      18.382  -7.728  27.653  0.00  0.00    +0.000 C 
ENDROOT
BRANCH   7   8
ATOM      8  C   UNL     1      17.201  -8.459  26.901  0.00  0.00    +0.000 A 
ATOM      9  C   UNL     1      16.633  -7.995  25.783  0.00  0.00    +0.000 A 
ATOM     10  C   UNL     1      15.592  -8.648  25.129  0.00  0.00    +0.000 A 
ATOM     11  C   UNL     1      15.124  -9.823  25.652  0.00  0.00    +0.000 A 
ATOM     12  O   UNL     1      14.068 -10.526  25.023  0.00  0.00    +0.000 OA
ATOM     13  C   UNL     1      15.689 -10.325  26.799  0.00  0.00    +0.000 A 
ATOM     14  C   UNL     1      16.745  -9.632  27.436  0.00  0.00    +0.000 A 
ENDBRANCH   7   8
BRANCH   1  15
ATOM     15  C   UNL     1      19.984  -9.478  26.764  0.00  0.00    +0.000 C 
ATOM     16  O   UNL     1      19.683 -10.348  25.889  0.00  0.00    +0.000 OA
BRANCH  15  17
ATOM     17  O   UNL     1      20.780  -9.974  27.808  0.00  0.00    +0.000 OA
BRANCH  17  19
ATOM     18  C   UNL     1      20.104  -9.952  30.109  0.00  0.00    +0.000 C 
ATOM     19  C   UNL     1      20.247 -10.793  28.836  0.00  0.00    +0.000 C 
ENDBRANCH  17  19
ENDBRANCH  15  17
ENDBRANCH   1  15
BRANCH   2  20
ATOM     20  C   UNL     1      21.198  -7.792  24.996  0.00  0.00    +0.000 C 
ATOM     21 CL   UNL     1      22.488  -6.609  24.798  0.00  0.00    +0.000 Cl
ENDBRANCH   2  20
TORSDOF 5
ENDMDL
MODEL 6
REMARK VINA RESULT:      -5.0     32.858     34.383
REMARK  Name = 
REMARK  5 active torsions:
REMARK  status: ('A' for Active; 'I' for Inactive)
REMARK    1  A    between atoms: C_2  and  O_3
REMARK    2  A    between atoms: O_3  and  C_4
REMARK    3  A    between atoms: C_4  and  C_6
REMARK    4  A    between atoms: C_7  and  C_8
REMARK    5  A    between atoms: C_14  and  C_15
REMARK                            x       y       z     vdW  Elec       q    Type
REMARK                         _______ _______ _______ _____ _____    ______ ____
ROOT
ATOM      1  C   UNL     1      21.431  -8.978  23.890  0.00  0.00    +0.000 C 
ATOM      2  C   UNL     1      21.942  -8.459  22.834  0.00  0.00    +0.000 C 
ATOM      3  N   UNL     1      23.020  -7.541  22.819  0.00  0.00    +0.000 NA
ATOM      4  C   UNL     1      23.554  -7.187  24.082  0.00  0.00    +0.000 C 
ATOM      5  O   UNL     1      24.555  -6.337  24.099  0.00  0.00    +0.000 OA
ATOM      6  N   UNL     1      23.033  -7.720  25.206  0.00  0.00    +0.000 NA
ATOM      7  C   UNL     1      21.915  -8.682  25.339  0.00  0.00    +0.000 C 
ENDROOT
BRANCH   7   8
ATOM      8  C   UNL     1      20.717  -7.766  25.805  0.00  0.00    +0.000 A 
ATOM      9  C   UNL     1      20.603  -6.472  25.487  0.00  0.00    +0.000 A 
ATOM     10  C   UNL     1      19.542  -5.674  25.905  0.00  0.00    +0.000 A 
ATOM     11  C   UNL     1      18.565  -6.236  26.680  0.00  0.00    +0.000 A 
ATOM     12  O   UNL     1      17.463  -5.467  27.129  0.00  0.00    +0.000 OA
ATOM     13  C   UNL     1      18.654  -7.564  27.022  0.00  0.00    +0.000 A 
ATOM     14  C   UNL     1      19.748  -8.343  26.579  0.00  0.00    +0.000 A 
ENDBRANCH   7   8
BRANCH   1  15
ATOM     15  C   UNL     1      20.328  -9.910  23.792  0.00  0.00    +0.000 C 
ATOM     16  O   UNL     1      20.445 -11.145  24.065  0.00  0.00    +0.000 OA
BRANCH  15  17
ATOM     17  O   UNL     1      19.036  -9.538  23.389  0.00  0.00    +0.000 OA
BRANCH  17  19
ATOM     18  C   UNL     1      17.919 -10.342  21.425  0.00  0.00    +0.000 C 
ATOM     19  C   UNL     1      18.085 -10.490  22.941  0.00  0.00    +0.000 C 
ENDBRANCH  17  19
ENDBRANCH  15  17
ENDBRANCH   1  15
BRANCH   2  20
ATOM     20  C   UNL     1      21.369  -8.841  21.508  0.00  0.00    +0.000 C 
ATOM     21 CL   UNL     1      21.858  -7.738  20.225  0.00  0.00    +0.000 Cl
ENDBRANCH   2  20
TORSDOF 5
ENDMDL
MODEL 7
REMARK VINA RESULT:      -5.0     22.260     24.188
REMARK  Name = 
REMARK  5 active torsions:
REMARK  status: ('A' for Active; 'I' for Inactive)
REMARK    1  A    between atoms: C_2  and  O_3
REMARK    2  A    between atoms: O_3  and  C_4
REMARK    3  A    between atoms: C_4  and  C_6
REMARK    4  A    between atoms: C_7  and  C_8
REMARK    5  A    between atoms: C_14  and  C_15
REMARK                            x       y       z     vdW  Elec       q    Type
REMARK                         _______ _______ _______ _____ _____    ______ ____
ROOT
ATOM      1  C   UNL     1      17.914   9.189  39.002  0.00  0.00    +0.000 C 
ATOM      2  C   UNL     1      16.901   9.717  39.586  0.00  0.00    +0.000 C 
ATOM      3  N   UNL     1      15.973  10.593  38.971  0.00  0.00    +0.000 NA
ATOM      4  C   UNL     1      16.207  10.889  37.606  0.00  0.00    +0.000 C 
ATOM      5  O   UNL     1      15.363  11.699  37.010  0.00  0.00    +0.000 OA
ATOM      6  N   UNL     1      17.267  10.345  36.971  0.00  0.00    +0.000 NA
ATOM      7  C   UNL     1      18.292   9.425  37.511  0.00  0.00    +0.000 C 
ENDROOT
BRANCH   7   8
ATOM      8  C   UNL     1      19.535  10.373  37.731  0.00  0.00    +0.000 A 
ATOM      9  C   UNL     1      19.463  11.565  38.333  0.00  0.00    +0.000 A 
ATOM     10  C   UNL     1      20.565  12.393  38.520  0.00  0.00    +0.000 A 
ATOM     11  C   UNL     1      21.786  11.972  38.068  0.00  0.00    +0.000 A 
ATOM     12  O   UNL     1      22.940  12.777  38.236  0.00  0.00    +0.000 OA
ATOM     13  C   UNL     1      21.892  10.751  37.447  0.00  0.00    +0.000 A 
ATOM     14  C   UNL     1      20.748   9.938  37.274  0.00  0.00    +0.000 A 
ENDBRANCH   7   8
BRANCH   1  15
ATOM     15  C   UNL     1      18.801   8.304  39.726  0.00  0.00    +0.000 C 
ATOM     16  O   UNL     1      19.716   8.729  40.499  0.00  0.00    +0.000 OA
BRANCH  15  17
ATOM     17  O   UNL     1      18.736   6.905  39.641  0.00  0.00    +0.000 OA
BRANCH  17  19
ATOM     18  C   UNL     1      17.637   5.710  41.407  0.00  0.00    +0.000 C 
ATOM     19  C   UNL     1      18.980   6.071  40.761  0.00  0.00    +0.000 C 
ENDBRANCH  17  19
ENDBRANCH  15  17
ENDBRANCH   1  15
BRANCH   2  20
ATOM     20  C   UNL     1      16.665   9.395  41.025  0.00  0.00    +0.000 C 
ATOM     21 CL   UNL     1      15.266   8.350  41.257  0.00  0.00    +0.000 Cl
ENDBRANCH   2  20
TORSDOF 5
ENDMDL
MODEL 8
REMARK VINA RESULT:      -4.7      3.218      5.519
REMARK  Name = 
REMARK  5 active torsions:
REMARK  status: ('A' for Active; 'I' for Inactive)
REMARK    1  A    between atoms: C_2  and  O_3
REMARK    2  A    between atoms: O_3  and  C_4
REMARK    3  A    between atoms: C_4  and  C_6
REMARK    4  A    between atoms: C_7  and  C_8
REMARK    5  A    between atoms: C_14  and  C_15
REMARK                            x       y       z     vdW  Elec       q    Type
REMARK                         _______ _______ _______ _____ _____    ______ ____
ROOT
ATOM      1  C   UNL     1      28.411  23.161  24.425  0.00  0.00    +0.000 C 
ATOM      2  C   UNL     1      29.367  22.664  25.120  0.00  0.00    +0.000 C 
ATOM      3  N   UNL     1      29.290  22.342  26.498  0.00  0.00    +0.000 NA
ATOM      4  C   UNL     1      28.049  22.601  27.128  0.00  0.00    +0.000 C 
ATOM      5  O   UNL     1      27.948  22.312  28.406  0.00  0.00    +0.000 OA
ATOM      6  N   UNL     1      27.028  23.124  26.417  0.00  0.00    +0.000 NA
ATOM      7  C   UNL     1      26.997  23.495  24.985  0.00  0.00    +0.000 C 
ENDROOT
BRANCH   7   8
ATOM      8  C   UNL     1      27.126  25.068  25.027  0.00  0.00    +0.000 A 
ATOM      9  C   UNL     1      28.111  25.716  25.658  0.00  0.00    +0.000 A 
ATOM     10  C   UNL     1      28.214  27.104  25.689  0.00  0.00    +0.000 A 
ATOM     11  C   UNL     1      27.263  27.846  25.043  0.00  0.00    +0.000 A 
ATOM     12  O   UNL     1      27.323  29.261  25.043  0.00  0.00    +0.000 OA
ATOM     13  C   UNL     1      26.239  27.208  24.384  0.00  0.00    +0.000 A 
ATOM     14  C   UNL     1      26.168  25.796  24.376  0.00  0.00    +0.000 A 
ENDBRANCH   7   8
BRANCH   1  15
ATOM     15  C   UNL     1      28.597  23.452  23.020  0.00  0.00    +0.000 C 
ATOM     16  O   UNL     1      27.829  22.997  22.116  0.00  0.00    +0.000 OA
BRANCH  15  17
ATOM     17  O   UNL     1      29.636  24.257  22.529  0.00  0.00    +0.000 OA
BRANCH  17  19
ATOM     18  C   UNL     1      29.142  26.549  22.022  0.00  0.00    +0.000 C 
ATOM     19  C   UNL     1      29.444  25.159  21.452  0.00  0.00    +0.000 C 
ENDBRANCH  17  19
ENDBRANCH  15  17
ENDBRANCH   1  15
BRANCH   2  20
ATOM     20  C   UNL     1      30.671  22.396  24.443  0.00  0.00    +0.000 C 
ATOM     21 CL   UNL     1      31.915  23.556  24.902  0.00  0.00    +0.000 Cl
ENDBRANCH   2  20
TORSDOF 5
ENDMDL
MODEL 9
REMARK VINA RESULT:      -4.7     39.142     40.739
REMARK  Name = 
REMARK  5 active torsions:
REMARK  status: ('A' for Active; 'I' for Inactive)
REMARK    1  A    between atoms: C_2  and  O_3
REMARK    2  A    between atoms: O_3  and  C_4
REMARK    3  A    between atoms: C_4  and  C_6
REMARK    4  A    between atoms: C_7  and  C_8
REMARK    5  A    between atoms: C_14  and  C_15
REMARK                            x       y       z     vdW  Elec       q    Type
REMARK                         _______ _______ _______ _____ _____    ______ ____
ROOT
ATOM      1  C   UNL     1      -1.300  -2.490  20.376  0.00  0.00    +0.000 C 
ATOM      2  C   UNL     1      -2.432  -2.997  20.702  0.00  0.00    +0.000 C 
ATOM      3  N   UNL     1      -3.191  -2.632  21.840  0.00  0.00    +0.000 NA
ATOM      4  C   UNL     1      -2.630  -1.625  22.664  0.00  0.00    +0.000 C 
ATOM      5  O   UNL     1      -3.312  -1.266  23.728  0.00  0.00    +0.000 OA
ATOM      6  N   UNL     1      -1.441  -1.076  22.342  0.00  0.00    +0.000 NA
ATOM      7  C   UNL     1      -0.569  -1.379  21.185  0.00  0.00    +0.000 C 
ENDROOT
BRANCH   7   8
ATOM      8  C   UNL     1       0.570  -2.266  21.825  0.00  0.00    +0.000 A 
ATOM      9  C   UNL     1       0.336  -3.300  22.641  0.00  0.00    +0.000 A 
ATOM     10  C   UNL     1       1.348  -4.074  23.201  0.00  0.00    +0.000 A 
ATOM     11  C   UNL     1       2.648  -3.767  22.905  0.00  0.00    +0.000 A 
ATOM     12  O   UNL     1       3.714  -4.525  23.448  0.00  0.00    +0.000 OA
ATOM     13  C   UNL     1       2.919  -2.711  22.069  0.00  0.00    +0.000 A 
ATOM     14  C   UNL     1       1.864  -1.946  21.521  0.00  0.00    +0.000 A 
ENDBRANCH   7   8
BRANCH   1  15
ATOM     15  C   UNL     1      -0.608  -2.937  19.187  0.00  0.00    +0.000 C 
ATOM     16  O   UNL     1      -0.574  -2.257  18.114  0.00  0.00    +0.000 OA
BRANCH  15  17
ATOM     17  O   UNL     1       0.084  -4.155  19.108  0.00  0.00    +0.000 OA
BRANCH  17  19
ATOM     18  C   UNL     1       2.179  -5.264  19.478  0.00  0.00    +0.000 C 
ATOM     19  C   UNL     1       1.419  -4.232  18.637  0.00  0.00    +0.000 C 
ENDBRANCH  17  19
ENDBRANCH  15  17
ENDBRANCH   1  15
BRANCH   2  20
ATOM     20  C   UNL     1      -3.012  -4.058  19.824  0.00  0.00    +0.000 C 
ATOM     21 CL   UNL     1      -2.701  -5.679  20.438  0.00  0.00    +0.000 Cl
ENDBRANCH   2  20
TORSDOF 5
ENDMDL
MODEL 10
REMARK VINA RESULT:      -4.7     21.399     22.913
REMARK  Name = 
REMARK  5 active torsions:
REMARK  status: ('A' for Active; 'I' for Inactive)
REMARK    1  A    between atoms: C_2  and  O_3
REMARK    2  A    between atoms: O_3  and  C_4
REMARK    3  A    between atoms: C_4  and  C_6
REMARK    4  A    between atoms: C_7  and  C_8
REMARK    5  A    between atoms: C_14  and  C_15
REMARK                            x       y       z     vdW  Elec       q    Type
REMARK                         _______ _______ _______ _____ _____    ______ ____
ROOT
ATOM      1  C   UNL     1      25.932   2.694  16.200  0.00  0.00    +0.000 C 
ATOM      2  C   UNL     1      25.572   1.683  16.901  0.00  0.00    +0.000 C 
ATOM      3  N   UNL     1      24.351   1.577  17.610  0.00  0.00    +0.000 NA
ATOM      4  C   UNL     1      23.480   2.690  17.518  0.00  0.00    +0.000 C 
ATOM      5  O   UNL     1      22.339   2.621  18.165  0.00  0.00    +0.000 OA
ATOM      6  N   UNL     1      23.837   3.766  16.786  0.00  0.00    +0.000 NA
ATOM      7  C   UNL     1      25.079   3.981  16.010  0.00  0.00    +0.000 C 
ENDROOT
BRANCH   7   8
ATOM      8  C   UNL     1      25.909   4.953  16.938  0.00  0.00    +0.000 A 
ATOM      9  C   UNL     1      26.222   4.679  18.209  0.00  0.00    +0.000 A 
ATOM     10  C   UNL     1      26.953   5.543  19.018  0.00  0.00    +0.000 A 
ATOM     11  C   UNL     1      27.375   6.734  18.492  0.00  0.00    +0.000 A 
ATOM     12  O   UNL     1      28.124   7.648  19.273  0.00  0.00    +0.000 OA
ATOM     13  C   UNL     1      27.069   7.043  17.188  0.00  0.00    +0.000 A 
ATOM     14  C   UNL     1      26.323   6.139  16.398  0.00  0.00    +0.000 A 
ENDBRANCH   7   8
BRANCH   1  15
ATOM     15  C   UNL     1      27.206   2.698  15.513  0.00  0.00    +0.000 C 
ATOM     16  O   UNL     1      27.310   2.543  14.256  0.00  0.00    +0.000 OA
BRANCH  15  17
ATOM     17  O   UNL     1      28.435   2.869  16.167  0.00  0.00    +0.000 OA
BRANCH  17  19
ATOM     18  C   UNL     1      29.988   4.422  17.134  0.00  0.00    +0.000 C 
ATOM     19  C   UNL     1      29.316   3.934  15.846  0.00  0.00    +0.000 C 
ENDBRANCH  17  19
ENDBRANCH  15  17
ENDBRANCH   1  15
BRANCH   2  20
ATOM     20  C   UNL     1      26.500   0.515  16.990  0.00  0.00    +0.000 C 
ATOM     21 CL   UNL     1      25.730  -0.899  17.704  0.00  0.00    +0.000 Cl
ENDBRANCH   2  20
TORSDOF 5
ENDMDL
