MODEL 1
REMARK VINA RESULT:      -5.9      0.000      0.000
REMARK  Name = 
REMARK  5 active torsions:
REMARK  status: ('A' for Active; 'I' for Inactive)
REMARK    1  A    between atoms: C_2  and  C_12
REMARK    2  A    between atoms: N_3  and  C_4
REMARK    3  A    between atoms: C_4  and  C_5
REMARK    4  A    between atoms: C_5  and  C_6
REMARK    5  A    between atoms: C_17  and  N_18
REMARK                            x       y       z     vdW  Elec       q    Type
REMARK                         _______ _______ _______ _____ _____    ______ ____
ROOT
ATOM      1  O   UNL     1      25.748  22.716  25.348  0.00  0.00    +0.000 OA
ATOM      2  C   UNL     1      26.731  23.388  25.754  0.00  0.00    +0.000 C 
ATOM      3  N   UNL     1      26.526  24.429  26.685  0.00  0.00    +0.000 NA
ENDROOT
BRANCH   2   4
ATOM      4  C   UNL     1      28.095  23.118  25.296  0.00  0.00    +0.000 A 
ATOM      5  C   UNL     1      28.952  22.492  26.215  0.00  0.00    +0.000 A 
ATOM      6  C   UNL     1      30.253  22.265  25.907  0.00  0.00    +0.000 A 
ATOM      7  C   UNL     1      30.753  22.642  24.697  0.00  0.00    +0.000 A 
ATOM      8  C   UNL     1      29.918  23.271  23.765  0.00  0.00    +0.000 A 
ATOM      9  C   UNL     1      28.571  23.499  24.090  0.00  0.00    +0.000 A 
BRANCH   9  10
ATOM     10  N   UNL     1      27.735  24.089  23.093  0.00  0.00    +0.000 N 
ATOM     11  O   UNL     1      27.590  25.307  22.986  0.00  0.00    +0.000 OA
ATOM     12  O   UNL     1      27.096  23.244  22.227  0.00  0.00    +0.000 OA
ENDBRANCH   9  10
ENDBRANCH   2   4
BRANCH   3  13
ATOM     13  C   UNL     1      25.227  24.766  27.181  0.00  0.00    +0.000 C 
BRANCH  13  14
ATOM     14  C   UNL     1      25.200  25.029  28.646  0.00  0.00    +0.000 C 
BRANCH  14  15
ATOM     15  C   UNL     1      26.183  24.234  29.421  0.00  0.00    +0.000 C 
ATOM     16  C   UNL     1      26.135  22.905  29.593  0.00  0.00    +0.000 C 
ATOM     17  C   UNL     1      27.174  22.219  30.388  0.00  0.00    +0.000 C 
ATOM     18  C   UNL     1      28.522  22.633  29.907  0.00  0.00    +0.000 C 
ATOM     19  C   UNL     1      28.617  24.106  29.635  0.00  0.00    +0.000 C 
ATOM     20  C   UNL     1      27.374  24.891  30.060  0.00  0.00    +0.000 C 
ENDBRANCH  14  15
ENDBRANCH  13  14
ENDBRANCH   3  13
TORSDOF 5
ENDMDL
MODEL 2
REMARK VINA RESULT:      -5.8     18.335     20.064
REMARK  Name = 
REMARK  5 active torsions:
REMARK  status: ('A' for Active; 'I' for Inactive)
REMARK    1  A    between atoms: C_2  and  C_12
REMARK    2  A    between atoms: N_3  and  C_4
REMARK    3  A    between atoms: C_4  and  C_5
REMARK    4  A    between atoms: C_5  and  C_6
REMARK    5  A    between atoms: C_17  and  N_18
REMARK                            x       y       z     vdW  Elec       q    Type
REMARK                         _______ _______ _______ _____ _____    ______ ____
ROOT
ATOM      1  O   UNL     1      17.052   8.811  35.105  0.00  0.00    +0.000 OA
ATOM      2  C   UNL     1      17.061  10.066  35.027  0.00  0.00    +0.000 C 
ATOM      3  N   UNL     1      17.808  10.817  35.961  0.00  0.00    +0.000 NA
ENDROOT
BRANCH   2   4
ATOM      4  C   UNL     1      16.325  10.783  33.984  0.00  0.00    +0.000 A 
ATOM      5  C   UNL     1      16.670  10.487  32.656  0.00  0.00    +0.000 A 
ATOM      6  C   UNL     1      16.093  11.151  31.624  0.00  0.00    +0.000 A 
ATOM      7  C   UNL     1      15.165  12.119  31.859  0.00  0.00    +0.000 A 
ATOM      8  C   UNL     1      14.805  12.434  33.176  0.00  0.00    +0.000 A 
ATOM      9  C   UNL     1      15.405  11.740  34.239  0.00  0.00    +0.000 A 
BRANCH   9  10
ATOM     10  N   UNL     1      14.970  12.046  35.565  0.00  0.00    +0.000 N 
ATOM     11  O   UNL     1      14.058  11.433  36.121  0.00  0.00    +0.000 OA
ATOM     12  O   UNL     1      15.621  13.053  36.224  0.00  0.00    +0.000 OA
ENDBRANCH   9  10
ENDBRANCH   2   4
BRANCH   3  13
ATOM     13  C   UNL     1      18.552  10.200  37.017  0.00  0.00    +0.000 C 
BRANCH  13  14
ATOM     14  C   UNL     1      18.288  10.795  38.355  0.00  0.00    +0.000 C 
BRANCH  14  15
ATOM     15  C   UNL     1      18.084   9.795  39.431  0.00  0.00    +0.000 C 
ATOM     16  C   UNL     1      16.919   9.558  40.052  0.00  0.00    +0.000 C 
ATOM     17  C   UNL     1      16.835   8.533  41.113  0.00  0.00    +0.000 C 
ATOM     18  C   UNL     1      17.431   7.259  40.621  0.00  0.00    +0.000 C 
ATOM     19  C   UNL     1      18.707   7.468  39.860  0.00  0.00    +0.000 C 
ATOM     20  C   UNL     1      19.211   8.912  39.889  0.00  0.00    +0.000 C 
ENDBRANCH  14  15
ENDBRANCH  13  14
ENDBRANCH   3  13
TORSDOF 5
ENDMDL
MODEL 3
REMARK VINA RESULT:      -5.7     26.491     28.083
REMARK  Name = 
REMARK  5 active torsions:
REMARK  status: ('A' for Active; 'I' for Inactive)
REMARK    1  A    between atoms: C_2  and  C_12
REMARK    2  A    between atoms: N_3  and  C_4
REMARK    3  A    between atoms: C_4  and  C_5
REMARK    4  A    between atoms: C_5  and  C_6
REMARK    5  A    between atoms: C_17  and  N_18
REMARK                            x       y       z     vdW  Elec       q    Type
REMARK                         _______ _______ _______ _____ _____    ______ ____
ROOT
ATOM      1  O   UNL     1      34.859  -2.357  35.006  0.00  0.00    +0.000 OA
ATOM      2  C   UNL     1      34.158  -1.942  34.048  0.00  0.00    +0.000 C 
ATOM      3  N   UNL     1      33.563  -2.871  33.167  0.00  0.00    +0.000 NA
ENDROOT
BRANCH   2   4
ATOM      4  C   UNL     1      33.926  -0.514  33.820  0.00  0.00    +0.000 A 
ATOM      5  C   UNL     1      34.345  -0.001  32.582  0.00  0.00    +0.000 A 
ATOM      6  C   UNL     1      34.236   1.322  32.307  0.00  0.00    +0.000 A 
ATOM      7  C   UNL     1      33.718   2.179  33.230  0.00  0.00    +0.000 A 
ATOM      8  C   UNL     1      33.296   1.691  34.473  0.00  0.00    +0.000 A 
ATOM      9  C   UNL     1      33.408   0.319  34.748  0.00  0.00    +0.000 A 
BRANCH   9  10
ATOM     10  N   UNL     1      32.912  -0.151  36.003  0.00  0.00    +0.000 N 
ATOM     11  O   UNL     1      31.918  -0.872  36.094  0.00  0.00    +0.000 OA
ATOM     12  O   UNL     1      33.598   0.216  37.129  0.00  0.00    +0.000 OA
ENDBRANCH   9  10
ENDBRANCH   2   4
BRANCH   3  13
ATOM     13  C   UNL     1      33.741  -4.283  33.311  0.00  0.00    +0.000 C 
BRANCH  13  14
ATOM     14  C   UNL     1      32.634  -5.084  32.721  0.00  0.00    +0.000 C 
BRANCH  14  15
ATOM     15  C   UNL     1      32.994  -5.778  31.462  0.00  0.00    +0.000 C 
ATOM     16  C   UNL     1      32.146  -6.485  30.700  0.00  0.00    +0.000 C 
ATOM     17  C   UNL     1      32.620  -7.135  29.461  0.00  0.00    +0.000 C 
ATOM     18  C   UNL     1      33.360  -6.142  28.632  0.00  0.00    +0.000 C 
ATOM     19  C   UNL     1      34.280  -5.277  29.442  0.00  0.00    +0.000 C 
ATOM     20  C   UNL     1      34.389  -5.698  30.908  0.00  0.00    +0.000 C 
ENDBRANCH  14  15
ENDBRANCH  13  14
ENDBRANCH   3  13
TORSDOF 5
ENDMDL
MODEL 4
REMARK VINA RESULT:      -5.7     17.149     18.982
REMARK  Name = 
REMARK  5 active torsions:
REMARK  status: ('A' for Active; 'I' for Inactive)
REMARK    1  A    between atoms: C_2  and  C_12
REMARK    2  A    between atoms: N_3  and  C_4
REMARK    3  A    between atoms: C_4  and  C_5
REMARK    4  A    between atoms: C_5  and  C_6
REMARK    5  A    between atoms: C_17  and  N_18
REMARK                            x       y       z     vdW  Elec       q    Type
REMARK                         _______ _______ _______ _____ _____    ______ ____
ROOT
ATOM      1  O   UNL     1      17.784   9.420  38.228  0.00  0.00    +0.000 OA
ATOM      2  C   UNL     1      18.230  10.217  37.364  0.00  0.00    +0.000 C 
ATOM      3  N   UNL     1      19.402  10.956  37.637  0.00  0.00    +0.000 NA
ENDROOT
BRANCH   2   4
ATOM      4  C   UNL     1      17.576  10.399  36.067  0.00  0.00    +0.000 A 
ATOM      5  C   UNL     1      18.102   9.667  34.991  0.00  0.00    +0.000 A 
ATOM      6  C   UNL     1      17.608   9.822  33.738  0.00  0.00    +0.000 A 
ATOM      7  C   UNL     1      16.590  10.694  33.500  0.00  0.00    +0.000 A 
ATOM      8  C   UNL     1      16.050  11.438  34.557  0.00  0.00    +0.000 A 
ATOM      9  C   UNL     1      16.564  11.268  35.853  0.00  0.00    +0.000 A 
BRANCH   9  10
ATOM     10  N   UNL     1      15.949  11.999  36.915  0.00  0.00    +0.000 N 
ATOM     11  O   UNL     1      15.000  11.555  37.562  0.00  0.00    +0.000 OA
ATOM     12  O   UNL     1      16.466  13.230  37.214  0.00  0.00    +0.000 OA
ENDBRANCH   9  10
ENDBRANCH   2   4
BRANCH   3  13
ATOM     13  C   UNL     1      20.102  10.846  38.880  0.00  0.00    +0.000 C 
BRANCH  13  14
ATOM     14  C   UNL     1      21.271   9.926  38.824  0.00  0.00    +0.000 C 
BRANCH  14  15
ATOM     15  C   UNL     1      22.284  10.297  37.807  0.00  0.00    +0.000 C 
ATOM     16  C   UNL     1      23.296  11.155  38.003  0.00  0.00    +0.000 C 
ATOM     17  C   UNL     1      24.247  11.449  36.912  0.00  0.00    +0.000 C 
ATOM     18  C   UNL     1      24.753  10.170  36.337  0.00  0.00    +0.000 C 
ATOM     19  C   UNL     1      23.673   9.145  36.154  0.00  0.00    +0.000 C 
ATOM     20  C   UNL     1      22.267   9.676  36.438  0.00  0.00    +0.000 C 
ENDBRANCH  14  15
ENDBRANCH  13  14
ENDBRANCH   3  13
TORSDOF 5
ENDMDL
MODEL 5
REMARK VINA RESULT:      -5.6     15.392     17.307
REMARK  Name = 
REMARK  5 active torsions:
REMARK  status: ('A' for Active; 'I' for Inactive)
REMARK    1  A    between atoms: C_2  and  C_12
REMARK    2  A    between atoms: N_3  and  C_4
REMARK    3  A    between atoms: C_4  and  C_5
REMARK    4  A    between atoms: C_5  and  C_6
REMARK    5  A    between atoms: C_17  and  N_18
REMARK                            x       y       z     vdW  Elec       q    Type
REMARK                         _______ _______ _______ _____ _____    ______ ____
ROOT
ATOM      1  O   UNL     1      11.135  24.009  19.594  0.00  0.00    +0.000 OA
ATOM      2  C   UNL     1      11.489  23.647  20.744  0.00  0.00    +0.000 C 
ATOM      3  N   UNL     1      10.509  23.392  21.728  0.00  0.00    +0.000 NA
ENDROOT
BRANCH   2   4
ATOM      4  C   UNL     1      12.898  23.468  21.100  0.00  0.00    +0.000 A 
ATOM      5  C   UNL     1      13.525  22.309  20.617  0.00  0.00    +0.000 A 
ATOM      6  C   UNL     1      14.808  22.022  20.952  0.00  0.00    +0.000 A 
ATOM      7  C   UNL     1      15.512  22.856  21.766  0.00  0.00    +0.000 A 
ATOM      8  C   UNL     1      14.907  24.018  22.263  0.00  0.00    +0.000 A 
ATOM      9  C   UNL     1      13.580  24.310  21.908  0.00  0.00    +0.000 A 
BRANCH   9  10
ATOM     10  N   UNL     1      13.016  25.533  22.385  0.00  0.00    +0.000 N 
ATOM     11  O   UNL     1      13.007  26.564  21.713  0.00  0.00    +0.000 OA
ATOM     12  O   UNL     1      12.459  25.524  23.634  0.00  0.00    +0.000 OA
ENDBRANCH   9  10
ENDBRANCH   2   4
BRANCH   3  13
ATOM     13  C   UNL     1       9.110  23.547  21.470  0.00  0.00    +0.000 C 
BRANCH  13  14
ATOM     14  C   UNL     1       8.314  22.323  21.759  0.00  0.00    +0.000 C 
BRANCH  14  15
ATOM     15  C   UNL     1       8.893  21.079  21.198  0.00  0.00    +0.000 C 
ATOM     16  C   UNL     1       8.900  20.750  19.898  0.00  0.00    +0.000 C 
ATOM     17  C   UNL     1       9.509  19.479  19.453  0.00  0.00    +0.000 C 
ATOM     18  C   UNL     1      10.878  19.357  20.028  0.00  0.00    +0.000 C 
ATOM     19  C   UNL     1      10.945  19.774  21.469  0.00  0.00    +0.000 C 
ATOM     20  C   UNL     1       9.578  20.078  22.085  0.00  0.00    +0.000 C 
ENDBRANCH  14  15
ENDBRANCH  13  14
ENDBRANCH   3  13
TORSDOF 5
ENDMDL
MODEL 6
REMARK VINA RESULT:      -5.6     19.282     22.055
REMARK  Name = 
REMARK  5 active torsions:
REMARK  status: ('A' for Active; 'I' for Inactive)
REMARK    1  A    between atoms: C_2  and  C_12
REMARK    2  A    between atoms: N_3  and  C_4
REMARK    3  A    between atoms: C_4  and  C_5
REMARK    4  A    between atoms: C_5  and  C_6
REMARK    5  A    between atoms: C_17  and  N_18
REMARK                            x       y       z     vdW  Elec       q    Type
REMARK                         _______ _______ _______ _____ _____    ______ ____
ROOT
ATOM      1  O   UNL     1      19.165  10.207  39.968  0.00  0.00    +0.000 OA
ATOM      2  C   UNL     1      18.516   9.264  39.447  0.00  0.00    +0.000 C 
ATOM      3  N   UNL     1      18.191   9.317  38.074  0.00  0.00    +0.000 NA
ENDROOT
BRANCH   2   4
ATOM      4  C   UNL     1      18.091   8.096  40.221  0.00  0.00    +0.000 A 
ATOM      5  C   UNL     1      18.832   6.918  40.037  0.00  0.00    +0.000 A 
ATOM      6  C   UNL     1      18.471   5.767  40.656  0.00  0.00    +0.000 A 
ATOM      7  C   UNL     1      17.380   5.734  41.471  0.00  0.00    +0.000 A 
ATOM      8  C   UNL     1      16.623   6.896  41.669  0.00  0.00    +0.000 A 
ATOM      9  C   UNL     1      17.006   8.084  41.027  0.00  0.00    +0.000 A 
BRANCH   9  10
ATOM     10  N   UNL     1      16.246   9.264  41.299  0.00  0.00    +0.000 N 
ATOM     11  O   UNL     1      15.303   9.621  40.593  0.00  0.00    +0.000 OA
ATOM     12  O   UNL     1      16.593   9.996  42.401  0.00  0.00    +0.000 OA
ENDBRANCH   9  10
ENDBRANCH   2   4
BRANCH   3  13
ATOM     13  C   UNL     1      18.560  10.422  37.244  0.00  0.00    +0.000 C 
BRANCH  13  14
ATOM     14  C   UNL     1      17.434  11.354  36.960  0.00  0.00    +0.000 C 
BRANCH  14  15
ATOM     15  C   UNL     1      16.750  11.099  35.669  0.00  0.00    +0.000 C 
ATOM     16  C   UNL     1      15.846  11.911  35.102  0.00  0.00    +0.000 C 
ATOM     17  C   UNL     1      15.228  11.553  33.809  0.00  0.00    +0.000 C 
ATOM     18  C   UNL     1      16.296  11.199  32.831  0.00  0.00    +0.000 C 
ATOM     19  C   UNL     1      17.373  10.341  33.428  0.00  0.00    +0.000 C 
ATOM     20  C   UNL     1      17.070   9.878  34.854  0.00  0.00    +0.000 C 
ENDBRANCH  14  15
ENDBRANCH  13  14
ENDBRANCH   3  13
TORSDOF 5
ENDMDL
MODEL 7
REMARK VINA RESULT:      -5.6     28.121     29.387
REMARK  Name = 
REMARK  5 active torsions:
REMARK  status: ('A' for Active; 'I' for Inactive)
REMARK    1  A    between atoms: C_2  and  C_12
REMARK    2  A    between atoms: N_3  and  C_4
REMARK    3  A    between atoms: C_4  and  C_5
REMARK    4  A    between atoms: C_5  and  C_6
REMARK    5  A    between atoms: C_17  and  N_18
REMARK                            x       y       z     vdW  Elec       q    Type
REMARK                         _______ _______ _______ _____ _____    ______ ____
ROOT
ATOM      1  O   UNL     1      32.186  -6.128  32.758  0.00  0.00    +0.000 OA
ATOM      2  C   UNL     1      33.058  -5.498  32.107  0.00  0.00    +0.000 C 
ATOM      3  N   UNL     1      33.541  -4.266  32.600  0.00  0.00    +0.000 NA
ENDROOT
BRANCH   2   4
ATOM      4  C   UNL     1      33.604  -6.009  30.848  0.00  0.00    +0.000 A 
ATOM      5  C   UNL     1      33.034  -5.507  29.667  0.00  0.00    +0.000 A 
ATOM      6  C   UNL     1      33.425  -5.972  28.455  0.00  0.00    +0.000 A 
ATOM      7  C   UNL     1      34.380  -6.938  28.361  0.00  0.00    +0.000 A 
ATOM      8  C   UNL     1      34.962  -7.457  29.525  0.00  0.00    +0.000 A 
ATOM      9  C   UNL     1      34.555  -6.967  30.776  0.00  0.00    +0.000 A 
BRANCH   9  10
ATOM     10  N   UNL     1      35.212  -7.477  31.938  0.00  0.00    +0.000 N 
ATOM     11  O   UNL     1      34.859  -8.517  32.495  0.00  0.00    +0.000 OA
ATOM     12  O   UNL     1      36.279  -6.770  32.419  0.00  0.00    +0.000 OA
ENDBRANCH   9  10
ENDBRANCH   2   4
BRANCH   3  13
ATOM     13  C   UNL     1      33.060  -3.690  33.817  0.00  0.00    +0.000 C 
BRANCH  13  14
ATOM     14  C   UNL     1      34.109  -2.966  34.587  0.00  0.00    +0.000 C 
BRANCH  14  15
ATOM     15  C   UNL     1      34.177  -1.513  34.299  0.00  0.00    +0.000 C 
ATOM     16  C   UNL     1      33.964  -0.955  33.099  0.00  0.00    +0.000 C 
ATOM     17  C   UNL     1      34.059   0.510  32.931  0.00  0.00    +0.000 C 
ATOM     18  C   UNL     1      33.231   1.183  33.972  0.00  0.00    +0.000 C 
ATOM     19  C   UNL     1      33.379   0.558  35.328  0.00  0.00    +0.000 C 
ATOM     20  C   UNL     1      34.460  -0.522  35.393  0.00  0.00    +0.000 C 
ENDBRANCH  14  15
ENDBRANCH  13  14
ENDBRANCH   3  13
TORSDOF 5
ENDMDL
MODEL 8
REMARK VINA RESULT:      -5.5      4.781      8.271
REMARK  Name = 
REMARK  5 active torsions:
REMARK  status: ('A' for Active; 'I' for Inactive)
REMARK    1  A    between atoms: C_2  and  C_12
REMARK    2  A    between atoms: N_3  and  C_4
REMARK    3  A    between atoms: C_4  and  C_5
REMARK    4  A    between atoms: C_5  and  C_6
REMARK    5  A    between atoms: C_17  and  N_18
REMARK                            x       y       z     vdW  Elec       q    Type
REMARK                         _______ _______ _______ _____ _____    ______ ____
ROOT
ATOM      1  O   UNL     1      29.640  24.315  20.852  0.00  0.00    +0.000 OA
ATOM      2  C   UNL     1      29.216  24.814  21.925  0.00  0.00    +0.000 C 
ATOM      3  N   UNL     1      28.621  26.095  21.911  0.00  0.00    +0.000 NA
ENDROOT
BRANCH   2   4
ATOM      4  C   UNL     1      29.309  24.102  23.201  0.00  0.00    +0.000 A 
ATOM      5  C   UNL     1      30.598  23.919  23.725  0.00  0.00    +0.000 A 
ATOM      6  C   UNL     1      30.791  23.210  24.865  0.00  0.00    +0.000 A 
ATOM      7  C   UNL     1      29.732  22.661  25.523  0.00  0.00    +0.000 A 
ATOM      8  C   UNL     1      28.436  22.828  25.019  0.00  0.00    +0.000 A 
ATOM      9  C   UNL     1      28.245  23.566  23.840  0.00  0.00    +0.000 A 
BRANCH   9  10
ATOM     10  N   UNL     1      26.905  23.766  23.388  0.00  0.00    +0.000 N 
ATOM     11  O   UNL     1      26.375  23.039  22.547  0.00  0.00    +0.000 OA
ATOM     12  O   UNL     1      26.202  24.802  23.939  0.00  0.00    +0.000 OA
ENDBRANCH   9  10
ENDBRANCH   2   4
BRANCH   3  13
ATOM     13  C   UNL     1      28.494  26.865  20.711  0.00  0.00    +0.000 C 
BRANCH  13  14
ATOM     14  C   UNL     1      29.653  27.763  20.457  0.00  0.00    +0.000 C 
BRANCH  14  15
ATOM     15  C   UNL     1      29.929  28.002  19.020  0.00  0.00    +0.000 C 
ATOM     16  C   UNL     1      30.926  27.440  18.323  0.00  0.00    +0.000 C 
ATOM     17  C   UNL     1      31.104  27.754  16.890  0.00  0.00    +0.000 C 
ATOM     18  C   UNL     1      29.807  27.576  16.178  0.00  0.00    +0.000 C 
ATOM     19  C   UNL     1      28.641  28.130  16.943  0.00  0.00    +0.000 C 
ATOM     20  C   UNL     1      29.042  28.900  18.203  0.00  0.00    +0.000 C 
ENDBRANCH  14  15
ENDBRANCH  13  14
ENDBRANCH   3  13
TORSDOF 5
ENDMDL
MODEL 9
REMARK VINA RESULT:      -5.5      2.376      4.081
REMARK  Name = 
REMARK  5 active torsions:
REMARK  status: ('A' for Active; 'I' for Inactive)
REMARK    1  A    between atoms: C_2  and  C_12
REMARK    2  A    between atoms: N_3  and  C_4
REMARK    3  A    between atoms: C_4  and  C_5
REMARK    4  A    between atoms: C_5  and  C_6
REMARK    5  A    between atoms: C_17  and  N_18
REMARK                            x       y       z     vdW  Elec       q    Type
REMARK                         _______ _______ _______ _____ _____    ______ ____
ROOT
ATOM      1  O   UNL     1      25.535  22.907  24.871  0.00  0.00    +0.000 OA
ATOM      2  C   UNL     1      26.482  23.631  25.268  0.00  0.00    +0.000 C 
ATOM      3  N   UNL     1      26.213  24.937  25.734  0.00  0.00    +0.000 NA
ENDROOT
BRANCH   2   4
ATOM      4  C   UNL     1      27.868  23.159  25.274  0.00  0.00    +0.000 A 
ATOM      5  C   UNL     1      28.316  22.545  26.454  0.00  0.00    +0.000 A 
ATOM      6  C   UNL     1      29.604  22.138  26.580  0.00  0.00    +0.000 A 
ATOM      7  C   UNL     1      30.488  22.320  25.560  0.00  0.00    +0.000 A 
ATOM      8  C   UNL     1      30.065  22.934  24.373  0.00  0.00    +0.000 A 
ATOM      9  C   UNL     1      28.729  23.348  24.250  0.00  0.00    +0.000 A 
BRANCH   9  10
ATOM     10  N   UNL     1      28.320  23.915  23.004  0.00  0.00    +0.000 N 
ATOM     11  O   UNL     1      28.459  25.110  22.744  0.00  0.00    +0.000 OA
ATOM     12  O   UNL     1      27.769  23.071  22.079  0.00  0.00    +0.000 OA
ENDBRANCH   9  10
ENDBRANCH   2   4
BRANCH   3  13
ATOM     13  C   UNL     1      24.891  25.482  25.757  0.00  0.00    +0.000 C 
BRANCH  13  14
ATOM     14  C   UNL     1      24.269  25.474  27.109  0.00  0.00    +0.000 C 
BRANCH  14  15
ATOM     15  C   UNL     1      22.983  26.209  27.187  0.00  0.00    +0.000 C 
ATOM     16  C   UNL     1      22.080  26.290  26.199  0.00  0.00    +0.000 C 
ATOM     17  C   UNL     1      20.829  27.052  26.392  0.00  0.00    +0.000 C 
ATOM     18  C   UNL     1      20.176  26.621  27.660  0.00  0.00    +0.000 C 
ATOM     19  C   UNL     1      21.150  26.451  28.790  0.00  0.00    +0.000 C 
ATOM     20  C   UNL     1      22.569  26.909  28.451  0.00  0.00    +0.000 C 
ENDBRANCH  14  15
ENDBRANCH  13  14
ENDBRANCH   3  13
TORSDOF 5
ENDMDL
MODEL 10
REMARK VINA RESULT:      -5.5     31.894     33.096
REMARK  Name = 
REMARK  5 active torsions:
REMARK  status: ('A' for Active; 'I' for Inactive)
REMARK    1  A    between atoms: C_2  and  C_12
REMARK    2  A    between atoms: N_3  and  C_4
REMARK    3  A    between atoms: C_4  and  C_5
REMARK    4  A    between atoms: C_5  and  C_6
REMARK    5  A    between atoms: C_17  and  N_18
REMARK                            x       y       z     vdW  Elec       q    Type
REMARK                         _______ _______ _______ _____ _____    ______ ____
ROOT
ATOM      1  O   UNL     1      20.335  -9.623  26.404  0.00  0.00    +0.000 OA
ATOM      2  C   UNL     1      19.762  -8.832  25.612  0.00  0.00    +0.000 C 
ATOM      3  N   UNL     1      19.527  -9.229  24.278  0.00  0.00    +0.000 NA
ENDROOT
BRANCH   2   4
ATOM      4  C   UNL     1      19.315  -7.503  26.034  0.00  0.00    +0.000 A 
ATOM      5  C   UNL     1      20.089  -6.415  25.603  0.00  0.00    +0.000 A 
ATOM      6  C   UNL     1      19.795  -5.152  26.001  0.00  0.00    +0.000 A 
ATOM      7  C   UNL     1      18.739  -4.917  26.828  0.00  0.00    +0.000 A 
ATOM      8  C   UNL     1      17.952  -5.988  27.274  0.00  0.00    +0.000 A 
ATOM      9  C   UNL     1      18.262  -7.291  26.854  0.00  0.00    +0.000 A 
BRANCH   9  10
ATOM     10  N   UNL     1      17.403  -8.350  27.281  0.00  0.00    +0.000 N 
ATOM     11  O   UNL     1      17.542  -8.921  28.363  0.00  0.00    +0.000 OA
ATOM     12  O   UNL     1      16.386  -8.713  26.441  0.00  0.00    +0.000 OA
ENDBRANCH   9  10
ENDBRANCH   2   4
BRANCH   3  13
ATOM     13  C   UNL     1      19.936 -10.506  23.778  0.00  0.00    +0.000 C 
BRANCH  13  14
ATOM     14  C   UNL     1      20.879 -10.421  22.629  0.00  0.00    +0.000 C 
BRANCH  14  15
ATOM     15  C   UNL     1      22.038  -9.527  22.864  0.00  0.00    +0.000 C 
ATOM     16  C   UNL     1      22.256  -8.365  22.232  0.00  0.00    +0.000 C 
ATOM     17  C   UNL     1      23.450  -7.555  22.550  0.00  0.00    +0.000 C 
ATOM     18  C   UNL     1      23.545  -7.369  24.025  0.00  0.00    +0.000 C 
ATOM     19  C   UNL     1      23.247  -8.625  24.791  0.00  0.00    +0.000 C 
ATOM     20  C   UNL     1      23.071  -9.859  23.904  0.00  0.00    +0.000 C 
ENDBRANCH  14  15
ENDBRANCH  13  14
ENDBRANCH   3  13
TORSDOF 5
ENDMDL
