MODEL 1
REMARK VINA RESULT:      -7.1      0.000      0.000
REMARK  Name = 
REMARK  6 active torsions:
REMARK  status: ('A' for Active; 'I' for Inactive)
REMARK    1  A    between atoms: C_2  and  O_3
REMARK    2  A    between atoms: O_3  and  C_4
REMARK    3  A    between atoms: C_9  and  N_10
REMARK    4  A    between atoms: C_11  and  C_13
REMARK    5  A    between atoms: C_14  and  N_15
REMARK    6  A    between atoms: C_16  and  C_18
REMARK                            x       y       z     vdW  Elec       q    Type
REMARK                         _______ _______ _______ _____ _____    ______ ____
ROOT
ATOM      1  C   UNL     1      38.364   2.567  14.760  0.00  0.00    +0.000 A 
ATOM      2  C   UNL     1      39.356   2.380  13.839  0.00  0.00    +0.000 A 
ATOM      3  S   UNL     1      40.257   3.841  13.930  0.00  0.00    +0.000 S 
ATOM      4  C   UNL     1      39.336   4.638  15.137  0.00  0.00    +0.000 A 
ATOM      5  C   UNL     1      38.353   3.724  15.426  0.00  0.00    +0.000 A 
ATOM      6  C   UNL     1      37.463   4.337  16.506  0.00  0.00    +0.000 C 
ATOM      7  C   UNL     1      38.368   4.387  17.661  0.00  0.00    +0.000 C 
ATOM      8  C   UNL     1      39.533   5.515  17.474  0.00  0.00    +0.000 C 
ATOM      9  C   UNL     1      38.572   6.733  18.037  0.00  0.00    +0.000 C 
ATOM     10  C   UNL     1      39.273   5.900  15.904  0.00  0.00    +0.000 C 
ENDROOT
BRANCH   1  12
ATOM     11  N   UNL     1      37.452   0.563  16.027  0.00  0.00    +0.000 NA
ATOM     12  C   UNL     1      37.339   1.519  15.006  0.00  0.00    +0.000 C 
ATOM     13  O   UNL     1      36.309   1.444  14.297  0.00  0.00    +0.000 OA
BRANCH  11  19
ATOM     14  C   UNL     1      36.497  -1.660  15.646  0.00  0.00    +0.000 A 
ATOM     15  C   UNL     1      35.527  -2.614  15.861  0.00  0.00    +0.000 A 
ATOM     16  C   UNL     1      34.498  -2.289  16.710  0.00  0.00    +0.000 A 
ATOM     17  C   UNL     1      34.414  -1.050  17.341  0.00  0.00    +0.000 A 
ATOM     18  C   UNL     1      35.419  -0.121  17.090  0.00  0.00    +0.000 A 
ATOM     19  C   UNL     1      36.460  -0.427  16.242  0.00  0.00    +0.000 A 
BRANCH  14  20
ATOM     20  O   UNL     1      37.552  -1.926  14.807  0.00  0.00    +0.000 OA
BRANCH  20  22
ATOM     21  C   UNL     1      39.338  -2.674  16.158  0.00  0.00    +0.000 C 
ATOM     22  C   UNL     1      38.452  -2.991  14.960  0.00  0.00    +0.000 C 
ENDBRANCH  20  22
ENDBRANCH  14  20
ENDBRANCH  11  19
ENDBRANCH   1  12
BRANCH   2  23
ATOM     23  N   UNL     1      39.579   1.226  13.001  0.00  0.00    +0.000 NA
ATOM     24  C   UNL     1      40.338   0.147  13.490  0.00  0.00    +0.000 C 
ATOM     25  O   UNL     1      40.816   0.185  14.645  0.00  0.00    +0.000 OA
BRANCH  24  26
ATOM     26  C   UNL     1      40.549  -1.008  12.626  0.00  0.00    +0.000 A 
ATOM     27  C   UNL     1      39.866  -1.156  11.436  0.00  0.00    +0.000 A 
ATOM     28  C   UNL     1      40.088  -2.267  10.635  0.00  0.00    +0.000 A 
ATOM     29  C   UNL     1      40.978  -3.244  10.987  0.00  0.00    +0.000 A 
ATOM     30  C   UNL     1      41.664  -3.106  12.173  0.00  0.00    +0.000 A 
ATOM     31  C   UNL     1      41.439  -2.010  12.952  0.00  0.00    +0.000 A 
ENDBRANCH  24  26
ENDBRANCH   2  23
TORSDOF 6
ENDMDL
MODEL 2
REMARK VINA RESULT:      -6.9      2.296      2.763
REMARK  Name = 
REMARK  6 active torsions:
REMARK  status: ('A' for Active; 'I' for Inactive)
REMARK    1  A    between atoms: C_2  and  O_3
REMARK    2  A    between atoms: O_3  and  C_4
REMARK    3  A    between atoms: C_9  and  N_10
REMARK    4  A    between atoms: C_11  and  C_13
REMARK    5  A    between atoms: C_14  and  N_15
REMARK    6  A    between atoms: C_16  and  C_18
REMARK                            x       y       z     vdW  Elec       q    Type
REMARK                         _______ _______ _______ _____ _____    ______ ____
ROOT
ATOM      1  C   UNL     1      37.439   2.820  13.780  0.00  0.00    +0.000 A 
ATOM      2  C   UNL     1      38.392   2.447  12.876  0.00  0.00    +0.000 A 
ATOM      3  S   UNL     1      38.144   3.539  11.571  0.00  0.00    +0.000 S 
ATOM      4  C   UNL     1      36.834   4.430  12.227  0.00  0.00    +0.000 A 
ATOM      5  C   UNL     1      36.640   3.836  13.450  0.00  0.00    +0.000 A 
ATOM      6  C   UNL     1      35.481   4.562  14.131  0.00  0.00    +0.000 C 
ATOM      7  C   UNL     1      36.049   5.893  14.375  0.00  0.00    +0.000 C 
ATOM      8  C   UNL     1      36.239   6.739  12.993  0.00  0.00    +0.000 C 
ATOM      9  C   UNL     1      34.680   7.284  13.005  0.00  0.00    +0.000 C 
ATOM     10  C   UNL     1      35.919   5.549  11.914  0.00  0.00    +0.000 C 
ENDROOT
BRANCH   1  12
ATOM     11  N   UNL     1      36.572   0.926  15.236  0.00  0.00    +0.000 NA
ATOM     12  C   UNL     1      37.301   2.116  15.083  0.00  0.00    +0.000 C 
ATOM     13  O   UNL     1      37.842   2.566  16.119  0.00  0.00    +0.000 OA
BRANCH  11  19
ATOM     14  C   UNL     1      37.203  -0.823  16.830  0.00  0.00    +0.000 A 
ATOM     15  C   UNL     1      37.082  -1.450  18.050  0.00  0.00    +0.000 A 
ATOM     16  C   UNL     1      36.170  -0.934  18.939  0.00  0.00    +0.000 A 
ATOM     17  C   UNL     1      35.387   0.178  18.642  0.00  0.00    +0.000 A 
ATOM     18  C   UNL     1      35.547   0.775  17.395  0.00  0.00    +0.000 A 
ATOM     19  C   UNL     1      36.456   0.274  16.490  0.00  0.00    +0.000 A 
BRANCH  14  20
ATOM     20  O   UNL     1      38.098  -1.293  15.899  0.00  0.00    +0.000 OA
BRANCH  20  22
ATOM     21  C   UNL     1      39.617  -3.096  16.011  0.00  0.00    +0.000 C 
ATOM     22  C   UNL     1      38.246  -2.639  15.532  0.00  0.00    +0.000 C 
ENDBRANCH  20  22
ENDBRANCH  14  20
ENDBRANCH  11  19
ENDBRANCH   1  12
BRANCH   2  23
ATOM     23  N   UNL     1      39.366   1.389  13.001  0.00  0.00    +0.000 NA
ATOM     24  C   UNL     1      39.027   0.082  12.606  0.00  0.00    +0.000 C 
ATOM     25  O   UNL     1      37.890  -0.163  12.146  0.00  0.00    +0.000 OA
BRANCH  24  26
ATOM     26  C   UNL     1      40.027  -0.970  12.741  0.00  0.00    +0.000 A 
ATOM     27  C   UNL     1      39.866  -2.203  12.143  0.00  0.00    +0.000 A 
ATOM     28  C   UNL     1      40.835  -3.185  12.291  0.00  0.00    +0.000 A 
ATOM     29  C   UNL     1      41.970  -2.975  13.023  0.00  0.00    +0.000 A 
ATOM     30  C   UNL     1      42.140  -1.748  13.624  0.00  0.00    +0.000 A 
ATOM     31  C   UNL     1      41.182  -0.790  13.473  0.00  0.00    +0.000 A 
ENDBRANCH  24  26
ENDBRANCH   2  23
TORSDOF 6
ENDMDL
MODEL 3
REMARK VINA RESULT:      -6.7      2.874      5.636
REMARK  Name = 
REMARK  6 active torsions:
REMARK  status: ('A' for Active; 'I' for Inactive)
REMARK    1  A    between atoms: C_2  and  O_3
REMARK    2  A    between atoms: O_3  and  C_4
REMARK    3  A    between atoms: C_9  and  N_10
REMARK    4  A    between atoms: C_11  and  C_13
REMARK    5  A    between atoms: C_14  and  N_15
REMARK    6  A    between atoms: C_16  and  C_18
REMARK                            x       y       z     vdW  Elec       q    Type
REMARK                         _______ _______ _______ _____ _____    ______ ____
ROOT
ATOM      1  C   UNL     1      36.468   3.247  14.077  0.00  0.00    +0.000 A 
ATOM      2  C   UNL     1      35.550   2.510  14.770  0.00  0.00    +0.000 A 
ATOM      3  S   UNL     1      34.285   3.635  15.066  0.00  0.00    +0.000 S 
ATOM      4  C   UNL     1      34.972   5.004  14.296  0.00  0.00    +0.000 A 
ATOM      5  C   UNL     1      36.173   4.525  13.832  0.00  0.00    +0.000 A 
ATOM      6  C   UNL     1      36.878   5.677  13.117  0.00  0.00    +0.000 C 
ATOM      7  C   UNL     1      36.013   5.894  11.951  0.00  0.00    +0.000 C 
ATOM      8  C   UNL     1      34.581   6.555  12.368  0.00  0.00    +0.000 C 
ATOM      9  C   UNL     1      35.180   8.093  12.345  0.00  0.00    +0.000 C 
ATOM     10  C   UNL     1      34.700   6.427  13.996  0.00  0.00    +0.000 C 
ENDROOT
BRANCH   1  12
ATOM     11  N   UNL     1      38.884   2.545  14.428  0.00  0.00    +0.000 NA
ATOM     12  C   UNL     1      37.745   2.643  13.614  0.00  0.00    +0.000 C 
ATOM     13  O   UNL     1      37.860   2.186  12.454  0.00  0.00    +0.000 OA
BRANCH  11  19
ATOM     14  C   UNL     1      40.452   0.673  14.244  0.00  0.00    +0.000 A 
ATOM     15  C   UNL     1      41.628   0.118  13.789  0.00  0.00    +0.000 A 
ATOM     16  C   UNL     1      42.449   0.913  13.027  0.00  0.00    +0.000 A 
ATOM     17  C   UNL     1      42.129   2.232  12.713  0.00  0.00    +0.000 A 
ATOM     18  C   UNL     1      40.929   2.744  13.199  0.00  0.00    +0.000 A 
ATOM     19  C   UNL     1      40.091   1.964  13.964  0.00  0.00    +0.000 A 
BRANCH  14  20
ATOM     20  O   UNL     1      39.589  -0.073  15.011  0.00  0.00    +0.000 OA
BRANCH  20  22
ATOM     21  C   UNL     1      39.697  -2.317  15.738  0.00  0.00    +0.000 C 
ATOM     22  C   UNL     1      39.138  -1.362  14.691  0.00  0.00    +0.000 C 
ENDBRANCH  20  22
ENDBRANCH  14  20
ENDBRANCH  11  19
ENDBRANCH   1  12
BRANCH   2  23
ATOM     23  N   UNL     1      35.639   1.121  15.154  0.00  0.00    +0.000 NA
ATOM     24  C   UNL     1      36.202   0.777  16.396  0.00  0.00    +0.000 C 
ATOM     25  O   UNL     1      36.624   1.668  17.166  0.00  0.00    +0.000 OA
BRANCH  24  26
ATOM     26  C   UNL     1      36.280  -0.632  16.762  0.00  0.00    +0.000 A 
ATOM     27  C   UNL     1      35.712  -1.616  15.979  0.00  0.00    +0.000 A 
ATOM     28  C   UNL     1      35.802  -2.949  16.355  0.00  0.00    +0.000 A 
ATOM     29  C   UNL     1      36.446  -3.335  17.497  0.00  0.00    +0.000 A 
ATOM     30  C   UNL     1      37.017  -2.360  18.285  0.00  0.00    +0.000 A 
ATOM     31  C   UNL     1      36.923  -1.054  17.907  0.00  0.00    +0.000 A 
ENDBRANCH  24  26
ENDBRANCH   2  23
TORSDOF 6
ENDMDL
MODEL 4
REMARK VINA RESULT:      -6.6      2.239      7.634
REMARK  Name = 
REMARK  6 active torsions:
REMARK  status: ('A' for Active; 'I' for Inactive)
REMARK    1  A    between atoms: C_2  and  O_3
REMARK    2  A    between atoms: O_3  and  C_4
REMARK    3  A    between atoms: C_9  and  N_10
REMARK    4  A    between atoms: C_11  and  C_13
REMARK    5  A    between atoms: C_14  and  N_15
REMARK    6  A    between atoms: C_16  and  C_18
REMARK                            x       y       z     vdW  Elec       q    Type
REMARK                         _______ _______ _______ _____ _____    ______ ____
ROOT
ATOM      1  C   UNL     1      37.022  -1.077  15.193  0.00  0.00    +0.000 A 
ATOM      2  C   UNL     1      36.524  -0.123  16.034  0.00  0.00    +0.000 A 
ATOM      3  S   UNL     1      35.090  -0.847  16.646  0.00  0.00    +0.000 S 
ATOM      4  C   UNL     1      35.178  -2.340  15.807  0.00  0.00    +0.000 A 
ATOM      5  C   UNL     1      36.333  -2.215  15.076  0.00  0.00    +0.000 A 
ATOM      6  C   UNL     1      36.513  -3.506  14.280  0.00  0.00    +0.000 C 
ATOM      7  C   UNL     1      36.769  -4.490  15.340  0.00  0.00    +0.000 C 
ATOM      8  C   UNL     1      35.432  -4.796  16.224  0.00  0.00    +0.000 C 
ATOM      9  C   UNL     1      34.876  -5.929  15.159  0.00  0.00    +0.000 C 
ATOM     10  C   UNL     1      34.456  -3.620  15.637  0.00  0.00    +0.000 C 
ENDROOT
BRANCH   1  12
ATOM     11  N   UNL     1      39.547  -0.833  15.050  0.00  0.00    +0.000 NA
ATOM     12  C   UNL     1      38.283  -0.853  14.439  0.00  0.00    +0.000 C 
ATOM     13  O   UNL     1      38.270  -0.667  13.200  0.00  0.00    +0.000 OA
BRANCH  11  19
ATOM     14  C   UNL     1      41.163   0.629  13.932  0.00  0.00    +0.000 A 
ATOM     15  C   UNL     1      42.320   0.828  13.212  0.00  0.00    +0.000 A 
ATOM     16  C   UNL     1      43.052  -0.283  12.872  0.00  0.00    +0.000 A 
ATOM     17  C   UNL     1      42.662  -1.572  13.229  0.00  0.00    +0.000 A 
ATOM     18  C   UNL     1      41.485  -1.718  13.957  0.00  0.00    +0.000 A 
ATOM     19  C   UNL     1      40.736  -0.617  14.309  0.00  0.00    +0.000 A 
BRANCH  14  20
ATOM     20  O   UNL     1      40.388   1.702  14.303  0.00  0.00    +0.000 OA
BRANCH  20  22
ATOM     21  C   UNL     1      40.327   3.958  13.610  0.00  0.00    +0.000 C 
ATOM     22  C   UNL     1      39.736   2.568  13.413  0.00  0.00    +0.000 C 
ENDBRANCH  20  22
ENDBRANCH  14  20
ENDBRANCH  11  19
ENDBRANCH   1  12
BRANCH   2  23
ATOM     23  N   UNL     1      37.082   1.176  16.326  0.00  0.00    +0.000 NA
ATOM     24  C   UNL     1      36.603   2.308  15.642  0.00  0.00    +0.000 C 
ATOM     25  O   UNL     1      35.699   2.192  14.786  0.00  0.00    +0.000 OA
BRANCH  24  26
ATOM     26  C   UNL     1      37.180   3.610  15.955  0.00  0.00    +0.000 A 
ATOM     27  C   UNL     1      37.071   4.678  15.088  0.00  0.00    +0.000 A 
ATOM     28  C   UNL     1      37.631   5.904  15.413  0.00  0.00    +0.000 A 
ATOM     29  C   UNL     1      38.304   6.102  16.586  0.00  0.00    +0.000 A 
ATOM     30  C   UNL     1      38.420   5.043  17.459  0.00  0.00    +0.000 A 
ATOM     31  C   UNL     1      37.865   3.841  17.130  0.00  0.00    +0.000 A 
ENDBRANCH  24  26
ENDBRANCH   2  23
TORSDOF 6
ENDMDL
MODEL 5
REMARK VINA RESULT:      -6.5      2.338      3.092
REMARK  Name = 
REMARK  6 active torsions:
REMARK  status: ('A' for Active; 'I' for Inactive)
REMARK    1  A    between atoms: C_2  and  O_3
REMARK    2  A    between atoms: O_3  and  C_4
REMARK    3  A    between atoms: C_9  and  N_10
REMARK    4  A    between atoms: C_11  and  C_13
REMARK    5  A    between atoms: C_14  and  N_15
REMARK    6  A    between atoms: C_16  and  C_18
REMARK                            x       y       z     vdW  Elec       q    Type
REMARK                         _______ _______ _______ _____ _____    ______ ____
ROOT
ATOM      1  C   UNL     1      38.186   3.777  14.987  0.00  0.00    +0.000 A 
ATOM      2  C   UNL     1      38.905   3.978  13.843  0.00  0.00    +0.000 A 
ATOM      3  S   UNL     1      39.771   5.426  14.172  0.00  0.00    +0.000 S 
ATOM      4  C   UNL     1      39.184   5.723  15.756  0.00  0.00    +0.000 A 
ATOM      5  C   UNL     1      38.328   4.670  15.969  0.00  0.00    +0.000 A 
ATOM      6  C   UNL     1      37.741   4.835  17.369  0.00  0.00    +0.000 C 
ATOM      7  C   UNL     1      38.916   4.624  18.224  0.00  0.00    +0.000 C 
ATOM      8  C   UNL     1      39.970   5.866  18.129  0.00  0.00    +0.000 C 
ATOM      9  C   UNL     1      39.168   6.754  19.266  0.00  0.00    +0.000 C 
ATOM     10  C   UNL     1      39.300   6.681  16.877  0.00  0.00    +0.000 C 
ENDROOT
BRANCH   1  12
ATOM     11  N   UNL     1      37.539   1.540  16.004  0.00  0.00    +0.000 NA
ATOM     12  C   UNL     1      37.280   2.606  15.128  0.00  0.00    +0.000 C 
ATOM     13  O   UNL     1      36.227   2.521  14.457  0.00  0.00    +0.000 OA
BRANCH  11  19
ATOM     14  C   UNL     1      36.840  -0.737  15.433  0.00  0.00    +0.000 A 
ATOM     15  C   UNL     1      35.980  -1.805  15.553  0.00  0.00    +0.000 A 
ATOM     16  C   UNL     1      34.909  -1.662  16.401  0.00  0.00    +0.000 A 
ATOM     17  C   UNL     1      34.679  -0.493  17.123  0.00  0.00    +0.000 A 
ATOM     18  C   UNL     1      35.579   0.557  16.965  0.00  0.00    +0.000 A 
ATOM     19  C   UNL     1      36.660   0.434  16.121  0.00  0.00    +0.000 A 
BRANCH  14  20
ATOM     20  O   UNL     1      37.931  -0.820  14.601  0.00  0.00    +0.000 OA
BRANCH  20  22
ATOM     21  C   UNL     1      37.503  -0.208  12.361  0.00  0.00    +0.000 C 
ATOM     22  C   UNL     1      37.910  -1.338  13.297  0.00  0.00    +0.000 C 
ENDBRANCH  20  22
ENDBRANCH  14  20
ENDBRANCH  11  19
ENDBRANCH   1  12
BRANCH   2  23
ATOM     23  N   UNL     1      38.921   3.160  12.654  0.00  0.00    +0.000 NA
ATOM     24  C   UNL     1      38.111   3.509  11.558  0.00  0.00    +0.000 C 
ATOM     25  O   UNL     1      37.380   4.523  11.612  0.00  0.00    +0.000 OA
BRANCH  24  26
ATOM     26  C   UNL     1      38.145   2.669  10.368  0.00  0.00    +0.000 A 
ATOM     27  C   UNL     1      37.014   2.436   9.613  0.00  0.00    +0.000 A 
ATOM     28  C   UNL     1      37.077   1.631   8.485  0.00  0.00    +0.000 A 
ATOM     29  C   UNL     1      38.245   1.045   8.081  0.00  0.00    +0.000 A 
ATOM     30  C   UNL     1      39.380   1.271   8.827  0.00  0.00    +0.000 A 
ATOM     31  C   UNL     1      39.307   2.064   9.934  0.00  0.00    +0.000 A 
ENDBRANCH  24  26
ENDBRANCH   2  23
TORSDOF 6
ENDMDL
MODEL 6
REMARK VINA RESULT:      -6.5      2.417      5.817
REMARK  Name = 
REMARK  6 active torsions:
REMARK  status: ('A' for Active; 'I' for Inactive)
REMARK    1  A    between atoms: C_2  and  O_3
REMARK    2  A    between atoms: O_3  and  C_4
REMARK    3  A    between atoms: C_9  and  N_10
REMARK    4  A    between atoms: C_11  and  C_13
REMARK    5  A    between atoms: C_14  and  N_15
REMARK    6  A    between atoms: C_16  and  C_18
REMARK                            x       y       z     vdW  Elec       q    Type
REMARK                         _______ _______ _______ _____ _____    ______ ____
ROOT
ATOM      1  C   UNL     1      39.344   0.652  14.064  0.00  0.00    +0.000 A 
ATOM      2  C   UNL     1      39.492   1.964  13.712  0.00  0.00    +0.000 A 
ATOM      3  S   UNL     1      41.131   2.050  13.201  0.00  0.00    +0.000 S 
ATOM      4  C   UNL     1      41.567   0.412  13.454  0.00  0.00    +0.000 A 
ATOM      5  C   UNL     1      40.406  -0.145  13.932  0.00  0.00    +0.000 A 
ATOM      6  C   UNL     1      40.683  -1.624  14.194  0.00  0.00    +0.000 C 
ATOM      7  C   UNL     1      40.893  -2.145  12.837  0.00  0.00    +0.000 C 
ATOM      8  C   UNL     1      42.301  -1.626  12.196  0.00  0.00    +0.000 C 
ATOM      9  C   UNL     1      43.176  -2.829  12.910  0.00  0.00    +0.000 C 
ATOM     10  C   UNL     1      42.711  -0.518  13.330  0.00  0.00    +0.000 C 
ENDROOT
BRANCH   1  12
ATOM     11  N   UNL     1      37.830  -0.195  15.921  0.00  0.00    +0.000 NA
ATOM     12  C   UNL     1      38.046   0.137  14.574  0.00  0.00    +0.000 C 
ATOM     13  O   UNL     1      37.069  -0.025  13.806  0.00  0.00    +0.000 OA
BRANCH  11  19
ATOM     14  C   UNL     1      36.245  -2.011  16.353  0.00  0.00    +0.000 A 
ATOM     15  C   UNL     1      35.030  -2.476  16.804  0.00  0.00    +0.000 A 
ATOM     16  C   UNL     1      34.142  -1.551  17.296  0.00  0.00    +0.000 A 
ATOM     17  C   UNL     1      34.435  -0.190  17.348  0.00  0.00    +0.000 A 
ATOM     18  C   UNL     1      35.677   0.227  16.880  0.00  0.00    +0.000 A 
ATOM     19  C   UNL     1      36.582  -0.684  16.383  0.00  0.00    +0.000 A 
BRANCH  14  20
ATOM     20  O   UNL     1      37.175  -2.889  15.849  0.00  0.00    +0.000 OA
BRANCH  20  22
ATOM     21  C   UNL     1      39.053  -3.407  17.184  0.00  0.00    +0.000 C 
ATOM     22  C   UNL     1      37.764  -3.938  16.571  0.00  0.00    +0.000 C 
ENDBRANCH  20  22
ENDBRANCH  14  20
ENDBRANCH  11  19
ENDBRANCH   1  12
BRANCH   2  23
ATOM     23  N   UNL     1      38.501   3.011  13.764  0.00  0.00    +0.000 NA
ATOM     24  C   UNL     1      37.721   3.288  12.627  0.00  0.00    +0.000 C 
ATOM     25  O   UNL     1      37.884   2.630  11.575  0.00  0.00    +0.000 OA
BRANCH  24  26
ATOM     26  C   UNL     1      36.725   4.350  12.703  0.00  0.00    +0.000 A 
ATOM     27  C   UNL     1      36.481   5.192  11.637  0.00  0.00    +0.000 A 
ATOM     28  C   UNL     1      35.527   6.194  11.740  0.00  0.00    +0.000 A 
ATOM     29  C   UNL     1      34.802   6.385  12.884  0.00  0.00    +0.000 A 
ATOM     30  C   UNL     1      35.038   5.551  13.954  0.00  0.00    +0.000 A 
ATOM     31  C   UNL     1      35.978   4.569  13.842  0.00  0.00    +0.000 A 
ENDBRANCH  24  26
ENDBRANCH   2  23
TORSDOF 6
ENDMDL
MODEL 7
REMARK VINA RESULT:      -6.5      2.069      6.253
REMARK  Name = 
REMARK  6 active torsions:
REMARK  status: ('A' for Active; 'I' for Inactive)
REMARK    1  A    between atoms: C_2  and  O_3
REMARK    2  A    between atoms: O_3  and  C_4
REMARK    3  A    between atoms: C_9  and  N_10
REMARK    4  A    between atoms: C_11  and  C_13
REMARK    5  A    between atoms: C_14  and  N_15
REMARK    6  A    between atoms: C_16  and  C_18
REMARK                            x       y       z     vdW  Elec       q    Type
REMARK                         _______ _______ _______ _____ _____    ______ ____
ROOT
ATOM      1  C   UNL     1      39.887   0.138  14.121  0.00  0.00    +0.000 A 
ATOM      2  C   UNL     1      40.166   1.459  13.918  0.00  0.00    +0.000 A 
ATOM      3  S   UNL     1      41.792   1.436  13.358  0.00  0.00    +0.000 S 
ATOM      4  C   UNL     1      42.056  -0.257  13.405  0.00  0.00    +0.000 A 
ATOM      5  C   UNL     1      40.854  -0.743  13.859  0.00  0.00    +0.000 A 
ATOM      6  C   UNL     1      40.978  -2.264  13.938  0.00  0.00    +0.000 C 
ATOM      7  C   UNL     1      41.098  -2.639  12.523  0.00  0.00    +0.000 C 
ATOM      8  C   UNL     1      42.536  -2.196  11.894  0.00  0.00    +0.000 C 
ATOM      9  C   UNL     1      43.296  -3.559  12.431  0.00  0.00    +0.000 C 
ATOM     10  C   UNL     1      43.090  -1.279  13.132  0.00  0.00    +0.000 C 
ENDROOT
BRANCH   1  12
ATOM     11  N   UNL     1      38.285  -0.543  15.972  0.00  0.00    +0.000 NA
ATOM     12  C   UNL     1      38.554  -0.297  14.616  0.00  0.00    +0.000 C 
ATOM     13  O   UNL     1      37.596  -0.466  13.828  0.00  0.00    +0.000 OA
BRANCH  11  19
ATOM     14  C   UNL     1      36.051  -0.079  16.864  0.00  0.00    +0.000 A 
ATOM     15  C   UNL     1      34.811  -0.491  17.298  0.00  0.00    +0.000 A 
ATOM     16  C   UNL     1      34.548  -1.839  17.272  0.00  0.00    +0.000 A 
ATOM     17  C   UNL     1      35.483  -2.773  16.831  0.00  0.00    +0.000 A 
ATOM     18  C   UNL     1      36.721  -2.304  16.404  0.00  0.00    +0.000 A 
ATOM     19  C   UNL     1      37.005  -0.957  16.420  0.00  0.00    +0.000 A 
BRANCH  14  20
ATOM     20  O   UNL     1      36.373   1.258  16.865  0.00  0.00    +0.000 OA
BRANCH  20  22
ATOM     21  C   UNL     1      35.254   2.166  14.996  0.00  0.00    +0.000 C 
ATOM     22  C   UNL     1      35.505   2.294  16.492  0.00  0.00    +0.000 C 
ENDBRANCH  20  22
ENDBRANCH  14  20
ENDBRANCH  11  19
ENDBRANCH   1  12
BRANCH   2  23
ATOM     23  N   UNL     1      39.293   2.590  14.127  0.00  0.00    +0.000 NA
ATOM     24  C   UNL     1      38.499   3.061  13.066  0.00  0.00    +0.000 C 
ATOM     25  O   UNL     1      38.546   2.504  11.947  0.00  0.00    +0.000 OA
BRANCH  24  26
ATOM     26  C   UNL     1      37.625   4.204  13.301  0.00  0.00    +0.000 A 
ATOM     27  C   UNL     1      37.693   4.940  14.467  0.00  0.00    +0.000 A 
ATOM     28  C   UNL     1      36.847   6.022  14.662  0.00  0.00    +0.000 A 
ATOM     29  C   UNL     1      35.927   6.397  13.723  0.00  0.00    +0.000 A 
ATOM     30  C   UNL     1      35.850   5.670  12.556  0.00  0.00    +0.000 A 
ATOM     31  C   UNL     1      36.686   4.608  12.374  0.00  0.00    +0.000 A 
ENDBRANCH  24  26
ENDBRANCH   2  23
TORSDOF 6
ENDMDL
MODEL 8
REMARK VINA RESULT:      -6.4      2.062      7.466
REMARK  Name = 
REMARK  6 active torsions:
REMARK  status: ('A' for Active; 'I' for Inactive)
REMARK    1  A    between atoms: C_2  and  O_3
REMARK    2  A    between atoms: O_3  and  C_4
REMARK    3  A    between atoms: C_9  and  N_10
REMARK    4  A    between atoms: C_11  and  C_13
REMARK    5  A    between atoms: C_14  and  N_15
REMARK    6  A    between atoms: C_16  and  C_18
REMARK                            x       y       z     vdW  Elec       q    Type
REMARK                         _______ _______ _______ _____ _____    ______ ____
ROOT
ATOM      1  C   UNL     1      37.224  -0.518  15.401  0.00  0.00    +0.000 A 
ATOM      2  C   UNL     1      36.633   0.398  16.224  0.00  0.00    +0.000 A 
ATOM      3  S   UNL     1      35.193  -0.396  16.727  0.00  0.00    +0.000 S 
ATOM      4  C   UNL     1      35.397  -1.866  15.869  0.00  0.00    +0.000 A 
ATOM      5  C   UNL     1      36.592  -1.680  15.218  0.00  0.00    +0.000 A 
ATOM      6  C   UNL     1      36.877  -2.946  14.413  0.00  0.00    +0.000 C 
ATOM      7  C   UNL     1      37.103  -3.940  15.470  0.00  0.00    +0.000 C 
ATOM      8  C   UNL     1      35.725  -4.319  16.258  0.00  0.00    +0.000 C 
ATOM      9  C   UNL     1      35.288  -5.450  15.138  0.00  0.00    +0.000 C 
ATOM     10  C   UNL     1      34.742  -3.171  15.628  0.00  0.00    +0.000 C 
ENDROOT
BRANCH   1  12
ATOM     11  N   UNL     1      38.619   0.211  13.407  0.00  0.00    +0.000 NA
ATOM     12  C   UNL     1      38.522  -0.228  14.737  0.00  0.00    +0.000 C 
ATOM     13  O   UNL     1      39.605  -0.365  15.349  0.00  0.00    +0.000 OA
BRANCH  11  19
ATOM     14  C   UNL     1      40.558  -0.449  12.064  0.00  0.00    +0.000 A 
ATOM     15  C   UNL     1      41.773  -0.176  11.474  0.00  0.00    +0.000 A 
ATOM     16  C   UNL     1      42.288   1.086  11.644  0.00  0.00    +0.000 A 
ATOM     17  C   UNL     1      41.628   2.069  12.379  0.00  0.00    +0.000 A 
ATOM     18  C   UNL     1      40.404   1.741  12.954  0.00  0.00    +0.000 A 
ATOM     19  C   UNL     1      39.869   0.482  12.796  0.00  0.00    +0.000 A 
BRANCH  14  20
ATOM     20  O   UNL     1      39.991  -1.693  11.929  0.00  0.00    +0.000 OA
BRANCH  20  22
ATOM     21  C   UNL     1      40.930  -3.018  13.643  0.00  0.00    +0.000 C 
ATOM     22  C   UNL     1      40.656  -2.909  12.148  0.00  0.00    +0.000 C 
ENDBRANCH  20  22
ENDBRANCH  14  20
ENDBRANCH  11  19
ENDBRANCH   1  12
BRANCH   2  23
ATOM     23  N   UNL     1      37.115   1.712  16.576  0.00  0.00    +0.000 NA
ATOM     24  C   UNL     1      36.917   2.786  15.690  0.00  0.00    +0.000 C 
ATOM     25  O   UNL     1      36.324   2.606  14.603  0.00  0.00    +0.000 OA
BRANCH  24  26
ATOM     26  C   UNL     1      37.412   4.104  16.067  0.00  0.00    +0.000 A 
ATOM     27  C   UNL     1      38.027   4.327  17.282  0.00  0.00    +0.000 A 
ATOM     28  C   UNL     1      38.487   5.593  17.613  0.00  0.00    +0.000 A 
ATOM     29  C   UNL     1      38.352   6.655  16.763  0.00  0.00    +0.000 A 
ATOM     30  C   UNL     1      37.739   6.444  15.548  0.00  0.00    +0.000 A 
ATOM     31  C   UNL     1      37.291   5.196  15.232  0.00  0.00    +0.000 A 
ENDBRANCH  24  26
ENDBRANCH   2  23
TORSDOF 6
ENDMDL
MODEL 9
REMARK VINA RESULT:      -6.4      2.552      7.075
REMARK  Name = 
REMARK  6 active torsions:
REMARK  status: ('A' for Active; 'I' for Inactive)
REMARK    1  A    between atoms: C_2  and  O_3
REMARK    2  A    between atoms: O_3  and  C_4
REMARK    3  A    between atoms: C_9  and  N_10
REMARK    4  A    between atoms: C_11  and  C_13
REMARK    5  A    between atoms: C_14  and  N_15
REMARK    6  A    between atoms: C_16  and  C_18
REMARK                            x       y       z     vdW  Elec       q    Type
REMARK                         _______ _______ _______ _____ _____    ______ ____
ROOT
ATOM      1  C   UNL     1      37.310  -0.265  15.239  0.00  0.00    +0.000 A 
ATOM      2  C   UNL     1      36.388   0.632  15.700  0.00  0.00    +0.000 A 
ATOM      3  S   UNL     1      35.741  -0.148  17.088  0.00  0.00    +0.000 S 
ATOM      4  C   UNL     1      36.669  -1.588  17.031  0.00  0.00    +0.000 A 
ATOM      5  C   UNL     1      37.456  -1.403  15.920  0.00  0.00    +0.000 A 
ATOM      6  C   UNL     1      38.336  -2.643  15.772  0.00  0.00    +0.000 C 
ATOM      7  C   UNL     1      39.209  -2.545  16.949  0.00  0.00    +0.000 C 
ATOM      8  C   UNL     1      38.400  -2.844  18.335  0.00  0.00    +0.000 C 
ATOM      9  C   UNL     1      38.586  -4.478  18.198  0.00  0.00    +0.000 C 
ATOM     10  C   UNL     1      36.873  -2.868  17.744  0.00  0.00    +0.000 C 
ENDROOT
BRANCH   1  12
ATOM     11  N   UNL     1      37.833  -0.534  12.767  0.00  0.00    +0.000 NA
ATOM     12  C   UNL     1      38.118   0.022  14.025  0.00  0.00    +0.000 C 
ATOM     13  O   UNL     1      39.108   0.788  14.074  0.00  0.00    +0.000 OA
BRANCH  11  19
ATOM     14  C   UNL     1      39.665  -1.032  11.220  0.00  0.00    +0.000 A 
ATOM     15  C   UNL     1      40.423  -0.741  10.107  0.00  0.00    +0.000 A 
ATOM     16  C   UNL     1      40.094   0.386   9.395  0.00  0.00    +0.000 A 
ATOM     17  C   UNL     1      39.040   1.220   9.762  0.00  0.00    +0.000 A 
ATOM     18  C   UNL     1      38.307   0.882  10.895  0.00  0.00    +0.000 A 
ATOM     19  C   UNL     1      38.619  -0.245  11.623  0.00  0.00    +0.000 A 
BRANCH  14  20
ATOM     20  O   UNL     1      39.945  -2.147  11.973  0.00  0.00    +0.000 OA
BRANCH  20  22
ATOM     21  C   UNL     1      41.398  -1.880  13.815  0.00  0.00    +0.000 C 
ATOM     22  C   UNL     1      41.220  -2.504  12.437  0.00  0.00    +0.000 C 
ENDBRANCH  20  22
ENDBRANCH  14  20
ENDBRANCH  11  19
ENDBRANCH   1  12
BRANCH   2  23
ATOM     23  N   UNL     1      36.051   1.920  15.142  0.00  0.00    +0.000 NA
ATOM     24  C   UNL     1      36.760   3.063  15.553  0.00  0.00    +0.000 C 
ATOM     25  O   UNL     1      37.678   2.966  16.397  0.00  0.00    +0.000 OA
BRANCH  24  26
ATOM     26  C   UNL     1      36.402   4.353  14.976  0.00  0.00    +0.000 A 
ATOM     27  C   UNL     1      35.213   4.540  14.302  0.00  0.00    +0.000 A 
ATOM     28  C   UNL     1      34.901   5.779  13.762  0.00  0.00    +0.000 A 
ATOM     29  C   UNL     1      35.746   6.849  13.875  0.00  0.00    +0.000 A 
ATOM     30  C   UNL     1      36.936   6.673  14.545  0.00  0.00    +0.000 A 
ATOM     31  C   UNL     1      37.232   5.451  15.072  0.00  0.00    +0.000 A 
ENDBRANCH  24  26
ENDBRANCH   2  23
TORSDOF 6
ENDMDL
MODEL 10
REMARK VINA RESULT:      -6.3      2.481      7.333
REMARK  Name = 
REMARK  6 active torsions:
REMARK  status: ('A' for Active; 'I' for Inactive)
REMARK    1  A    between atoms: C_2  and  O_3
REMARK    2  A    between atoms: O_3  and  C_4
REMARK    3  A    between atoms: C_9  and  N_10
REMARK    4  A    between atoms: C_11  and  C_13
REMARK    5  A    between atoms: C_14  and  N_15
REMARK    6  A    between atoms: C_16  and  C_18
REMARK                            x       y       z     vdW  Elec       q    Type
REMARK                         _______ _______ _______ _____ _____    ______ ____
ROOT
ATOM      1  C   UNL     1      37.680  -0.627  14.958  0.00  0.00    +0.000 A 
ATOM      2  C   UNL     1      36.579   0.147  15.193  0.00  0.00    +0.000 A 
ATOM      3  S   UNL     1      35.584  -0.870  16.159  0.00  0.00    +0.000 S 
ATOM      4  C   UNL     1      36.608  -2.243  16.227  0.00  0.00    +0.000 A 
ATOM      5  C   UNL     1      37.697  -1.852  15.487  0.00  0.00    +0.000 A 
ATOM      6  C   UNL     1      38.688  -3.015  15.482  0.00  0.00    +0.000 C 
ATOM      7  C   UNL     1      39.108  -3.069  16.888  0.00  0.00    +0.000 C 
ATOM      8  C   UNL     1      37.918  -3.617  17.860  0.00  0.00    +0.000 C 
ATOM      9  C   UNL     1      38.289  -5.200  17.576  0.00  0.00    +0.000 C 
ATOM     10  C   UNL     1      36.682  -3.610  16.787  0.00  0.00    +0.000 C 
ENDROOT
BRANCH   1  12
ATOM     11  N   UNL     1      39.865   0.640  14.682  0.00  0.00    +0.000 NA
ATOM     12  C   UNL     1      38.815  -0.118  14.142  0.00  0.00    +0.000 C 
ATOM     13  O   UNL     1      38.881  -0.350  12.913  0.00  0.00    +0.000 OA
BRANCH  11  19
ATOM     14  C   UNL     1      42.112   0.427  13.730  0.00  0.00    +0.000 A 
ATOM     15  C   UNL     1      43.147   0.897  12.952  0.00  0.00    +0.000 A 
ATOM     16  C   UNL     1      42.965   2.102  12.318  0.00  0.00    +0.000 A 
ATOM     17  C   UNL     1      41.790   2.840  12.441  0.00  0.00    +0.000 A 
ATOM     18  C   UNL     1      40.775   2.321  13.240  0.00  0.00    +0.000 A 
ATOM     19  C   UNL     1      40.936   1.114  13.884  0.00  0.00    +0.000 A 
BRANCH  14  20
ATOM     20  O   UNL     1      42.234  -0.773  14.389  0.00  0.00    +0.000 OA
BRANCH  20  22
ATOM     21  C   UNL     1      41.555  -2.685  13.183  0.00  0.00    +0.000 C 
ATOM     22  C   UNL     1      42.730  -1.955  13.821  0.00  0.00    +0.000 C 
ENDBRANCH  20  22
ENDBRANCH  14  20
ENDBRANCH  11  19
ENDBRANCH   1  12
BRANCH   2  23
ATOM     23  N   UNL     1      36.328   1.492  14.734  0.00  0.00    +0.000 NA
ATOM     24  C   UNL     1      36.651   2.581  15.563  0.00  0.00    +0.000 C 
ATOM     25  O   UNL     1      37.153   2.388  16.692  0.00  0.00    +0.000 OA
BRANCH  24  26
ATOM     26  C   UNL     1      36.389   3.930  15.077  0.00  0.00    +0.000 A 
ATOM     27  C   UNL     1      35.199   4.261  14.461  0.00  0.00    +0.000 A 
ATOM     28  C   UNL     1      34.980   5.554  14.009  0.00  0.00    +0.000 A 
ATOM     29  C   UNL     1      35.918   6.538  14.153  0.00  0.00    +0.000 A 
ATOM     30  C   UNL     1      37.109   6.219  14.766  0.00  0.00    +0.000 A 
ATOM     31  C   UNL     1      37.315   4.945  15.207  0.00  0.00    +0.000 A 
ENDBRANCH  24  26
ENDBRANCH   2  23
TORSDOF 6
ENDMDL
