MODEL 1
REMARK VINA RESULT:      -6.4      0.000      0.000
REMARK  Name = 
REMARK  5 active torsions:
REMARK  status: ('A' for Active; 'I' for Inactive)
REMARK    1  A    between atoms: C_2  and  O_3
REMARK    2  A    between atoms: O_3  and  C_4
REMARK    3  A    between atoms: C_4  and  C_6
REMARK    4  A    between atoms: C_6  and  N_7
REMARK    5  A    between atoms: C_9  and  C_10
REMARK                            x       y       z     vdW  Elec       q    Type
REMARK                         _______ _______ _______ _____ _____    ______ ____
ROOT
ATOM      1  N   UNL     1      17.606  10.056  36.709  0.00  0.00    +0.000 N 
ATOM      2  N   UNL     1      17.300  10.500  35.506  0.00  0.00    +0.000 NA
ATOM      3  C   UNL     1      16.194  11.244  35.484  0.00  0.00    +0.000 A 
ATOM      4  C   UNL     1      15.751  11.274  36.813  0.00  0.00    +0.000 A 
ATOM      5  C   UNL     1      16.658  10.526  37.533  0.00  0.00    +0.000 A 
ATOM      6  N   UNL     1      16.616  10.273  38.944  0.00  0.00    +0.000 NA
ENDROOT
BRANCH   3   7
ATOM      7  C   UNL     1      15.533  11.905  34.377  0.00  0.00    +0.000 A 
ATOM      8  C   UNL     1      14.590  12.873  34.589  0.00  0.00    +0.000 A 
ATOM      9  C   UNL     1      13.953  13.511  33.536  0.00  0.00    +0.000 A 
ATOM     10  C   UNL     1      14.297  13.142  32.256  0.00  0.00    +0.000 A 
ATOM     11  C   UNL     1      13.603  13.837  31.125  0.00  0.00    +0.000 C 
ATOM     12  C   UNL     1      15.239  12.175  32.031  0.00  0.00    +0.000 A 
ATOM     13  C   UNL     1      15.858  11.555  33.096  0.00  0.00    +0.000 A 
ENDBRANCH   3   7
BRANCH   1  14
ATOM     14  C   UNL     1      18.735   9.223  37.107  0.00  0.00    +0.000 C 
BRANCH  14  15
ATOM     15  C   UNL     1      19.989  10.023  37.168  0.00  0.00    +0.000 C 
ATOM     16  O   UNL     1      20.083  11.086  37.845  0.00  0.00    +0.000 OA
BRANCH  15  17
ATOM     17  O   UNL     1      21.124   9.631  36.473  0.00  0.00    +0.000 OA
BRANCH  17  19
ATOM     18  C   UNL     1      23.403   9.043  36.473  0.00  0.00    +0.000 C 
ATOM     19  C   UNL     1      22.407  10.140  36.793  0.00  0.00    +0.000 C 
ENDBRANCH  17  19
ENDBRANCH  15  17
ENDBRANCH  14  15
ENDBRANCH   1  14
TORSDOF 5
ENDMDL
MODEL 2
REMARK VINA RESULT:      -6.4      3.108      6.825
REMARK  Name = 
REMARK  5 active torsions:
REMARK  status: ('A' for Active; 'I' for Inactive)
REMARK    1  A    between atoms: C_2  and  O_3
REMARK    2  A    between atoms: O_3  and  C_4
REMARK    3  A    between atoms: C_4  and  C_6
REMARK    4  A    between atoms: C_6  and  N_7
REMARK    5  A    between atoms: C_9  and  C_10
REMARK                            x       y       z     vdW  Elec       q    Type
REMARK                         _______ _______ _______ _____ _____    ______ ____
ROOT
ATOM      1  N   UNL     1      15.027  12.069  35.440  0.00  0.00    +0.000 N 
ATOM      2  N   UNL     1      16.114  11.435  35.833  0.00  0.00    +0.000 NA
ATOM      3  C   UNL     1      16.072  11.060  37.111  0.00  0.00    +0.000 A 
ATOM      4  C   UNL     1      14.828  11.502  37.579  0.00  0.00    +0.000 A 
ATOM      5  C   UNL     1      14.218  12.120  36.508  0.00  0.00    +0.000 A 
ATOM      6  N   UNL     1      12.921  12.731  36.510  0.00  0.00    +0.000 NA
ENDROOT
BRANCH   3   7
ATOM      7  C   UNL     1      17.051  10.352  37.911  0.00  0.00    +0.000 A 
ATOM      8  C   UNL     1      16.776   9.966  39.194  0.00  0.00    +0.000 A 
ATOM      9  C   UNL     1      17.706   9.287  39.966  0.00  0.00    +0.000 A 
ATOM     10  C   UNL     1      18.929   9.008  39.403  0.00  0.00    +0.000 A 
ATOM     11  C   UNL     1      19.928   8.275  40.245  0.00  0.00    +0.000 C 
ATOM     12  C   UNL     1      19.218   9.388  38.119  0.00  0.00    +0.000 A 
ATOM     13  C   UNL     1      18.275  10.062  37.372  0.00  0.00    +0.000 A 
ENDBRANCH   3   7
BRANCH   1  14
ATOM     14  C   UNL     1      14.725  12.619  34.123  0.00  0.00    +0.000 C 
BRANCH  14  15
ATOM     15  C   UNL     1      15.214  11.715  33.047  0.00  0.00    +0.000 C 
ATOM     16  O   UNL     1      14.899  10.492  32.992  0.00  0.00    +0.000 OA
BRANCH  15  17
ATOM     17  O   UNL     1      16.051  12.182  32.043  0.00  0.00    +0.000 OA
BRANCH  17  19
ATOM     18  C   UNL     1      16.693  13.577  30.260  0.00  0.00    +0.000 C 
ATOM     19  C   UNL     1      15.541  12.813  30.881  0.00  0.00    +0.000 C 
ENDBRANCH  17  19
ENDBRANCH  15  17
ENDBRANCH  14  15
ENDBRANCH   1  14
TORSDOF 5
ENDMDL
MODEL 3
REMARK VINA RESULT:      -6.0      3.532      6.743
REMARK  Name = 
REMARK  5 active torsions:
REMARK  status: ('A' for Active; 'I' for Inactive)
REMARK    1  A    between atoms: C_2  and  O_3
REMARK    2  A    between atoms: O_3  and  C_4
REMARK    3  A    between atoms: C_4  and  C_6
REMARK    4  A    between atoms: C_6  and  N_7
REMARK    5  A    between atoms: C_9  and  C_10
REMARK                            x       y       z     vdW  Elec       q    Type
REMARK                         _______ _______ _______ _____ _____    ______ ____
ROOT
ATOM      1  N   UNL     1      14.804  11.930  36.609  0.00  0.00    +0.000 N 
ATOM      2  N   UNL     1      15.732  11.340  37.336  0.00  0.00    +0.000 NA
ATOM      3  C   UNL     1      15.257  10.803  38.461  0.00  0.00    +0.000 A 
ATOM      4  C   UNL     1      13.884  11.083  38.445  0.00  0.00    +0.000 A 
ATOM      5  C   UNL     1      13.652  11.781  37.279  0.00  0.00    +0.000 A 
ATOM      6  N   UNL     1      12.386  12.282  36.830  0.00  0.00    +0.000 NA
ENDROOT
BRANCH   3   7
ATOM      7  C   UNL     1      15.941  10.080  39.513  0.00  0.00    +0.000 A 
ATOM      8  C   UNL     1      15.279   9.663  40.635  0.00  0.00    +0.000 A 
ATOM      9  C   UNL     1      15.925   8.970  41.647  0.00  0.00    +0.000 A 
ATOM     10  C   UNL     1      17.266   8.708  41.492  0.00  0.00    +0.000 A 
ATOM     11  C   UNL     1      17.956   7.958  42.591  0.00  0.00    +0.000 C 
ATOM     12  C   UNL     1      17.941   9.117  40.374  0.00  0.00    +0.000 A 
ATOM     13  C   UNL     1      17.275   9.806  39.382  0.00  0.00    +0.000 A 
ENDBRANCH   3   7
BRANCH   1  14
ATOM     14  C   UNL     1      14.956  12.616  35.330  0.00  0.00    +0.000 C 
BRANCH  14  15
ATOM     15  C   UNL     1      15.604  11.729  34.327  0.00  0.00    +0.000 C 
ATOM     16  O   UNL     1      14.966  11.210  33.366  0.00  0.00    +0.000 OA
BRANCH  15  17
ATOM     17  O   UNL     1      16.956  11.428  34.404  0.00  0.00    +0.000 OA
BRANCH  17  19
ATOM     18  C   UNL     1      17.827   9.370  35.144  0.00  0.00    +0.000 C 
ATOM     19  C   UNL     1      17.475  10.198  33.925  0.00  0.00    +0.000 C 
ENDBRANCH  17  19
ENDBRANCH  15  17
ENDBRANCH  14  15
ENDBRANCH   1  14
TORSDOF 5
ENDMDL
MODEL 4
REMARK VINA RESULT:      -5.9     28.856     30.638
REMARK  Name = 
REMARK  5 active torsions:
REMARK  status: ('A' for Active; 'I' for Inactive)
REMARK    1  A    between atoms: C_2  and  O_3
REMARK    2  A    between atoms: O_3  and  C_4
REMARK    3  A    between atoms: C_4  and  C_6
REMARK    4  A    between atoms: C_6  and  N_7
REMARK    5  A    between atoms: C_9  and  C_10
REMARK                            x       y       z     vdW  Elec       q    Type
REMARK                         _______ _______ _______ _____ _____    ______ ____
ROOT
ATOM      1  N   UNL     1      33.132  21.209  10.438  0.00  0.00    +0.000 N 
ATOM      2  N   UNL     1      31.948  21.788  10.399  0.00  0.00    +0.000 NA
ATOM      3  C   UNL     1      31.303  21.748  11.566  0.00  0.00    +0.000 A 
ATOM      4  C   UNL     1      32.168  21.072  12.436  0.00  0.00    +0.000 A 
ATOM      5  C   UNL     1      33.287  20.760  11.692  0.00  0.00    +0.000 A 
ATOM      6  N   UNL     1      34.449  20.063  12.162  0.00  0.00    +0.000 NA
ENDROOT
BRANCH   3   7
ATOM      7  C   UNL     1      29.999  22.262  11.931  0.00  0.00    +0.000 A 
ATOM      8  C   UNL     1      28.906  22.057  11.135  0.00  0.00    +0.000 A 
ATOM      9  C   UNL     1      27.654  22.545  11.477  0.00  0.00    +0.000 A 
ATOM     10  C   UNL     1      27.537  23.250  12.652  0.00  0.00    +0.000 A 
ATOM     11  C   UNL     1      26.181  23.773  13.013  0.00  0.00    +0.000 C 
ATOM     12  C   UNL     1      28.623  23.461  13.459  0.00  0.00    +0.000 A 
ATOM     13  C   UNL     1      29.857  22.965  13.096  0.00  0.00    +0.000 A 
ENDBRANCH   3   7
BRANCH   1  14
ATOM     14  C   UNL     1      34.106  21.065   9.361  0.00  0.00    +0.000 C 
BRANCH  14  15
ATOM     15  C   UNL     1      33.720  19.960   8.443  0.00  0.00    +0.000 C 
ATOM     16  O   UNL     1      34.051  18.757   8.651  0.00  0.00    +0.000 OA
BRANCH  15  17
ATOM     17  O   UNL     1      32.970  20.205   7.302  0.00  0.00    +0.000 OA
BRANCH  17  19
ATOM     18  C   UNL     1      31.364  21.849   6.794  0.00  0.00    +0.000 C 
ATOM     19  C   UNL     1      32.840  21.509   6.760  0.00  0.00    +0.000 C 
ENDBRANCH  17  19
ENDBRANCH  15  17
ENDBRANCH  14  15
ENDBRANCH   1  14
TORSDOF 5
ENDMDL
MODEL 5
REMARK VINA RESULT:      -5.9      1.565      2.186
REMARK  Name = 
REMARK  5 active torsions:
REMARK  status: ('A' for Active; 'I' for Inactive)
REMARK    1  A    between atoms: C_2  and  O_3
REMARK    2  A    between atoms: O_3  and  C_4
REMARK    3  A    between atoms: C_4  and  C_6
REMARK    4  A    between atoms: C_6  and  N_7
REMARK    5  A    between atoms: C_9  and  C_10
REMARK                            x       y       z     vdW  Elec       q    Type
REMARK                         _______ _______ _______ _____ _____    ______ ____
ROOT
ATOM      1  N   UNL     1      18.533  10.884  37.566  0.00  0.00    +0.000 N 
ATOM      2  N   UNL     1      18.025  11.495  36.514  0.00  0.00    +0.000 NA
ATOM      3  C   UNL     1      17.352  10.678  35.703  0.00  0.00    +0.000 A 
ATOM      4  C   UNL     1      17.442   9.416  36.304  0.00  0.00    +0.000 A 
ATOM      5  C   UNL     1      18.182   9.595  37.454  0.00  0.00    +0.000 A 
ATOM      6  N   UNL     1      18.536   8.576  38.400  0.00  0.00    +0.000 NA
ENDROOT
BRANCH   3   7
ATOM      7  C   UNL     1      16.656  10.955  34.463  0.00  0.00    +0.000 A 
ATOM      8  C   UNL     1      17.035  10.363  33.290  0.00  0.00    +0.000 A 
ATOM      9  C   UNL     1      16.376  10.622  32.098  0.00  0.00    +0.000 A 
ATOM     10  C   UNL     1      15.317  11.500  32.125  0.00  0.00    +0.000 A 
ATOM     11  C   UNL     1      14.611  11.773  30.832  0.00  0.00    +0.000 C 
ATOM     12  C   UNL     1      14.927  12.098  33.293  0.00  0.00    +0.000 A 
ATOM     13  C   UNL     1      15.600  11.824  34.465  0.00  0.00    +0.000 A 
ENDBRANCH   3   7
BRANCH   1  14
ATOM     14  C   UNL     1      19.320  11.455  38.653  0.00  0.00    +0.000 C 
BRANCH  14  15
ATOM     15  C   UNL     1      20.730  11.672  38.228  0.00  0.00    +0.000 C 
ATOM     16  O   UNL     1      21.212  12.825  38.038  0.00  0.00    +0.000 OA
BRANCH  15  17
ATOM     17  O   UNL     1      21.588  10.602  38.018  0.00  0.00    +0.000 OA
BRANCH  17  19
ATOM     18  C   UNL     1      23.151  10.402  36.270  0.00  0.00    +0.000 C 
ATOM     19  C   UNL     1      21.759  10.024  36.735  0.00  0.00    +0.000 C 
ENDBRANCH  17  19
ENDBRANCH  15  17
ENDBRANCH  14  15
ENDBRANCH   1  14
TORSDOF 5
ENDMDL
MODEL 6
REMARK VINA RESULT:      -5.9     20.534     22.396
REMARK  Name = 
REMARK  5 active torsions:
REMARK  status: ('A' for Active; 'I' for Inactive)
REMARK    1  A    between atoms: C_2  and  O_3
REMARK    2  A    between atoms: O_3  and  C_4
REMARK    3  A    between atoms: C_4  and  C_6
REMARK    4  A    between atoms: C_6  and  N_7
REMARK    5  A    between atoms: C_9  and  C_10
REMARK                            x       y       z     vdW  Elec       q    Type
REMARK                         _______ _______ _______ _____ _____    ______ ____
ROOT
ATOM      1  N   UNL     1      18.336  -7.691  26.309  0.00  0.00    +0.000 N 
ATOM      2  N   UNL     1      19.454  -8.128  25.763  0.00  0.00    +0.000 NA
ATOM      3  C   UNL     1      20.353  -7.165  25.562  0.00  0.00    +0.000 A 
ATOM      4  C   UNL     1      19.742  -5.994  26.027  0.00  0.00    +0.000 A 
ATOM      5  C   UNL     1      18.495  -6.371  26.480  0.00  0.00    +0.000 A 
ATOM      6  N   UNL     1      17.504  -5.505  27.050  0.00  0.00    +0.000 NA
ENDROOT
BRANCH   3   7
ATOM      7  C   UNL     1      21.684  -7.232  24.993  0.00  0.00    +0.000 A 
ATOM      8  C   UNL     1      22.390  -8.404  24.975  0.00  0.00    +0.000 A 
ATOM      9  C   UNL     1      23.664  -8.478  24.433  0.00  0.00    +0.000 A 
ATOM     10  C   UNL     1      24.208  -7.329  23.908  0.00  0.00    +0.000 A 
ATOM     11  C   UNL     1      25.585  -7.419  23.324  0.00  0.00    +0.000 C 
ATOM     12  C   UNL     1      23.512  -6.150  23.919  0.00  0.00    +0.000 A 
ATOM     13  C   UNL     1      22.247  -6.103  24.465  0.00  0.00    +0.000 A 
ENDBRANCH   3   7
BRANCH   1  14
ATOM     14  C   UNL     1      17.145  -8.454  26.668  0.00  0.00    +0.000 C 
BRANCH  14  15
ATOM     15  C   UNL     1      16.186  -8.505  25.532  0.00  0.00    +0.000 C 
ATOM     16  O   UNL     1      16.515  -8.920  24.384  0.00  0.00    +0.000 OA
BRANCH  15  17
ATOM     17  O   UNL     1      14.870  -8.093  25.686  0.00  0.00    +0.000 OA
BRANCH  17  19
ATOM     18  C   UNL     1      12.523  -8.258  25.733  0.00  0.00    +0.000 C 
ATOM     19  C   UNL     1      13.821  -9.018  25.916  0.00  0.00    +0.000 C 
ENDBRANCH  17  19
ENDBRANCH  15  17
ENDBRANCH  14  15
ENDBRANCH   1  14
TORSDOF 5
ENDMDL
MODEL 7
REMARK VINA RESULT:      -5.9      2.223      7.500
REMARK  Name = 
REMARK  5 active torsions:
REMARK  status: ('A' for Active; 'I' for Inactive)
REMARK    1  A    between atoms: C_2  and  O_3
REMARK    2  A    between atoms: O_3  and  C_4
REMARK    3  A    between atoms: C_4  and  C_6
REMARK    4  A    between atoms: C_6  and  N_7
REMARK    5  A    between atoms: C_9  and  C_10
REMARK                            x       y       z     vdW  Elec       q    Type
REMARK                         _______ _______ _______ _____ _____    ______ ____
ROOT
ATOM      1  N   UNL     1      18.409   9.656  36.349  0.00  0.00    +0.000 N 
ATOM      2  N   UNL     1      19.689   9.552  36.049  0.00  0.00    +0.000 NA
ATOM      3  C   UNL     1      20.495   9.845  37.070  0.00  0.00    +0.000 A 
ATOM      4  C   UNL     1      19.637  10.170  38.128  0.00  0.00    +0.000 A 
ATOM      5  C   UNL     1      18.357  10.038  37.633  0.00  0.00    +0.000 A 
ATOM      6  N   UNL     1      17.141  10.268  38.359  0.00  0.00    +0.000 NA
ENDROOT
BRANCH   3   7
ATOM      7  C   UNL     1      21.942   9.851  37.147  0.00  0.00    +0.000 A 
ATOM      8  C   UNL     1      22.593   9.509  38.300  0.00  0.00    +0.000 A 
ATOM      9  C   UNL     1      23.977   9.511  38.383  0.00  0.00    +0.000 A 
ATOM     10  C   UNL     1      24.688   9.871  37.262  0.00  0.00    +0.000 A 
ATOM     11  C   UNL     1      26.183   9.870  37.361  0.00  0.00    +0.000 C 
ATOM     12  C   UNL     1      24.049  10.214  36.101  0.00  0.00    +0.000 A 
ATOM     13  C   UNL     1      22.671  10.204  36.045  0.00  0.00    +0.000 A 
ENDBRANCH   3   7
BRANCH   1  14
ATOM     14  C   UNL     1      17.255   9.415  35.491  0.00  0.00    +0.000 C 
BRANCH  14  15
ATOM     15  C   UNL     1      16.951  10.614  34.663  0.00  0.00    +0.000 C 
ATOM     16  O   UNL     1      17.076  11.792  35.103  0.00  0.00    +0.000 OA
BRANCH  15  17
ATOM     17  O   UNL     1      16.509  10.487  33.354  0.00  0.00    +0.000 OA
BRANCH  17  19
ATOM     18  C   UNL     1      15.875  11.372  31.267  0.00  0.00    +0.000 C 
ATOM     19  C   UNL     1      15.644  11.442  32.763  0.00  0.00    +0.000 C 
ENDBRANCH  17  19
ENDBRANCH  15  17
ENDBRANCH  14  15
ENDBRANCH   1  14
TORSDOF 5
ENDMDL
MODEL 8
REMARK VINA RESULT:      -5.8     19.841     22.443
REMARK  Name = 
REMARK  5 active torsions:
REMARK  status: ('A' for Active; 'I' for Inactive)
REMARK    1  A    between atoms: C_2  and  O_3
REMARK    2  A    between atoms: O_3  and  C_4
REMARK    3  A    between atoms: C_4  and  C_6
REMARK    4  A    between atoms: C_6  and  N_7
REMARK    5  A    between atoms: C_9  and  C_10
REMARK                            x       y       z     vdW  Elec       q    Type
REMARK                         _______ _______ _______ _____ _____    ______ ____
ROOT
ATOM      1  N   UNL     1      33.740  -4.772  33.172  0.00  0.00    +0.000 N 
ATOM      2  N   UNL     1      33.600  -3.539  32.728  0.00  0.00    +0.000 NA
ATOM      3  C   UNL     1      33.701  -2.619  33.688  0.00  0.00    +0.000 A 
ATOM      4  C   UNL     1      33.928  -3.345  34.864  0.00  0.00    +0.000 A 
ATOM      5  C   UNL     1      33.945  -4.673  34.493  0.00  0.00    +0.000 A 
ATOM      6  N   UNL     1      34.147  -5.793  35.365  0.00  0.00    +0.000 NA
ENDROOT
BRANCH   3   7
ATOM      7  C   UNL     1      33.606  -1.175  33.614  0.00  0.00    +0.000 A 
ATOM      8  C   UNL     1      34.292  -0.467  32.665  0.00  0.00    +0.000 A 
ATOM      9  C   UNL     1      34.208   0.915  32.586  0.00  0.00    +0.000 A 
ATOM     10  C   UNL     1      33.407   1.564  33.497  0.00  0.00    +0.000 A 
ATOM     11  C   UNL     1      33.322   3.057  33.403  0.00  0.00    +0.000 C 
ATOM     12  C   UNL     1      32.714   0.868  34.450  0.00  0.00    +0.000 A 
ATOM     13  C   UNL     1      32.816  -0.507  34.508  0.00  0.00    +0.000 A 
ENDBRANCH   3   7
BRANCH   1  14
ATOM     14  C   UNL     1      33.691  -6.018  32.414  0.00  0.00    +0.000 C 
BRANCH  14  15
ATOM     15  C   UNL     1      34.857  -6.127  31.497  0.00  0.00    +0.000 C 
ATOM     16  O   UNL     1      35.911  -6.752  31.810  0.00  0.00    +0.000 OA
BRANCH  15  17
ATOM     17  O   UNL     1      34.839  -5.538  30.241  0.00  0.00    +0.000 OA
BRANCH  17  19
ATOM     18  C   UNL     1      34.146  -6.651  28.286  0.00  0.00    +0.000 C 
ATOM     19  C   UNL     1      33.730  -5.676  29.369  0.00  0.00    +0.000 C 
ENDBRANCH  17  19
ENDBRANCH  15  17
ENDBRANCH  14  15
ENDBRANCH   1  14
TORSDOF 5
ENDMDL
MODEL 9
REMARK VINA RESULT:      -5.8     19.889     21.601
REMARK  Name = 
REMARK  5 active torsions:
REMARK  status: ('A' for Active; 'I' for Inactive)
REMARK    1  A    between atoms: C_2  and  O_3
REMARK    2  A    between atoms: O_3  and  C_4
REMARK    3  A    between atoms: C_4  and  C_6
REMARK    4  A    between atoms: C_6  and  N_7
REMARK    5  A    between atoms: C_9  and  C_10
REMARK                            x       y       z     vdW  Elec       q    Type
REMARK                         _______ _______ _______ _____ _____    ______ ____
ROOT
ATOM      1  N   UNL     1      27.610  24.249  22.982  0.00  0.00    +0.000 N 
ATOM      2  N   UNL     1      28.503  24.283  23.952  0.00  0.00    +0.000 NA
ATOM      3  C   UNL     1      28.212  23.464  24.963  0.00  0.00    +0.000 A 
ATOM      4  C   UNL     1      27.010  22.846  24.597  0.00  0.00    +0.000 A 
ATOM      5  C   UNL     1      26.678  23.365  23.363  0.00  0.00    +0.000 A 
ATOM      6  N   UNL     1      25.520  23.027  22.586  0.00  0.00    +0.000 NA
ENDROOT
BRANCH   3   7
ATOM      7  C   UNL     1      28.927  23.213  26.198  0.00  0.00    +0.000 A 
ATOM      8  C   UNL     1      28.457  23.674  27.397  0.00  0.00    +0.000 A 
ATOM      9  C   UNL     1      29.134  23.438  28.584  0.00  0.00    +0.000 A 
ATOM     10  C   UNL     1      30.306  22.719  28.525  0.00  0.00    +0.000 A 
ATOM     11  C   UNL     1      31.030  22.470  29.812  0.00  0.00    +0.000 C 
ATOM     12  C   UNL     1      30.786  22.251  27.332  0.00  0.00    +0.000 A 
ATOM     13  C   UNL     1      30.094  22.500  26.165  0.00  0.00    +0.000 A 
ENDBRANCH   3   7
BRANCH   1  14
ATOM     14  C   UNL     1      27.602  25.003  21.733  0.00  0.00    +0.000 C 
BRANCH  14  15
ATOM     15  C   UNL     1      28.988  25.231  21.242  0.00  0.00    +0.000 C 
ATOM     16  O   UNL     1      29.703  24.300  20.772  0.00  0.00    +0.000 OA
BRANCH  15  17
ATOM     17  O   UNL     1      29.564  26.492  21.280  0.00  0.00    +0.000 OA
BRANCH  17  19
ATOM     18  C   UNL     1      30.028  27.259  19.103  0.00  0.00    +0.000 C 
ATOM     19  C   UNL     1      29.206  27.504  20.353  0.00  0.00    +0.000 C 
ENDBRANCH  17  19
ENDBRANCH  15  17
ENDBRANCH  14  15
ENDBRANCH   1  14
TORSDOF 5
ENDMDL
MODEL 10
REMARK VINA RESULT:      -5.6      3.260      4.496
REMARK  Name = 
REMARK  5 active torsions:
REMARK  status: ('A' for Active; 'I' for Inactive)
REMARK    1  A    between atoms: C_2  and  O_3
REMARK    2  A    between atoms: O_3  and  C_4
REMARK    3  A    between atoms: C_4  and  C_6
REMARK    4  A    between atoms: C_6  and  N_7
REMARK    5  A    between atoms: C_9  and  C_10
REMARK                            x       y       z     vdW  Elec       q    Type
REMARK                         _______ _______ _______ _____ _____    ______ ____
ROOT
ATOM      1  N   UNL     1      17.712   9.632  39.317  0.00  0.00    +0.000 N 
ATOM      2  N   UNL     1      16.978  10.066  38.311  0.00  0.00    +0.000 NA
ATOM      3  C   UNL     1      17.622  10.052  37.144  0.00  0.00    +0.000 A 
ATOM      4  C   UNL     1      18.899   9.558  37.440  0.00  0.00    +0.000 A 
ATOM      5  C   UNL     1      18.905   9.312  38.797  0.00  0.00    +0.000 A 
ATOM      6  N   UNL     1      20.006   8.795  39.558  0.00  0.00    +0.000 NA
ENDROOT
BRANCH   3   7
ATOM      7  C   UNL     1      17.173  10.444  35.823  0.00  0.00    +0.000 A 
ATOM      8  C   UNL     1      17.736   9.913  34.696  0.00  0.00    +0.000 A 
ATOM      9  C   UNL     1      17.313  10.282  33.428  0.00  0.00    +0.000 A 
ATOM     10  C   UNL     1      16.300  11.208  33.331  0.00  0.00    +0.000 A 
ATOM     11  C   UNL     1      15.849  11.600  31.957  0.00  0.00    +0.000 C 
ATOM     12  C   UNL     1      15.727  11.746  34.452  0.00  0.00    +0.000 A 
ATOM     13  C   UNL     1      16.167  11.363  35.702  0.00  0.00    +0.000 A 
ENDBRANCH   3   7
BRANCH   1  14
ATOM     14  C   UNL     1      17.341   9.509  40.722  0.00  0.00    +0.000 C 
BRANCH  14  15
ATOM     15  C   UNL     1      16.635   8.223  40.973  0.00  0.00    +0.000 C 
ATOM     16  O   UNL     1      15.430   8.173  41.353  0.00  0.00    +0.000 OA
BRANCH  15  17
ATOM     17  O   UNL     1      17.278   7.006  40.798  0.00  0.00    +0.000 OA
BRANCH  17  19
ATOM     18  C   UNL     1      18.548   5.089  41.298  0.00  0.00    +0.000 C 
ATOM     19  C   UNL     1      18.076   6.431  41.819  0.00  0.00    +0.000 C 
ENDBRANCH  17  19
ENDBRANCH  15  17
ENDBRANCH  14  15
ENDBRANCH   1  14
TORSDOF 5
ENDMDL
