MODEL 1
REMARK VINA RESULT:      -6.1      0.000      0.000
REMARK  Name = 
REMARK  4 active torsions:
REMARK  status: ('A' for Active; 'I' for Inactive)
REMARK    1  A    between atoms: O_2  and  C_3
REMARK    2  A    between atoms: C_10  and  S_11
REMARK    3  A    between atoms: S_11  and  C_12
REMARK    4  A    between atoms: C_12  and  C_13
REMARK                            x       y       z     vdW  Elec       q    Type
REMARK                         _______ _______ _______ _____ _____    ______ ____
ROOT
ATOM      1  C   UNL     1      18.107  -8.337  27.528  0.00  0.00    +0.000 A 
ATOM      2  C   UNL     1      17.576  -7.092  27.260  0.00  0.00    +0.000 A 
ATOM      3  C   UNL     1      18.326  -6.216  26.500  0.00  0.00    +0.000 A 
ATOM      4  C   UNL     1      19.568  -6.575  26.022  0.00  0.00    +0.000 A 
ATOM      5  N   UNL     1      20.451  -5.890  25.274  0.00  0.00    +0.000 NA
ATOM      6  C   UNL     1      21.545  -6.647  25.043  0.00  0.00    +0.000 A 
ATOM      7  N   UNL     1      22.712  -6.460  24.366  0.00  0.00    +0.000 NA
ATOM      8  C   UNL     1      23.663  -7.415  24.294  0.00  0.00    +0.000 A 
ATOM      9  N   UNL     1      23.396  -8.576  24.932  0.00  0.00    +0.000 NA
ATOM     10  N   UNL     1      22.265  -8.789  25.603  0.00  0.00    +0.000 NA
ATOM     11  C   UNL     1      21.308  -7.846  25.683  0.00  0.00    +0.000 A 
ATOM     12  C   UNL     1      20.077  -7.831  26.306  0.00  0.00    +0.000 A 
ATOM     13  C   UNL     1      19.347  -8.723  27.063  0.00  0.00    +0.000 A 
ENDROOT
BRANCH   1  15
ATOM     14  C   UNL     1      17.688  -9.663  29.570  0.00  0.00    +0.000 C 
ATOM     15  O   UNL     1      17.307  -9.181  28.301  0.00  0.00    +0.000 OA
ENDBRANCH   1  15
BRANCH   8  16
ATOM     16  S   UNL     1      25.185  -7.171  23.408  0.00  0.00    +0.000 S 
BRANCH  16  17
ATOM     17  C   UNL     1      25.671  -8.566  22.401  0.00  0.00    +0.000 C 
BRANCH  17  18
ATOM     18  C   UNL     1      27.160  -8.797  22.349  0.00  0.00    +0.000 C 
ATOM     19  C   UNL     1      27.844  -7.459  22.139  0.00  0.00    +0.000 C 
ATOM     20  C   UNL     1      27.552  -9.300  23.743  0.00  0.00    +0.000 C 
ENDBRANCH  17  18
ENDBRANCH  16  17
ENDBRANCH   8  16
TORSDOF 4
ENDMDL
MODEL 2
REMARK VINA RESULT:      -6.1     33.983     35.276
REMARK  Name = 
REMARK  4 active torsions:
REMARK  status: ('A' for Active; 'I' for Inactive)
REMARK    1  A    between atoms: O_2  and  C_3
REMARK    2  A    between atoms: C_10  and  S_11
REMARK    3  A    between atoms: S_11  and  C_12
REMARK    4  A    between atoms: C_12  and  C_13
REMARK                            x       y       z     vdW  Elec       q    Type
REMARK                         _______ _______ _______ _____ _____    ______ ____
ROOT
ATOM      1  C   UNL     1      27.325  24.743  24.148  0.00  0.00    +0.000 A 
ATOM      2  C   UNL     1      27.830  23.501  23.819  0.00  0.00    +0.000 A 
ATOM      3  C   UNL     1      28.608  23.397  22.682  0.00  0.00    +0.000 A 
ATOM      4  C   UNL     1      28.872  24.501  21.899  0.00  0.00    +0.000 A 
ATOM      5  N   UNL     1      29.593  24.623  20.771  0.00  0.00    +0.000 NA
ATOM      6  C   UNL     1      29.576  25.905  20.349  0.00  0.00    +0.000 A 
ATOM      7  N   UNL     1      30.122  26.573  19.294  0.00  0.00    +0.000 NA
ATOM      8  C   UNL     1      29.939  27.897  19.109  0.00  0.00    +0.000 A 
ATOM      9  N   UNL     1      29.181  28.532  20.030  0.00  0.00    +0.000 NA
ATOM     10  N   UNL     1      28.634  27.908  21.071  0.00  0.00    +0.000 NA
ATOM     11  C   UNL     1      28.808  26.588  21.269  0.00  0.00    +0.000 A 
ATOM     12  C   UNL     1      28.351  25.735  22.252  0.00  0.00    +0.000 A 
ATOM     13  C   UNL     1      27.572  25.863  23.383  0.00  0.00    +0.000 A 
ENDROOT
BRANCH   1  15
ATOM     14  C   UNL     1      25.772  23.703  25.763  0.00  0.00    +0.000 C 
ATOM     15  O   UNL     1      26.546  24.789  25.307  0.00  0.00    +0.000 OA
ENDBRANCH   1  15
BRANCH   8  16
ATOM     16  S   UNL     1      30.654  28.768  17.733  0.00  0.00    +0.000 S 
BRANCH  16  17
ATOM     17  C   UNL     1      30.972  27.738  16.307  0.00  0.00    +0.000 C 
BRANCH  17  18
ATOM     18  C   UNL     1      29.906  27.817  15.243  0.00  0.00    +0.000 C 
ATOM     19  C   UNL     1      29.045  26.571  15.337  0.00  0.00    +0.000 C 
ATOM     20  C   UNL     1      29.026  29.013  15.623  0.00  0.00    +0.000 C 
ENDBRANCH  17  18
ENDBRANCH  16  17
ENDBRANCH   8  16
TORSDOF 4
ENDMDL
MODEL 3
REMARK VINA RESULT:      -6.1     15.491     17.099
REMARK  Name = 
REMARK  4 active torsions:
REMARK  status: ('A' for Active; 'I' for Inactive)
REMARK    1  A    between atoms: O_2  and  C_3
REMARK    2  A    between atoms: C_10  and  S_11
REMARK    3  A    between atoms: S_11  and  C_12
REMARK    4  A    between atoms: C_12  and  C_13
REMARK                            x       y       z     vdW  Elec       q    Type
REMARK                         _______ _______ _______ _____ _____    ______ ____
ROOT
ATOM      1  C   UNL     1      33.305  -5.089  33.573  0.00  0.00    +0.000 A 
ATOM      2  C   UNL     1      32.459  -5.214  34.656  0.00  0.00    +0.000 A 
ATOM      3  C   UNL     1      32.029  -4.060  35.281  0.00  0.00    +0.000 A 
ATOM      4  C   UNL     1      32.434  -2.820  34.836  0.00  0.00    +0.000 A 
ATOM      5  N   UNL     1      32.141  -1.587  35.289  0.00  0.00    +0.000 NA
ATOM      6  C   UNL     1      32.769  -0.658  34.537  0.00  0.00    +0.000 A 
ATOM      7  N   UNL     1      32.825   0.703  34.547  0.00  0.00    +0.000 NA
ATOM      8  C   UNL     1      33.554   1.399  33.651  0.00  0.00    +0.000 A 
ATOM      9  N   UNL     1      34.231   0.673  32.735  0.00  0.00    +0.000 NA
ATOM     10  N   UNL     1      34.197  -0.658  32.698  0.00  0.00    +0.000 NA
ATOM     11  C   UNL     1      33.474  -1.367  33.586  0.00  0.00    +0.000 A 
ATOM     12  C   UNL     1      33.285  -2.723  33.748  0.00  0.00    +0.000 A 
ATOM     13  C   UNL     1      33.727  -3.862  33.107  0.00  0.00    +0.000 A 
ENDROOT
BRANCH   1  15
ATOM     14  C   UNL     1      34.186  -6.376  31.657  0.00  0.00    +0.000 C 
ATOM     15  O   UNL     1      33.708  -6.289  32.980  0.00  0.00    +0.000 OA
ENDBRANCH   1  15
BRANCH   8  16
ATOM     16  S   UNL     1      33.625   3.176  33.664  0.00  0.00    +0.000 S 
BRANCH  16  17
ATOM     17  C   UNL     1      34.046   3.874  35.255  0.00  0.00    +0.000 C 
BRANCH  17  18
ATOM     18  C   UNL     1      33.846   5.367  35.343  0.00  0.00    +0.000 C 
ATOM     19  C   UNL     1      35.138   6.047  34.927  0.00  0.00    +0.000 C 
ATOM     20  C   UNL     1      32.788   5.708  34.289  0.00  0.00    +0.000 C 
ENDBRANCH  17  18
ENDBRANCH  16  17
ENDBRANCH   8  16
TORSDOF 4
ENDMDL
MODEL 4
REMARK VINA RESULT:      -5.8     16.051     17.534
REMARK  Name = 
REMARK  4 active torsions:
REMARK  status: ('A' for Active; 'I' for Inactive)
REMARK    1  A    between atoms: O_2  and  C_3
REMARK    2  A    between atoms: C_10  and  S_11
REMARK    3  A    between atoms: S_11  and  C_12
REMARK    4  A    between atoms: C_12  and  C_13
REMARK                            x       y       z     vdW  Elec       q    Type
REMARK                         _______ _______ _______ _____ _____    ______ ____
ROOT
ATOM      1  C   UNL     1      33.837   3.909  35.292  0.00  0.00    +0.000 A 
ATOM      2  C   UNL     1      33.633   4.190  33.957  0.00  0.00    +0.000 A 
ATOM      3  C   UNL     1      33.532   3.129  33.078  0.00  0.00    +0.000 A 
ATOM      4  C   UNL     1      33.632   1.827  33.523  0.00  0.00    +0.000 A 
ATOM      5  N   UNL     1      33.563   0.664  32.851  0.00  0.00    +0.000 NA
ATOM      6  C   UNL     1      33.717  -0.371  33.705  0.00  0.00    +0.000 A 
ATOM      7  N   UNL     1      33.732  -1.726  33.572  0.00  0.00    +0.000 NA
ATOM      8  C   UNL     1      33.910  -2.550  34.625  0.00  0.00    +0.000 A 
ATOM      9  N   UNL     1      34.072  -1.958  35.829  0.00  0.00    +0.000 NA
ATOM     10  N   UNL     1      34.061  -0.636  35.992  0.00  0.00    +0.000 NA
ATOM     11  C   UNL     1      33.885   0.198  34.950  0.00  0.00    +0.000 A 
ATOM     12  C   UNL     1      33.838   1.574  34.868  0.00  0.00    +0.000 A 
ATOM     13  C   UNL     1      33.942   2.617  35.764  0.00  0.00    +0.000 A 
ENDROOT
BRANCH   1  15
ATOM     14  C   UNL     1      34.728   6.146  35.844  0.00  0.00    +0.000 C 
ATOM     15  O   UNL     1      33.932   5.019  36.135  0.00  0.00    +0.000 OA
ENDBRANCH   1  15
BRANCH   8  16
ATOM     16  S   UNL     1      33.928  -4.320  34.451  0.00  0.00    +0.000 S 
BRANCH  16  17
ATOM     17  C   UNL     1      32.861  -4.933  33.154  0.00  0.00    +0.000 C 
BRANCH  17  18
ATOM     18  C   UNL     1      33.567  -5.791  32.133  0.00  0.00    +0.000 C 
ATOM     19  C   UNL     1      33.399  -5.146  30.770  0.00  0.00    +0.000 C 
ATOM     20  C   UNL     1      35.055  -5.726  32.493  0.00  0.00    +0.000 C 
ENDBRANCH  17  18
ENDBRANCH  16  17
ENDBRANCH   8  16
TORSDOF 4
ENDMDL
MODEL 5
REMARK VINA RESULT:      -5.7     34.205     35.471
REMARK  Name = 
REMARK  4 active torsions:
REMARK  status: ('A' for Active; 'I' for Inactive)
REMARK    1  A    between atoms: O_2  and  C_3
REMARK    2  A    between atoms: C_10  and  S_11
REMARK    3  A    between atoms: S_11  and  C_12
REMARK    4  A    between atoms: C_12  and  C_13
REMARK                            x       y       z     vdW  Elec       q    Type
REMARK                         _______ _______ _______ _____ _____    ______ ____
ROOT
ATOM      1  C   UNL     1      26.869  24.474  24.183  0.00  0.00    +0.000 A 
ATOM      2  C   UNL     1      27.588  23.303  24.058  0.00  0.00    +0.000 A 
ATOM      3  C   UNL     1      28.525  23.221  23.047  0.00  0.00    +0.000 A 
ATOM      4  C   UNL     1      28.737  24.279  22.188  0.00  0.00    +0.000 A 
ATOM      5  N   UNL     1      29.586  24.412  21.154  0.00  0.00    +0.000 NA
ATOM      6  C   UNL     1      29.446  25.634  20.596  0.00  0.00    +0.000 A 
ATOM      7  N   UNL     1      30.034  26.283  19.553  0.00  0.00    +0.000 NA
ATOM      8  C   UNL     1      29.692  27.540  19.203  0.00  0.00    +0.000 A 
ATOM      9  N   UNL     1      28.728  28.128  19.945  0.00  0.00    +0.000 NA
ATOM     10  N   UNL     1      28.133  27.520  20.971  0.00  0.00    +0.000 NA
ATOM     11  C   UNL     1      28.465  26.266  21.332  0.00  0.00    +0.000 A 
ATOM     12  C   UNL     1      28.001  25.443  22.336  0.00  0.00    +0.000 A 
ATOM     13  C   UNL     1      27.059  25.547  23.338  0.00  0.00    +0.000 A 
ENDROOT
BRANCH   1  15
ATOM     14  C   UNL     1      25.994  23.641  26.338  0.00  0.00    +0.000 C 
ATOM     15  O   UNL     1      25.936  24.501  25.222  0.00  0.00    +0.000 OA
ENDBRANCH   1  15
BRANCH   8  16
ATOM     16  S   UNL     1      30.462  28.387  17.842  0.00  0.00    +0.000 S 
BRANCH  16  17
ATOM     17  C   UNL     1      31.714  29.564  18.335  0.00  0.00    +0.000 C 
BRANCH  17  18
ATOM     18  C   UNL     1      32.774  29.807  17.290  0.00  0.00    +0.000 C 
ATOM     19  C   UNL     1      32.822  31.295  16.996  0.00  0.00    +0.000 C 
ATOM     20  C   UNL     1      34.103  29.426  17.949  0.00  0.00    +0.000 C 
ENDBRANCH  17  18
ENDBRANCH  16  17
ENDBRANCH   8  16
TORSDOF 4
ENDMDL
MODEL 6
REMARK VINA RESULT:      -5.7     31.747     32.846
REMARK  Name = 
REMARK  4 active torsions:
REMARK  status: ('A' for Active; 'I' for Inactive)
REMARK    1  A    between atoms: O_2  and  C_3
REMARK    2  A    between atoms: C_10  and  S_11
REMARK    3  A    between atoms: S_11  and  C_12
REMARK    4  A    between atoms: C_12  and  C_13
REMARK                            x       y       z     vdW  Elec       q    Type
REMARK                         _______ _______ _______ _____ _____    ______ ____
ROOT
ATOM      1  C   UNL     1      26.017  24.161  30.075  0.00  0.00    +0.000 A 
ATOM      2  C   UNL     1      26.676  23.002  30.432  0.00  0.00    +0.000 A 
ATOM      3  C   UNL     1      27.334  22.298  29.442  0.00  0.00    +0.000 A 
ATOM      4  C   UNL     1      27.332  22.740  28.136  0.00  0.00    +0.000 A 
ATOM      5  N   UNL     1      27.899  22.219  27.034  0.00  0.00    +0.000 NA
ATOM      6  C   UNL     1      27.633  23.000  25.965  0.00  0.00    +0.000 A 
ATOM      7  N   UNL     1      27.948  22.949  24.641  0.00  0.00    +0.000 NA
ATOM      8  C   UNL     1      27.537  23.891  23.767  0.00  0.00    +0.000 A 
ATOM      9  N   UNL     1      26.790  24.896  24.276  0.00  0.00    +0.000 NA
ATOM     10  N   UNL     1      26.465  24.974  25.565  0.00  0.00    +0.000 NA
ATOM     11  C   UNL     1      26.868  24.041  26.449  0.00  0.00    +0.000 A 
ATOM     12  C   UNL     1      26.662  23.906  27.806  0.00  0.00    +0.000 A 
ATOM     13  C   UNL     1      25.998  24.626  28.777  0.00  0.00    +0.000 A 
ENDROOT
BRANCH   1  15
ATOM     14  C   UNL     1      24.661  26.037  30.937  0.00  0.00    +0.000 C 
ATOM     15  O   UNL     1      25.370  24.832  31.115  0.00  0.00    +0.000 OA
ENDBRANCH   1  15
BRANCH   8  16
ATOM     16  S   UNL     1      27.951  23.826  22.039  0.00  0.00    +0.000 S 
BRANCH  16  17
ATOM     17  C   UNL     1      29.284  24.922  21.570  0.00  0.00    +0.000 C 
BRANCH  17  18
ATOM     18  C   UNL     1      28.841  26.329  21.256  0.00  0.00    +0.000 C 
ATOM     19  C   UNL     1      29.183  27.213  22.440  0.00  0.00    +0.000 C 
ATOM     20  C   UNL     1      29.706  26.784  20.076  0.00  0.00    +0.000 C 
ENDBRANCH  17  18
ENDBRANCH  16  17
ENDBRANCH   8  16
TORSDOF 4
ENDMDL
MODEL 7
REMARK VINA RESULT:      -5.6      7.328      9.614
REMARK  Name = 
REMARK  4 active torsions:
REMARK  status: ('A' for Active; 'I' for Inactive)
REMARK    1  A    between atoms: O_2  and  C_3
REMARK    2  A    between atoms: C_10  and  S_11
REMARK    3  A    between atoms: S_11  and  C_12
REMARK    4  A    between atoms: C_12  and  C_13
REMARK                            x       y       z     vdW  Elec       q    Type
REMARK                         _______ _______ _______ _____ _____    ______ ____
ROOT
ATOM      1  C   UNL     1       8.739  -9.001  24.280  0.00  0.00    +0.000 A 
ATOM      2  C   UNL     1       8.370  -9.203  25.594  0.00  0.00    +0.000 A 
ATOM      3  C   UNL     1       9.362  -9.203  26.555  0.00  0.00    +0.000 A 
ATOM      4  C   UNL     1      10.683  -9.005  26.210  0.00  0.00    +0.000 A 
ATOM      5  N   UNL     1      11.791  -8.965  26.971  0.00  0.00    +0.000 NA
ATOM      6  C   UNL     1      12.875  -8.744  26.197  0.00  0.00    +0.000 A 
ATOM      7  N   UNL     1      14.210  -8.614  26.435  0.00  0.00    +0.000 NA
ATOM      8  C   UNL     1      15.098  -8.389  25.445  0.00  0.00    +0.000 A 
ATOM      9  N   UNL     1      14.592  -8.299  24.195  0.00  0.00    +0.000 NA
ATOM     10  N   UNL     1      13.293  -8.421  23.930  0.00  0.00    +0.000 NA
ATOM     11  C   UNL     1      12.395  -8.645  24.908  0.00  0.00    +0.000 A 
ATOM     12  C   UNL     1      11.025  -8.805  24.883  0.00  0.00    +0.000 A 
ATOM     13  C   UNL     1      10.051  -8.802  23.907  0.00  0.00    +0.000 A 
ENDROOT
BRANCH   1  15
ATOM     14  C   UNL     1       6.375  -8.630  23.667  0.00  0.00    +0.000 C 
ATOM     15  O   UNL     1       7.695  -9.013  23.352  0.00  0.00    +0.000 OA
ENDBRANCH   1  15
BRANCH   8  16
ATOM     16  S   UNL     1      16.840  -8.218  25.756  0.00  0.00    +0.000 S 
BRANCH  16  17
ATOM     17  C   UNL     1      17.250  -6.888  26.878  0.00  0.00    +0.000 C 
BRANCH  17  18
ATOM     18  C   UNL     1      18.716  -6.537  26.905  0.00  0.00    +0.000 C 
ATOM     19  C   UNL     1      19.412  -7.306  25.797  0.00  0.00    +0.000 C 
ATOM     20  C   UNL     1      18.795  -5.049  26.551  0.00  0.00    +0.000 C 
ENDBRANCH  17  18
ENDBRANCH  16  17
ENDBRANCH   8  16
TORSDOF 4
ENDMDL
MODEL 8
REMARK VINA RESULT:      -5.5     19.813     21.064
REMARK  Name = 
REMARK  4 active torsions:
REMARK  status: ('A' for Active; 'I' for Inactive)
REMARK    1  A    between atoms: O_2  and  C_3
REMARK    2  A    between atoms: C_10  and  S_11
REMARK    3  A    between atoms: S_11  and  C_12
REMARK    4  A    between atoms: C_12  and  C_13
REMARK                            x       y       z     vdW  Elec       q    Type
REMARK                         _______ _______ _______ _____ _____    ______ ____
ROOT
ATOM      1  C   UNL     1      33.744   0.456  35.127  0.00  0.00    +0.000 A 
ATOM      2  C   UNL     1      33.554   0.641  33.773  0.00  0.00    +0.000 A 
ATOM      3  C   UNL     1      33.555   1.934  33.287  0.00  0.00    +0.000 A 
ATOM      4  C   UNL     1      33.740   3.009  34.132  0.00  0.00    +0.000 A 
ATOM      5  N   UNL     1      33.778   4.329  33.875  0.00  0.00    +0.000 NA
ATOM      6  C   UNL     1      33.985   5.015  35.019  0.00  0.00    +0.000 A 
ATOM      7  N   UNL     1      34.107   6.334  35.335  0.00  0.00    +0.000 NA
ATOM      8  C   UNL     1      34.317   6.755  36.599  0.00  0.00    +0.000 A 
ATOM      9  N   UNL     1      34.402   5.793  37.545  0.00  0.00    +0.000 NA
ATOM     10  N   UNL     1      34.287   4.495  37.269  0.00  0.00    +0.000 NA
ATOM     11  C   UNL     1      34.078   4.061  36.012  0.00  0.00    +0.000 A 
ATOM     12  C   UNL     1      33.927   2.794  35.487  0.00  0.00    +0.000 A 
ATOM     13  C   UNL     1      33.930   1.512  35.994  0.00  0.00    +0.000 A 
ENDROOT
BRANCH   1  15
ATOM     14  C   UNL     1      33.121  -1.917  34.841  0.00  0.00    +0.000 C 
ATOM     15  O   UNL     1      33.733  -0.871  35.562  0.00  0.00    +0.000 OA
ENDBRANCH   1  15
BRANCH   8  16
ATOM     16  S   UNL     1      34.479   8.478  37.010  0.00  0.00    +0.000 S 
BRANCH  16  17
ATOM     17  C   UNL     1      35.259   9.458  35.735  0.00  0.00    +0.000 C 
BRANCH  17  18
ATOM     18  C   UNL     1      35.183  10.946  35.972  0.00  0.00    +0.000 C 
ATOM     19  C   UNL     1      35.430  11.652  34.652  0.00  0.00    +0.000 C 
ATOM     20  C   UNL     1      33.733  11.229  36.380  0.00  0.00    +0.000 C 
ENDBRANCH  17  18
ENDBRANCH  16  17
ENDBRANCH   8  16
TORSDOF 4
ENDMDL
MODEL 9
REMARK VINA RESULT:      -5.4     13.608     15.719
REMARK  Name = 
REMARK  4 active torsions:
REMARK  status: ('A' for Active; 'I' for Inactive)
REMARK    1  A    between atoms: O_2  and  C_3
REMARK    2  A    between atoms: C_10  and  S_11
REMARK    3  A    between atoms: S_11  and  C_12
REMARK    4  A    between atoms: C_12  and  C_13
REMARK                            x       y       z     vdW  Elec       q    Type
REMARK                         _______ _______ _______ _____ _____    ______ ____
ROOT
ATOM      1  C   UNL     1      35.040  -8.390  29.380  0.00  0.00    +0.000 A 
ATOM      2  C   UNL     1      34.387  -7.686  28.388  0.00  0.00    +0.000 A 
ATOM      3  C   UNL     1      33.826  -6.468  28.719  0.00  0.00    +0.000 A 
ATOM      4  C   UNL     1      33.917  -5.970  30.001  0.00  0.00    +0.000 A 
ATOM      5  N   UNL     1      33.452  -4.824  30.532  0.00  0.00    +0.000 NA
ATOM      6  C   UNL     1      33.780  -4.755  31.840  0.00  0.00    +0.000 A 
ATOM      7  N   UNL     1      33.570  -3.846  32.832  0.00  0.00    +0.000 NA
ATOM      8  C   UNL     1      34.022  -4.036  34.089  0.00  0.00    +0.000 A 
ATOM      9  N   UNL     1      34.698  -5.184  34.316  0.00  0.00    +0.000 NA
ATOM     10  N   UNL     1      34.920  -6.092  33.367  0.00  0.00    +0.000 NA
ATOM     11  C   UNL     1      34.475  -5.916  32.109  0.00  0.00    +0.000 A 
ATOM     12  C   UNL     1      34.577  -6.698  30.977  0.00  0.00    +0.000 A 
ATOM     13  C   UNL     1      35.145  -7.917  30.670  0.00  0.00    +0.000 A 
ENDROOT
BRANCH   1  15
ATOM     14  C   UNL     1      36.557 -10.306  29.743  0.00  0.00    +0.000 C 
ATOM     15  O   UNL     1      35.587  -9.615  28.989  0.00  0.00    +0.000 OA
ENDBRANCH   1  15
BRANCH   8  16
ATOM     16  S   UNL     1      33.749  -2.847  35.383  0.00  0.00    +0.000 S 
BRANCH  16  17
ATOM     17  C   UNL     1      34.669  -1.328  35.178  0.00  0.00    +0.000 C 
BRANCH  17  18
ATOM     18  C   UNL     1      33.880  -0.215  34.535  0.00  0.00    +0.000 C 
ATOM     19  C   UNL     1      34.147  -0.242  33.041  0.00  0.00    +0.000 C 
ATOM     20  C   UNL     1      32.405  -0.575  34.744  0.00  0.00    +0.000 C 
ENDBRANCH  17  18
ENDBRANCH  16  17
ENDBRANCH   8  16
TORSDOF 4
ENDMDL
MODEL 10
REMARK VINA RESULT:      -5.2      3.210      7.559
REMARK  Name = 
REMARK  4 active torsions:
REMARK  status: ('A' for Active; 'I' for Inactive)
REMARK    1  A    between atoms: O_2  and  C_3
REMARK    2  A    between atoms: C_10  and  S_11
REMARK    3  A    between atoms: S_11  and  C_12
REMARK    4  A    between atoms: C_12  and  C_13
REMARK                            x       y       z     vdW  Elec       q    Type
REMARK                         _______ _______ _______ _____ _____    ______ ____
ROOT
ATOM      1  C   UNL     1      25.503  -9.054  23.878  0.00  0.00    +0.000 A 
ATOM      2  C   UNL     1      25.880  -7.856  23.304  0.00  0.00    +0.000 A 
ATOM      3  C   UNL     1      24.997  -6.797  23.373  0.00  0.00    +0.000 A 
ATOM      4  C   UNL     1      23.775  -6.931  23.998  0.00  0.00    +0.000 A 
ATOM      5  N   UNL     1      22.780  -6.044  24.178  0.00  0.00    +0.000 NA
ATOM      6  C   UNL     1      21.763  -6.622  24.852  0.00  0.00    +0.000 A 
ATOM      7  N   UNL     1      20.545  -6.200  25.292  0.00  0.00    +0.000 NA
ATOM      8  C   UNL     1      19.701  -7.013  25.961  0.00  0.00    +0.000 A 
ATOM      9  N   UNL     1      20.129  -8.277  26.174  0.00  0.00    +0.000 NA
ATOM     10  N   UNL     1      21.314  -8.720  25.757  0.00  0.00    +0.000 NA
ATOM     11  C   UNL     1      22.166  -7.920  25.089  0.00  0.00    +0.000 A 
ATOM     12  C   UNL     1      23.422  -8.145  24.564  0.00  0.00    +0.000 A 
ATOM     13  C   UNL     1      24.288  -9.217  24.508  0.00  0.00    +0.000 A 
ENDROOT
BRANCH   1  15
ATOM     14  C   UNL     1      27.358 -10.402  24.796  0.00  0.00    +0.000 C 
ATOM     15  O   UNL     1      26.435 -10.090  23.778  0.00  0.00    +0.000 OA
ENDBRANCH   1  15
BRANCH   8  16
ATOM     16  S   UNL     1      18.112  -6.461  26.537  0.00  0.00    +0.000 S 
BRANCH  16  17
ATOM     17  C   UNL     1      17.122  -7.750  27.283  0.00  0.00    +0.000 C 
BRANCH  17  18
ATOM     18  C   UNL     1      16.681  -8.821  26.317  0.00  0.00    +0.000 C 
ATOM     19  C   UNL     1      16.321 -10.062  27.114  0.00  0.00    +0.000 C 
ATOM     20  C   UNL     1      15.393  -8.298  25.674  0.00  0.00    +0.000 C 
ENDBRANCH  17  18
ENDBRANCH  16  17
ENDBRANCH   8  16
TORSDOF 4
ENDMDL
