MODEL 1
REMARK VINA RESULT:      -6.8      0.000      0.000
REMARK  Name = 
REMARK  4 active torsions:
REMARK  status: ('A' for Active; 'I' for Inactive)
REMARK    1  A    between atoms: C_2  and  C_3
REMARK    2  A    between atoms: C_9  and  N_10
REMARK    3  A    between atoms: C_11  and  C_13
REMARK    4  A    between atoms: C_16  and  N_17
REMARK                            x       y       z     vdW  Elec       q    Type
REMARK                         _______ _______ _______ _____ _____    ______ ____
ROOT
ATOM      1  N   UNL     1      18.164  11.072  37.826  0.00  0.00    +0.000 NA
ATOM      2  C   UNL     1      18.161  10.292  36.645  0.00  0.00    +0.000 C 
ATOM      3  O   UNL     1      18.874   9.251  36.633  0.00  0.00    +0.000 OA
ENDROOT
BRANCH   1  10
ATOM      4  C   UNL     1      18.338   9.986  39.965  0.00  0.00    +0.000 A 
ATOM      5  C   UNL     1      19.040   9.652  41.132  0.00  0.00    +0.000 A 
ATOM      6  C   UNL     1      20.324  10.106  41.314  0.00  0.00    +0.000 A 
ATOM      7  C   UNL     1      20.897  10.882  40.348  0.00  0.00    +0.000 A 
ATOM      8  C   UNL     1      20.196  11.207  39.200  0.00  0.00    +0.000 A 
ATOM      9  C   UNL     1      20.883  12.053  38.194  0.00  0.00    +0.000 C 
ATOM     10  C   UNL     1      18.909  10.765  38.989  0.00  0.00    +0.000 A 
BRANCH   4  12
ATOM     11  C   UNL     1      16.188   9.446  41.101  0.00  0.00    +0.000 C 
ATOM     12  C   UNL     1      16.969   9.476  39.823  0.00  0.00    +0.000 C 
ENDBRANCH   4  12
ENDBRANCH   1  10
BRANCH   2  13
ATOM     13  C   UNL     1      17.366  10.658  35.461  0.00  0.00    +0.000 A 
ATOM     14  C   UNL     1      17.649  10.144  34.214  0.00  0.00    +0.000 A 
ATOM     15  C   UNL     1      16.937  10.458  33.084  0.00  0.00    +0.000 A 
ATOM     16  C   UNL     1      15.879  11.336  33.200  0.00  0.00    +0.000 A 
ATOM     17  C   UNL     1      15.560  11.878  34.445  0.00  0.00    +0.000 A 
ATOM     18  C   UNL     1      14.419  12.825  34.568  0.00  0.00    +0.000 C 
ATOM     19  C   UNL     1      16.305  11.534  35.554  0.00  0.00    +0.000 A 
BRANCH  16  20
ATOM     20  N   UNL     1      15.128  11.669  32.035  0.00  0.00    +0.000 N 
ATOM     21  O   UNL     1      14.233  10.893  31.650  0.00  0.00    +0.000 OA
ATOM     22  O   UNL     1      15.448  12.844  31.401  0.00  0.00    +0.000 OA
ENDBRANCH  16  20
ENDBRANCH   2  13
TORSDOF 4
ENDMDL
MODEL 2
REMARK VINA RESULT:      -6.5      3.377      6.674
REMARK  Name = 
REMARK  4 active torsions:
REMARK  status: ('A' for Active; 'I' for Inactive)
REMARK    1  A    between atoms: C_2  and  C_3
REMARK    2  A    between atoms: C_9  and  N_10
REMARK    3  A    between atoms: C_11  and  C_13
REMARK    4  A    between atoms: C_16  and  N_17
REMARK                            x       y       z     vdW  Elec       q    Type
REMARK                         _______ _______ _______ _____ _____    ______ ____
ROOT
ATOM      1  N   UNL     1      18.299  10.440  37.442  0.00  0.00    +0.000 NA
ATOM      2  C   UNL     1      19.352  11.319  37.793  0.00  0.00    +0.000 C 
ATOM      3  O   UNL     1      19.038  12.423  38.317  0.00  0.00    +0.000 OA
ENDROOT
BRANCH   1  10
ATOM      4  C   UNL     1      16.318  10.307  38.800  0.00  0.00    +0.000 A 
ATOM      5  C   UNL     1      14.960  10.562  39.040  0.00  0.00    +0.000 A 
ATOM      6  C   UNL     1      14.211  11.231  38.101  0.00  0.00    +0.000 A 
ATOM      7  C   UNL     1      14.809  11.638  36.943  0.00  0.00    +0.000 A 
ATOM      8  C   UNL     1      16.150  11.382  36.716  0.00  0.00    +0.000 A 
ATOM      9  C   UNL     1      16.730  11.855  35.436  0.00  0.00    +0.000 C 
ATOM     10  C   UNL     1      16.925  10.715  37.638  0.00  0.00    +0.000 A 
BRANCH   4  12
ATOM     11  C   UNL     1      16.347   9.455  41.141  0.00  0.00    +0.000 C 
ATOM     12  C   UNL     1      17.069   9.586  39.835  0.00  0.00    +0.000 C 
ENDBRANCH   4  12
ENDBRANCH   1  10
BRANCH   2  13
ATOM     13  C   UNL     1      20.767  10.982  37.567  0.00  0.00    +0.000 A 
ATOM     14  C   UNL     1      21.138   9.864  36.852  0.00  0.00    +0.000 A 
ATOM     15  C   UNL     1      22.443   9.511  36.618  0.00  0.00    +0.000 A 
ATOM     16  C   UNL     1      23.440  10.318  37.126  0.00  0.00    +0.000 A 
ATOM     17  C   UNL     1      23.106  11.459  37.855  0.00  0.00    +0.000 A 
ATOM     18  C   UNL     1      24.183  12.329  38.401  0.00  0.00    +0.000 C 
ATOM     19  C   UNL     1      21.780  11.774  38.066  0.00  0.00    +0.000 A 
BRANCH  16  20
ATOM     20  N   UNL     1      24.801   9.965  36.888  0.00  0.00    +0.000 N 
ATOM     21  O   UNL     1      25.358  10.370  35.850  0.00  0.00    +0.000 OA
ATOM     22  O   UNL     1      25.419   9.188  37.835  0.00  0.00    +0.000 OA
ENDBRANCH  16  20
ENDBRANCH   2  13
TORSDOF 4
ENDMDL
MODEL 3
REMARK VINA RESULT:      -6.4      3.296      6.923
REMARK  Name = 
REMARK  4 active torsions:
REMARK  status: ('A' for Active; 'I' for Inactive)
REMARK    1  A    between atoms: C_2  and  C_3
REMARK    2  A    between atoms: C_9  and  N_10
REMARK    3  A    between atoms: C_11  and  C_13
REMARK    4  A    between atoms: C_16  and  N_17
REMARK                            x       y       z     vdW  Elec       q    Type
REMARK                         _______ _______ _______ _____ _____    ______ ____
ROOT
ATOM      1  N   UNL     1      18.246  10.422  37.477  0.00  0.00    +0.000 NA
ATOM      2  C   UNL     1      19.299  11.307  37.816  0.00  0.00    +0.000 C 
ATOM      3  O   UNL     1      18.984  12.413  38.334  0.00  0.00    +0.000 OA
ENDROOT
BRANCH   1  10
ATOM      4  C   UNL     1      16.160  11.329  36.694  0.00  0.00    +0.000 A 
ATOM      5  C   UNL     1      14.796  11.613  36.850  0.00  0.00    +0.000 A 
ATOM      6  C   UNL     1      14.148  11.256  38.007  0.00  0.00    +0.000 A 
ATOM      7  C   UNL     1      14.851  10.625  38.993  0.00  0.00    +0.000 A 
ATOM      8  C   UNL     1      16.197  10.348  38.830  0.00  0.00    +0.000 A 
ATOM      9  C   UNL     1      16.895   9.660  39.943  0.00  0.00    +0.000 C 
ATOM     10  C   UNL     1      16.872  10.694  37.681  0.00  0.00    +0.000 A 
BRANCH   4  12
ATOM     11  C   UNL     1      15.932  11.593  34.227  0.00  0.00    +0.000 C 
ATOM     12  C   UNL     1      16.803  11.736  35.438  0.00  0.00    +0.000 C 
ENDBRANCH   4  12
ENDBRANCH   1  10
BRANCH   2  13
ATOM     13  C   UNL     1      20.714  10.973  37.583  0.00  0.00    +0.000 A 
ATOM     14  C   UNL     1      21.083   9.851  36.874  0.00  0.00    +0.000 A 
ATOM     15  C   UNL     1      22.388   9.500  36.634  0.00  0.00    +0.000 A 
ATOM     16  C   UNL     1      23.386  10.315  37.128  0.00  0.00    +0.000 A 
ATOM     17  C   UNL     1      23.053  11.461  37.850  0.00  0.00    +0.000 A 
ATOM     18  C   UNL     1      24.131  12.339  38.381  0.00  0.00    +0.000 C 
ATOM     19  C   UNL     1      21.727  11.773  38.067  0.00  0.00    +0.000 A 
BRANCH  16  20
ATOM     20  N   UNL     1      24.746   9.965  36.883  0.00  0.00    +0.000 N 
ATOM     21  O   UNL     1      25.341   9.242  37.705  0.00  0.00    +0.000 OA
ATOM     22  O   UNL     1      25.322  10.457  35.739  0.00  0.00    +0.000 OA
ENDBRANCH  16  20
ENDBRANCH   2  13
TORSDOF 4
ENDMDL
MODEL 4
REMARK VINA RESULT:      -6.2     18.435     20.035
REMARK  Name = 
REMARK  4 active torsions:
REMARK  status: ('A' for Active; 'I' for Inactive)
REMARK    1  A    between atoms: C_2  and  C_3
REMARK    2  A    between atoms: C_9  and  N_10
REMARK    3  A    between atoms: C_11  and  C_13
REMARK    4  A    between atoms: C_16  and  N_17
REMARK                            x       y       z     vdW  Elec       q    Type
REMARK                         _______ _______ _______ _____ _____    ______ ____
ROOT
ATOM      1  N   UNL     1      30.512  23.180  28.305  0.00  0.00    +0.000 NA
ATOM      2  C   UNL     1      30.201  22.423  27.150  0.00  0.00    +0.000 C 
ATOM      3  O   UNL     1      30.097  21.173  27.284  0.00  0.00    +0.000 OA
ENDROOT
BRANCH   1  10
ATOM      4  C   UNL     1      29.671  22.616  30.487  0.00  0.00    +0.000 A 
ATOM      5  C   UNL     1      29.823  22.078  31.773  0.00  0.00    +0.000 A 
ATOM      6  C   UNL     1      31.033  21.554  32.159  0.00  0.00    +0.000 A 
ATOM      7  C   UNL     1      32.074  21.567  31.275  0.00  0.00    +0.000 A 
ATOM      8  C   UNL     1      31.914  22.100  30.008  0.00  0.00    +0.000 A 
ATOM      9  C   UNL     1      33.088  22.079  29.103  0.00  0.00    +0.000 C 
ATOM     10  C   UNL     1      30.713  22.631  29.594  0.00  0.00    +0.000 A 
BRANCH   4  12
ATOM     11  C   UNL     1      27.344  22.132  29.740  0.00  0.00    +0.000 C 
ATOM     12  C   UNL     1      28.357  23.165  30.129  0.00  0.00    +0.000 C 
ENDBRANCH   4  12
ENDBRANCH   1  10
BRANCH   2  13
ATOM     13  C   UNL     1      30.000  23.045  25.830  0.00  0.00    +0.000 A 
ATOM     14  C   UNL     1      31.030  23.674  25.165  0.00  0.00    +0.000 A 
ATOM     15  C   UNL     1      30.889  24.269  23.937  0.00  0.00    +0.000 A 
ATOM     16  C   UNL     1      29.650  24.236  23.332  0.00  0.00    +0.000 A 
ATOM     17  C   UNL     1      28.581  23.608  23.973  0.00  0.00    +0.000 A 
ATOM     18  C   UNL     1      27.245  23.573  23.319  0.00  0.00    +0.000 C 
ATOM     19  C   UNL     1      28.770  23.024  25.208  0.00  0.00    +0.000 A 
BRANCH  16  20
ATOM     20  N   UNL     1      29.489  24.847  22.055  0.00  0.00    +0.000 N 
ATOM     21  O   UNL     1      29.727  24.178  21.030  0.00  0.00    +0.000 OA
ATOM     22  O   UNL     1      29.076  26.156  22.035  0.00  0.00    +0.000 OA
ENDBRANCH  16  20
ENDBRANCH   2  13
TORSDOF 4
ENDMDL
MODEL 5
REMARK VINA RESULT:      -6.0     18.163     20.704
REMARK  Name = 
REMARK  4 active torsions:
REMARK  status: ('A' for Active; 'I' for Inactive)
REMARK    1  A    between atoms: C_2  and  C_3
REMARK    2  A    between atoms: C_9  and  N_10
REMARK    3  A    between atoms: C_11  and  C_13
REMARK    4  A    between atoms: C_16  and  N_17
REMARK                            x       y       z     vdW  Elec       q    Type
REMARK                         _______ _______ _______ _____ _____    ______ ____
ROOT
ATOM      1  N   UNL     1      28.646  22.724  26.597  0.00  0.00    +0.000 NA
ATOM      2  C   UNL     1      29.213  23.650  27.506  0.00  0.00    +0.000 C 
ATOM      3  O   UNL     1      29.329  24.846  27.121  0.00  0.00    +0.000 OA
ENDROOT
BRANCH   1  10
ATOM      4  C   UNL     1      29.083  22.959  24.242  0.00  0.00    +0.000 A 
ATOM      5  C   UNL     1      28.686  23.265  22.933  0.00  0.00    +0.000 A 
ATOM      6  C   UNL     1      27.395  23.664  22.683  0.00  0.00    +0.000 A 
ATOM      7  C   UNL     1      26.516  23.756  23.723  0.00  0.00    +0.000 A 
ATOM      8  C   UNL     1      26.917  23.452  25.012  0.00  0.00    +0.000 A 
ATOM      9  C   UNL     1      25.906  23.574  26.090  0.00  0.00    +0.000 C 
ATOM     10  C   UNL     1      28.203  23.048  25.293  0.00  0.00    +0.000 A 
BRANCH   4  12
ATOM     11  C   UNL     1      31.471  23.655  24.373  0.00  0.00    +0.000 C 
ATOM     12  C   UNL     1      30.474  22.540  24.453  0.00  0.00    +0.000 C 
ENDBRANCH   4  12
ENDBRANCH   1  10
BRANCH   2  13
ATOM     13  C   UNL     1      29.658  23.259  28.854  0.00  0.00    +0.000 A 
ATOM     14  C   UNL     1      28.918  23.564  29.975  0.00  0.00    +0.000 A 
ATOM     15  C   UNL     1      29.295  23.222  31.249  0.00  0.00    +0.000 A 
ATOM     16  C   UNL     1      30.479  22.534  31.419  0.00  0.00    +0.000 A 
ATOM     17  C   UNL     1      31.256  22.206  30.309  0.00  0.00    +0.000 A 
ATOM     18  C   UNL     1      32.533  21.463  30.494  0.00  0.00    +0.000 C 
ATOM     19  C   UNL     1      30.838  22.572  29.046  0.00  0.00    +0.000 A 
BRANCH  16  20
ATOM     20  N   UNL     1      30.881  22.168  32.737  0.00  0.00    +0.000 N 
ATOM     21  O   UNL     1      30.459  21.102  33.224  0.00  0.00    +0.000 OA
ATOM     22  O   UNL     1      31.721  23.031  33.395  0.00  0.00    +0.000 OA
ENDBRANCH  16  20
ENDBRANCH   2  13
TORSDOF 4
ENDMDL
MODEL 6
REMARK VINA RESULT:      -5.9     20.302     21.928
REMARK  Name = 
REMARK  4 active torsions:
REMARK  status: ('A' for Active; 'I' for Inactive)
REMARK    1  A    between atoms: C_2  and  C_3
REMARK    2  A    between atoms: C_9  and  N_10
REMARK    3  A    between atoms: C_11  and  C_13
REMARK    4  A    between atoms: C_16  and  N_17
REMARK                            x       y       z     vdW  Elec       q    Type
REMARK                         _______ _______ _______ _____ _____    ______ ____
ROOT
ATOM      1  N   UNL     1      34.010  -2.272  34.456  0.00  0.00    +0.000 NA
ATOM      2  C   UNL     1      32.874  -3.114  34.384  0.00  0.00    +0.000 C 
ATOM      3  O   UNL     1      31.896  -2.836  35.130  0.00  0.00    +0.000 OA
ENDROOT
BRANCH   1  10
ATOM      4  C   UNL     1      33.728   0.086  34.839  0.00  0.00    +0.000 A 
ATOM      5  C   UNL     1      33.815   1.230  35.646  0.00  0.00    +0.000 A 
ATOM      6  C   UNL     1      34.302   1.130  36.927  0.00  0.00    +0.000 A 
ATOM      7  C   UNL     1      34.696  -0.091  37.395  0.00  0.00    +0.000 A 
ATOM      8  C   UNL     1      34.606  -1.214  36.591  0.00  0.00    +0.000 A 
ATOM      9  C   UNL     1      35.051  -2.506  37.167  0.00  0.00    +0.000 C 
ATOM     10  C   UNL     1      34.121  -1.145  35.304  0.00  0.00    +0.000 A 
BRANCH   4  12
ATOM     11  C   UNL     1      34.243   0.587  32.454  0.00  0.00    +0.000 C 
ATOM     12  C   UNL     1      33.203   0.250  33.479  0.00  0.00    +0.000 C 
ENDBRANCH   4  12
ENDBRANCH   1  10
BRANCH   2  13
ATOM     13  C   UNL     1      32.811  -4.276  33.482  0.00  0.00    +0.000 A 
ATOM     14  C   UNL     1      31.957  -5.331  33.723  0.00  0.00    +0.000 A 
ATOM     15  C   UNL     1      31.866  -6.434  32.912  0.00  0.00    +0.000 A 
ATOM     16  C   UNL     1      32.671  -6.492  31.793  0.00  0.00    +0.000 A 
ATOM     17  C   UNL     1      33.549  -5.444  31.514  0.00  0.00    +0.000 A 
ATOM     18  C   UNL     1      34.417  -5.508  30.307  0.00  0.00    +0.000 C 
ATOM     19  C   UNL     1      33.607  -4.355  32.359  0.00  0.00    +0.000 A 
BRANCH  16  20
ATOM     20  N   UNL     1      32.585  -7.630  30.939  0.00  0.00    +0.000 N 
ATOM     21  O   UNL     1      31.749  -7.631  30.016  0.00  0.00    +0.000 OA
ATOM     22  O   UNL     1      33.444  -8.670  31.195  0.00  0.00    +0.000 OA
ENDBRANCH  16  20
ENDBRANCH   2  13
TORSDOF 4
ENDMDL
MODEL 7
REMARK VINA RESULT:      -5.9     18.360     20.986
REMARK  Name = 
REMARK  4 active torsions:
REMARK  status: ('A' for Active; 'I' for Inactive)
REMARK    1  A    between atoms: C_2  and  C_3
REMARK    2  A    between atoms: C_9  and  N_10
REMARK    3  A    between atoms: C_11  and  C_13
REMARK    4  A    between atoms: C_16  and  N_17
REMARK                            x       y       z     vdW  Elec       q    Type
REMARK                         _______ _______ _______ _____ _____    ______ ____
ROOT
ATOM      1  N   UNL     1      29.766  22.283  27.311  0.00  0.00    +0.000 NA
ATOM      2  C   UNL     1      30.556  23.181  28.069  0.00  0.00    +0.000 C 
ATOM      3  O   UNL     1      30.448  24.411  27.810  0.00  0.00    +0.000 OA
ENDROOT
BRANCH   1  10
ATOM      4  C   UNL     1      29.316  22.741  24.993  0.00  0.00    +0.000 A 
ATOM      5  C   UNL     1      28.461  23.114  23.946  0.00  0.00    +0.000 A 
ATOM      6  C   UNL     1      27.147  23.418  24.210  0.00  0.00    +0.000 A 
ATOM      7  C   UNL     1      26.695  23.350  25.496  0.00  0.00    +0.000 A 
ATOM      8  C   UNL     1      27.547  22.980  26.522  0.00  0.00    +0.000 A 
ATOM      9  C   UNL     1      26.986  22.928  27.894  0.00  0.00    +0.000 C 
ATOM     10  C   UNL     1      28.868  22.669  26.288  0.00  0.00    +0.000 A 
BRANCH   4  12
ATOM     11  C   UNL     1      31.563  23.633  24.390  0.00  0.00    +0.000 C 
ATOM     12  C   UNL     1      30.711  22.430  24.655  0.00  0.00    +0.000 C 
ENDBRANCH   4  12
ENDBRANCH   1  10
BRANCH   2  13
ATOM     13  C   UNL     1      31.476  22.724  29.124  0.00  0.00    +0.000 A 
ATOM     14  C   UNL     1      32.840  22.709  28.935  0.00  0.00    +0.000 A 
ATOM     15  C   UNL     1      33.734  22.290  29.888  0.00  0.00    +0.000 A 
ATOM     16  C   UNL     1      33.242  21.860  31.103  0.00  0.00    +0.000 A 
ATOM     17  C   UNL     1      31.866  21.861  31.333  0.00  0.00    +0.000 A 
ATOM     18  C   UNL     1      31.337  21.397  32.645  0.00  0.00    +0.000 C 
ATOM     19  C   UNL     1      31.005  22.289  30.345  0.00  0.00    +0.000 A 
BRANCH  16  20
ATOM     20  N   UNL     1      34.159  21.425  32.104  0.00  0.00    +0.000 N 
ATOM     21  O   UNL     1      34.543  20.240  32.097  0.00  0.00    +0.000 OA
ATOM     22  O   UNL     1      34.565  22.357  33.027  0.00  0.00    +0.000 OA
ENDBRANCH  16  20
ENDBRANCH   2  13
TORSDOF 4
ENDMDL
MODEL 8
REMARK VINA RESULT:      -5.9     18.316     19.813
REMARK  Name = 
REMARK  4 active torsions:
REMARK  status: ('A' for Active; 'I' for Inactive)
REMARK    1  A    between atoms: C_2  and  C_3
REMARK    2  A    between atoms: C_9  and  N_10
REMARK    3  A    between atoms: C_11  and  C_13
REMARK    4  A    between atoms: C_16  and  N_17
REMARK                            x       y       z     vdW  Elec       q    Type
REMARK                         _______ _______ _______ _____ _____    ______ ____
ROOT
ATOM      1  N   UNL     1      26.595  23.850  26.454  0.00  0.00    +0.000 NA
ATOM      2  C   UNL     1      26.429  25.174  26.929  0.00  0.00    +0.000 C 
ATOM      3  O   UNL     1      27.429  25.941  26.876  0.00  0.00    +0.000 OA
ENDROOT
BRANCH   1  10
ATOM      4  C   UNL     1      28.039  23.428  24.576  0.00  0.00    +0.000 A 
ATOM      5  C   UNL     1      29.222  22.934  24.010  0.00  0.00    +0.000 A 
ATOM      6  C   UNL     1      30.170  22.341  24.808  0.00  0.00    +0.000 A 
ATOM      7  C   UNL     1      29.939  22.242  26.150  0.00  0.00    +0.000 A 
ATOM      8  C   UNL     1      28.768  22.732  26.700  0.00  0.00    +0.000 A 
ATOM      9  C   UNL     1      28.588  22.590  28.165  0.00  0.00    +0.000 C 
ATOM     10  C   UNL     1      27.801  23.333  25.925  0.00  0.00    +0.000 A 
BRANCH   4  12
ATOM     11  C   UNL     1      27.384  23.909  22.221  0.00  0.00    +0.000 C 
ATOM     12  C   UNL     1      27.060  24.051  23.677  0.00  0.00    +0.000 C 
ENDBRANCH   4  12
ENDBRANCH   1  10
BRANCH   2  13
ATOM     13  C   UNL     1      25.149  25.662  27.470  0.00  0.00    +0.000 A 
ATOM     14  C   UNL     1      24.998  25.961  28.806  0.00  0.00    +0.000 A 
ATOM     15  C   UNL     1      23.825  26.416  29.354  0.00  0.00    +0.000 A 
ATOM     16  C   UNL     1      22.737  26.584  28.523  0.00  0.00    +0.000 A 
ATOM     17  C   UNL     1      22.850  26.293  27.164  0.00  0.00    +0.000 A 
ATOM     18  C   UNL     1      21.675  26.476  26.269  0.00  0.00    +0.000 C 
ATOM     19  C   UNL     1      24.049  25.837  26.657  0.00  0.00    +0.000 A 
BRANCH  16  20
ATOM     20  N   UNL     1      21.513  27.059  29.077  0.00  0.00    +0.000 N 
ATOM     21  O   UNL     1      21.308  28.287  29.128  0.00  0.00    +0.000 OA
ATOM     22  O   UNL     1      20.623  26.116  29.527  0.00  0.00    +0.000 OA
ENDBRANCH  16  20
ENDBRANCH   2  13
TORSDOF 4
ENDMDL
MODEL 9
REMARK VINA RESULT:      -5.9     20.787     23.013
REMARK  Name = 
REMARK  4 active torsions:
REMARK  status: ('A' for Active; 'I' for Inactive)
REMARK    1  A    between atoms: C_2  and  C_3
REMARK    2  A    between atoms: C_9  and  N_10
REMARK    3  A    between atoms: C_11  and  C_13
REMARK    4  A    between atoms: C_16  and  N_17
REMARK                            x       y       z     vdW  Elec       q    Type
REMARK                         _______ _______ _______ _____ _____    ______ ____
ROOT
ATOM      1  N   UNL     1      25.888   5.904  16.223  0.00  0.00    +0.000 NA
ATOM      2  C   UNL     1      25.648   4.519  16.048  0.00  0.00    +0.000 C 
ATOM      3  O   UNL     1      26.565   3.833  15.519  0.00  0.00    +0.000 OA
ENDROOT
BRANCH   1  10
ATOM      4  C   UNL     1      28.081   6.724  16.775  0.00  0.00    +0.000 A 
ATOM      5  C   UNL     1      29.282   7.369  16.446  0.00  0.00    +0.000 A 
ATOM      6  C   UNL     1      29.473   7.857  15.176  0.00  0.00    +0.000 A 
ATOM      7  C   UNL     1      28.481   7.704  14.250  0.00  0.00    +0.000 A 
ATOM      8  C   UNL     1      27.300   7.066  14.584  0.00  0.00    +0.000 A 
ATOM      9  C   UNL     1      26.269   6.937  13.526  0.00  0.00    +0.000 C 
ATOM     10  C   UNL     1      27.080   6.566  15.848  0.00  0.00    +0.000 A 
BRANCH   4  12
ATOM     11  C   UNL     1      27.956   7.292  19.197  0.00  0.00    +0.000 C 
ATOM     12  C   UNL     1      27.929   6.224  18.146  0.00  0.00    +0.000 C 
ENDBRANCH   4  12
ENDBRANCH   1  10
BRANCH   2  13
ATOM     13  C   UNL     1      24.387   3.880  16.458  0.00  0.00    +0.000 A 
ATOM     14  C   UNL     1      24.047   3.740  17.786  0.00  0.00    +0.000 A 
ATOM     15  C   UNL     1      22.884   3.150  18.214  0.00  0.00    +0.000 A 
ATOM     16  C   UNL     1      22.006   2.670  17.264  0.00  0.00    +0.000 A 
ATOM     17  C   UNL     1      22.314   2.792  15.909  0.00  0.00    +0.000 A 
ATOM     18  C   UNL     1      21.366   2.274  14.886  0.00  0.00    +0.000 C 
ATOM     19  C   UNL     1      23.495   3.392  15.525  0.00  0.00    +0.000 A 
BRANCH  16  20
ATOM     20  N   UNL     1      20.793   2.057  17.693  0.00  0.00    +0.000 N 
ATOM     21  O   UNL     1      20.703   0.815  17.674  0.00  0.00    +0.000 OA
ATOM     22  O   UNL     1      19.784   2.891  18.106  0.00  0.00    +0.000 OA
ENDBRANCH  16  20
ENDBRANCH   2  13
TORSDOF 4
ENDMDL
MODEL 10
REMARK VINA RESULT:      -5.9     22.018     23.715
REMARK  Name = 
REMARK  4 active torsions:
REMARK  status: ('A' for Active; 'I' for Inactive)
REMARK    1  A    between atoms: C_2  and  C_3
REMARK    2  A    between atoms: C_9  and  N_10
REMARK    3  A    between atoms: C_11  and  C_13
REMARK    4  A    between atoms: C_16  and  N_17
REMARK                            x       y       z     vdW  Elec       q    Type
REMARK                         _______ _______ _______ _____ _____    ______ ____
ROOT
ATOM      1  N   UNL     1      28.923  25.160  23.588  0.00  0.00    +0.000 NA
ATOM      2  C   UNL     1      28.932  24.962  22.186  0.00  0.00    +0.000 C 
ATOM      3  O   UNL     1      29.055  23.778  21.767  0.00  0.00    +0.000 OA
ENDROOT
BRANCH   1  10
ATOM      4  C   UNL     1      27.907  23.611  25.122  0.00  0.00    +0.000 A 
ATOM      5  C   UNL     1      27.977  22.581  26.072  0.00  0.00    +0.000 A 
ATOM      6  C   UNL     1      29.198  22.071  26.442  0.00  0.00    +0.000 A 
ATOM      7  C   UNL     1      30.330  22.581  25.874  0.00  0.00    +0.000 A 
ATOM      8  C   UNL     1      30.251  23.596  24.938  0.00  0.00    +0.000 A 
ATOM      9  C   UNL     1      31.523  24.099  24.364  0.00  0.00    +0.000 C 
ATOM     10  C   UNL     1      29.042  24.126  24.546  0.00  0.00    +0.000 A 
BRANCH   4  12
ATOM     11  C   UNL     1      25.846  23.279  23.764  0.00  0.00    +0.000 C 
ATOM     12  C   UNL     1      26.578  24.120  24.764  0.00  0.00    +0.000 C 
ENDBRANCH   4  12
ENDBRANCH   1  10
BRANCH   2  13
ATOM     13  C   UNL     1      28.804  26.076  21.232  0.00  0.00    +0.000 A 
ATOM     14  C   UNL     1      27.712  26.916  21.245  0.00  0.00    +0.000 A 
ATOM     15  C   UNL     1      27.550  27.964  20.375  0.00  0.00    +0.000 A 
ATOM     16  C   UNL     1      28.533  28.191  19.434  0.00  0.00    +0.000 A 
ATOM     17  C   UNL     1      29.654  27.363  19.388  0.00  0.00    +0.000 A 
ATOM     18  C   UNL     1      30.714  27.611  18.373  0.00  0.00    +0.000 C 
ATOM     19  C   UNL     1      29.774  26.321  20.283  0.00  0.00    +0.000 A 
BRANCH  16  20
ATOM     20  N   UNL     1      28.380  29.279  18.525  0.00  0.00    +0.000 N 
ATOM     21  O   UNL     1      27.778  29.089  17.451  0.00  0.00    +0.000 OA
ATOM     22  O   UNL     1      28.915  30.486  18.899  0.00  0.00    +0.000 OA
ENDBRANCH  16  20
ENDBRANCH   2  13
TORSDOF 4
ENDMDL
