MODEL 1
REMARK VINA RESULT:      -6.8      0.000      0.000
REMARK  Name = 
REMARK  2 active torsions:
REMARK  status: ('A' for Active; 'I' for Inactive)
REMARK    1  A    between atoms: C_4  and  N_5
REMARK    2  A    between atoms: N_5  and  C_6
REMARK                            x       y       z     vdW  Elec       q    Type
REMARK                         _______ _______ _______ _____ _____    ______ ____
ROOT
ATOM      1  C   UNL     1      29.476  22.502  31.242  0.00  0.00    +0.000 C 
ATOM      2  C   UNL     1      28.542  22.930  30.196  0.00  0.00    +0.000 A 
ATOM      3  N   UNL     1      28.573  22.538  28.926  0.00  0.00    +0.000 NA
ATOM      4  C   UNL     1      27.721  22.925  27.965  0.00  0.00    +0.000 A 
ATOM      5  C   UNL     1      26.691  23.823  28.287  0.00  0.00    +0.000 A 
ATOM      6  C   UNL     1      25.749  24.326  27.478  0.00  0.00    +0.000 A 
ATOM      7  C   UNL     1      24.838  25.196  28.026  0.00  0.00    +0.000 A 
ATOM      8  S   UNL     1      25.333  25.282  29.657  0.00  0.00    +0.000 S 
ATOM      9  C   UNL     1      26.669  24.221  29.597  0.00  0.00    +0.000 A 
ATOM     10  N   UNL     1      27.567  23.790  30.534  0.00  0.00    +0.000 NA
ATOM     11  C   UNL     1      23.743  25.810  27.187  0.00  0.00    +0.000 C 
ATOM     12  C   UNL     1      24.280  26.289  25.868  0.00  0.00    +0.000 C 
ATOM     13  C   UNL     1      25.435  25.463  25.362  0.00  0.00    +0.000 C 
ATOM     14  C   UNL     1      25.489  24.100  25.996  0.00  0.00    +0.000 C 
ENDROOT
BRANCH   4  15
ATOM     15  N   UNL     1      27.906  22.406  26.670  0.00  0.00    +0.000 NA
BRANCH  15  16
ATOM     16  C   UNL     1      28.941  22.745  25.795  0.00  0.00    +0.000 A 
ATOM     17  C   UNL     1      30.248  22.640  26.220  0.00  0.00    +0.000 A 
ATOM     18  C   UNL     1      31.316  22.959  25.407  0.00  0.00    +0.000 A 
ATOM     19  C   UNL     1      31.105  23.401  24.120  0.00  0.00    +0.000 A 
ATOM     20  C   UNL     1      29.807  23.512  23.679  0.00  0.00    +0.000 A 
ATOM     21  O   UNL     1      29.601  23.962  22.367  0.00  0.00    +0.000 OA
ATOM     22  C   UNL     1      28.746  23.188  24.505  0.00  0.00    +0.000 A 
ENDBRANCH  15  16
ENDBRANCH   4  15
TORSDOF 2
ENDMDL
MODEL 2
REMARK VINA RESULT:      -6.5      2.931      4.644
REMARK  Name = 
REMARK  2 active torsions:
REMARK  status: ('A' for Active; 'I' for Inactive)
REMARK    1  A    between atoms: C_4  and  N_5
REMARK    2  A    between atoms: N_5  and  C_6
REMARK                            x       y       z     vdW  Elec       q    Type
REMARK                         _______ _______ _______ _____ _____    ______ ____
ROOT
ATOM      1  C   UNL     1      24.516  26.239  31.200  0.00  0.00    +0.000 C 
ATOM      2  C   UNL     1      24.971  25.535  29.997  0.00  0.00    +0.000 A 
ATOM      3  N   UNL     1      25.726  24.440  29.982  0.00  0.00    +0.000 NA
ATOM      4  C   UNL     1      26.144  23.791  28.886  0.00  0.00    +0.000 A 
ATOM      5  C   UNL     1      25.777  24.280  27.622  0.00  0.00    +0.000 A 
ATOM      6  C   UNL     1      26.091  23.782  26.419  0.00  0.00    +0.000 A 
ATOM      7  C   UNL     1      25.611  24.438  25.313  0.00  0.00    +0.000 A 
ATOM      8  S   UNL     1      24.735  25.735  25.995  0.00  0.00    +0.000 S 
ATOM      9  C   UNL     1      25.001  25.408  27.649  0.00  0.00    +0.000 A 
ATOM     10  N   UNL     1      24.604  26.026  28.802  0.00  0.00    +0.000 NA
ATOM     11  C   UNL     1      25.917  23.946  23.918  0.00  0.00    +0.000 C 
ATOM     12  C   UNL     1      27.366  23.572  23.785  0.00  0.00    +0.000 C 
ATOM     13  C   UNL     1      27.965  23.051  25.066  0.00  0.00    +0.000 C 
ATOM     14  C   UNL     1      26.920  22.565  26.034  0.00  0.00    +0.000 C 
ENDROOT
BRANCH   4  15
ATOM     15  N   UNL     1      26.940  22.644  29.060  0.00  0.00    +0.000 NA
BRANCH  15  16
ATOM     16  C   UNL     1      28.249  22.624  29.547  0.00  0.00    +0.000 A 
ATOM     17  C   UNL     1      29.295  22.883  28.687  0.00  0.00    +0.000 A 
ATOM     18  C   UNL     1      30.610  22.880  29.103  0.00  0.00    +0.000 A 
ATOM     19  C   UNL     1      30.926  22.613  30.416  0.00  0.00    +0.000 A 
ATOM     20  C   UNL     1      29.895  22.351  31.289  0.00  0.00    +0.000 A 
ATOM     21  O   UNL     1      30.225  22.081  32.624  0.00  0.00    +0.000 OA
ATOM     22  C   UNL     1      28.581  22.359  30.858  0.00  0.00    +0.000 A 
ENDBRANCH  15  16
ENDBRANCH   4  15
TORSDOF 2
ENDMDL
MODEL 3
REMARK VINA RESULT:      -6.3      3.393      6.707
REMARK  Name = 
REMARK  2 active torsions:
REMARK  status: ('A' for Active; 'I' for Inactive)
REMARK    1  A    between atoms: C_4  and  N_5
REMARK    2  A    between atoms: N_5  and  C_6
REMARK                            x       y       z     vdW  Elec       q    Type
REMARK                         _______ _______ _______ _____ _____    ______ ____
ROOT
ATOM      1  C   UNL     1      26.005  28.339  23.118  0.00  0.00    +0.000 C 
ATOM      2  C   UNL     1      26.546  27.108  23.703  0.00  0.00    +0.000 A 
ATOM      3  N   UNL     1      25.923  26.334  24.587  0.00  0.00    +0.000 NA
ATOM      4  C   UNL     1      26.412  25.207  25.124  0.00  0.00    +0.000 A 
ATOM      5  C   UNL     1      27.692  24.771  24.748  0.00  0.00    +0.000 A 
ATOM      6  C   UNL     1      28.353  23.684  25.167  0.00  0.00    +0.000 A 
ATOM      7  C   UNL     1      29.606  23.462  24.652  0.00  0.00    +0.000 A 
ATOM      8  S   UNL     1      29.820  24.787  23.597  0.00  0.00    +0.000 S 
ATOM      9  C   UNL     1      28.325  25.575  23.838  0.00  0.00    +0.000 A 
ATOM     10  N   UNL     1      27.773  26.716  23.323  0.00  0.00    +0.000 NA
ATOM     11  C   UNL     1      30.421  22.261  25.070  0.00  0.00    +0.000 C 
ATOM     12  C   UNL     1      30.363  22.063  26.557  0.00  0.00    +0.000 C 
ATOM     13  C   UNL     1      29.060  22.512  27.167  0.00  0.00    +0.000 C 
ATOM     14  C   UNL     1      27.951  22.598  26.154  0.00  0.00    +0.000 C 
ENDROOT
BRANCH   4  15
ATOM     15  N   UNL     1      25.609  24.513  26.049  0.00  0.00    +0.000 NA
BRANCH  15  16
ATOM     16  C   UNL     1      25.403  24.873  27.382  0.00  0.00    +0.000 A 
ATOM     17  C   UNL     1      24.712  26.031  27.672  0.00  0.00    +0.000 A 
ATOM     18  C   UNL     1      24.475  26.444  28.967  0.00  0.00    +0.000 A 
ATOM     19  C   UNL     1      24.928  25.698  30.031  0.00  0.00    +0.000 A 
ATOM     20  C   UNL     1      25.620  24.539  29.761  0.00  0.00    +0.000 A 
ATOM     21  O   UNL     1      26.078  23.785  30.851  0.00  0.00    +0.000 OA
ATOM     22  C   UNL     1      25.850  24.138  28.458  0.00  0.00    +0.000 A 
ENDBRANCH  15  16
ENDBRANCH   4  15
TORSDOF 2
ENDMDL
MODEL 4
REMARK VINA RESULT:      -6.3     19.116     20.935
REMARK  Name = 
REMARK  2 active torsions:
REMARK  status: ('A' for Active; 'I' for Inactive)
REMARK    1  A    between atoms: C_4  and  N_5
REMARK    2  A    between atoms: N_5  and  C_6
REMARK                            x       y       z     vdW  Elec       q    Type
REMARK                         _______ _______ _______ _____ _____    ______ ____
ROOT
ATOM      1  C   UNL     1      23.638   9.755  38.987  0.00  0.00    +0.000 C 
ATOM      2  C   UNL     1      22.216   9.540  39.272  0.00  0.00    +0.000 A 
ATOM      3  N   UNL     1      21.212  10.260  38.779  0.00  0.00    +0.000 NA
ATOM      4  C   UNL     1      19.910  10.068  39.036  0.00  0.00    +0.000 A 
ATOM      5  C   UNL     1      19.530   9.026  39.895  0.00  0.00    +0.000 A 
ATOM      6  C   UNL     1      18.294   8.675  40.275  0.00  0.00    +0.000 A 
ATOM      7  C   UNL     1      18.170   7.609  41.131  0.00  0.00    +0.000 A 
ATOM      8  S   UNL     1      19.791   7.134  41.380  0.00  0.00    +0.000 S 
ATOM      9  C   UNL     1      20.571   8.291  40.397  0.00  0.00    +0.000 A 
ATOM     10  N   UNL     1      21.883   8.535  40.098  0.00  0.00    +0.000 NA
ATOM     11  C   UNL     1      16.815   7.145  41.609  0.00  0.00    +0.000 C 
ATOM     12  C   UNL     1      15.958   8.312  42.009  0.00  0.00    +0.000 C 
ATOM     13  C   UNL     1      16.243   9.560  41.214  0.00  0.00    +0.000 C 
ATOM     14  C   UNL     1      16.940   9.265  39.913  0.00  0.00    +0.000 C 
ENDROOT
BRANCH   4  15
ATOM     15  N   UNL     1      18.982  10.932  38.424  0.00  0.00    +0.000 NA
BRANCH  15  16
ATOM     16  C   UNL     1      18.348  10.713  37.199  0.00  0.00    +0.000 A 
ATOM     17  C   UNL     1      18.700   9.616  36.441  0.00  0.00    +0.000 A 
ATOM     18  C   UNL     1      18.114   9.342  35.222  0.00  0.00    +0.000 A 
ATOM     19  C   UNL     1      17.138  10.171  34.716  0.00  0.00    +0.000 A 
ATOM     20  C   UNL     1      16.774  11.271  35.459  0.00  0.00    +0.000 A 
ATOM     21  O   UNL     1      15.779  12.109  34.936  0.00  0.00    +0.000 OA
ATOM     22  C   UNL     1      17.370  11.533  36.678  0.00  0.00    +0.000 A 
ENDBRANCH  15  16
ENDBRANCH   4  15
TORSDOF 2
ENDMDL
MODEL 5
REMARK VINA RESULT:      -6.3      3.265      6.109
REMARK  Name = 
REMARK  2 active torsions:
REMARK  status: ('A' for Active; 'I' for Inactive)
REMARK    1  A    between atoms: C_4  and  N_5
REMARK    2  A    between atoms: N_5  and  C_6
REMARK                            x       y       z     vdW  Elec       q    Type
REMARK                         _______ _______ _______ _____ _____    ______ ____
ROOT
ATOM      1  C   UNL     1      22.989  26.552  26.551  0.00  0.00    +0.000 C 
ATOM      2  C   UNL     1      24.173  25.707  26.365  0.00  0.00    +0.000 A 
ATOM      3  N   UNL     1      24.718  24.927  27.295  0.00  0.00    +0.000 NA
ATOM      4  C   UNL     1      25.800  24.151  27.131  0.00  0.00    +0.000 A 
ATOM      5  C   UNL     1      26.443  24.132  25.884  0.00  0.00    +0.000 A 
ATOM      6  C   UNL     1      27.526  23.432  25.522  0.00  0.00    +0.000 A 
ATOM      7  C   UNL     1      27.977  23.577  24.233  0.00  0.00    +0.000 A 
ATOM      8  S   UNL     1      26.868  24.692  23.569  0.00  0.00    +0.000 S 
ATOM      9  C   UNL     1      25.873  24.938  24.934  0.00  0.00    +0.000 A 
ATOM     10  N   UNL     1      24.767  25.708  25.161  0.00  0.00    +0.000 NA
ATOM     11  C   UNL     1      29.191  22.825  23.741  0.00  0.00    +0.000 C 
ATOM     12  C   UNL     1      30.302  22.878  24.751  0.00  0.00    +0.000 C 
ATOM     13  C   UNL     1      29.808  22.941  26.174  0.00  0.00    +0.000 C 
ATOM     14  C   UNL     1      28.389  22.460  26.313  0.00  0.00    +0.000 C 
ENDROOT
BRANCH   4  15
ATOM     15  N   UNL     1      26.239  23.390  28.230  0.00  0.00    +0.000 NA
BRANCH  15  16
ATOM     16  C   UNL     1      26.791  23.900  29.407  0.00  0.00    +0.000 A 
ATOM     17  C   UNL     1      28.162  23.924  29.557  0.00  0.00    +0.000 A 
ATOM     18  C   UNL     1      28.771  24.413  30.694  0.00  0.00    +0.000 A 
ATOM     19  C   UNL     1      28.015  24.903  31.735  0.00  0.00    +0.000 A 
ATOM     20  C   UNL     1      26.646  24.886  31.604  0.00  0.00    +0.000 A 
ATOM     21  O   UNL     1      25.883  25.388  32.668  0.00  0.00    +0.000 OA
ATOM     22  C   UNL     1      26.048  24.393  30.458  0.00  0.00    +0.000 A 
ENDBRANCH  15  16
ENDBRANCH   4  15
TORSDOF 2
ENDMDL
MODEL 6
REMARK VINA RESULT:      -6.1     16.244     17.814
REMARK  Name = 
REMARK  2 active torsions:
REMARK  status: ('A' for Active; 'I' for Inactive)
REMARK    1  A    between atoms: C_4  and  N_5
REMARK    2  A    between atoms: N_5  and  C_6
REMARK                            x       y       z     vdW  Elec       q    Type
REMARK                         _______ _______ _______ _____ _____    ______ ____
ROOT
ATOM      1  C   UNL     1      24.082   9.357  36.117  0.00  0.00    +0.000 C 
ATOM      2  C   UNL     1      23.451  10.443  36.873  0.00  0.00    +0.000 A 
ATOM      3  N   UNL     1      22.208  10.434  37.348  0.00  0.00    +0.000 NA
ATOM      4  C   UNL     1      21.626  11.424  38.040  0.00  0.00    +0.000 A 
ATOM      5  C   UNL     1      22.358  12.591  38.309  0.00  0.00    +0.000 A 
ATOM      6  C   UNL     1      21.960  13.682  38.977  0.00  0.00    +0.000 A 
ATOM      7  C   UNL     1      22.863  14.708  39.115  0.00  0.00    +0.000 A 
ATOM      8  S   UNL     1      24.240  14.111  38.302  0.00  0.00    +0.000 S 
ATOM      9  C   UNL     1      23.636  12.590  37.816  0.00  0.00    +0.000 A 
ATOM     10  N   UNL     1      24.176  11.547  37.116  0.00  0.00    +0.000 NA
ATOM     11  C   UNL     1      22.498  15.974  39.853  0.00  0.00    +0.000 C 
ATOM     12  C   UNL     1      21.132  16.454  39.454  0.00  0.00    +0.000 C 
ATOM     13  C   UNL     1      20.192  15.335  39.086  0.00  0.00    +0.000 C 
ATOM     14  C   UNL     1      20.632  14.008  39.643  0.00  0.00    +0.000 C 
ENDROOT
BRANCH   4  15
ATOM     15  N   UNL     1      20.297  11.240  38.465  0.00  0.00    +0.000 NA
BRANCH  15  16
ATOM     16  C   UNL     1      19.180  11.142  37.631  0.00  0.00    +0.000 A 
ATOM     17  C   UNL     1      18.327  12.219  37.513  0.00  0.00    +0.000 A 
ATOM     18  C   UNL     1      17.207  12.189  36.708  0.00  0.00    +0.000 A 
ATOM     19  C   UNL     1      16.900  11.059  35.983  0.00  0.00    +0.000 A 
ATOM     20  C   UNL     1      17.740   9.974  36.089  0.00  0.00    +0.000 A 
ATOM     21  O   UNL     1      17.420   8.829  35.346  0.00  0.00    +0.000 OA
ATOM     22  C   UNL     1      18.859  10.019  36.899  0.00  0.00    +0.000 A 
ENDBRANCH  15  16
ENDBRANCH   4  15
TORSDOF 2
ENDMDL
MODEL 7
REMARK VINA RESULT:      -6.0     32.674     33.375
REMARK  Name = 
REMARK  2 active torsions:
REMARK  status: ('A' for Active; 'I' for Inactive)
REMARK    1  A    between atoms: C_4  and  N_5
REMARK    2  A    between atoms: N_5  and  C_6
REMARK                            x       y       z     vdW  Elec       q    Type
REMARK                         _______ _______ _______ _____ _____    ______ ____
ROOT
ATOM      1  C   UNL     1      22.318 -12.436  28.187  0.00  0.00    +0.000 C 
ATOM      2  C   UNL     1      21.682 -11.206  27.706  0.00  0.00    +0.000 A 
ATOM      3  N   UNL     1      22.192 -10.374  26.802  0.00  0.00    +0.000 NA
ATOM      4  C   UNL     1      21.615  -9.249  26.358  0.00  0.00    +0.000 A 
ATOM      5  C   UNL     1      20.361  -8.878  26.868  0.00  0.00    +0.000 A 
ATOM      6  C   UNL     1      19.626  -7.801  26.558  0.00  0.00    +0.000 A 
ATOM      7  C   UNL     1      18.419  -7.650  27.194  0.00  0.00    +0.000 A 
ATOM      8  S   UNL     1      18.352  -9.021  28.208  0.00  0.00    +0.000 S 
ATOM      9  C   UNL     1      19.845  -9.740  27.799  0.00  0.00    +0.000 A 
ATOM     10  N   UNL     1      20.482 -10.877  28.212  0.00  0.00    +0.000 NA
ATOM     11  C   UNL     1      17.527  -6.465  26.904  0.00  0.00    +0.000 C 
ATOM     12  C   UNL     1      18.322  -5.192  26.860  0.00  0.00    +0.000 C 
ATOM     13  C   UNL     1      19.732  -5.388  26.366  0.00  0.00    +0.000 C 
ATOM     14  C   UNL     1      19.896  -6.664  25.584  0.00  0.00    +0.000 C 
ENDROOT
BRANCH   4  15
ATOM     15  N   UNL     1      22.304  -8.488  25.394  0.00  0.00    +0.000 NA
BRANCH  15  16
ATOM     16  C   UNL     1      22.152  -8.594  24.010  0.00  0.00    +0.000 A 
ATOM     17  C   UNL     1      22.751  -7.662  23.190  0.00  0.00    +0.000 A 
ATOM     18  C   UNL     1      22.640  -7.708  21.816  0.00  0.00    +0.000 A 
ATOM     19  C   UNL     1      21.914  -8.707  21.208  0.00  0.00    +0.000 A 
ATOM     20  C   UNL     1      21.308  -9.647  22.011  0.00  0.00    +0.000 A 
ATOM     21  O   UNL     1      20.571 -10.661  21.384  0.00  0.00    +0.000 OA
ATOM     22  C   UNL     1      21.428  -9.588  23.387  0.00  0.00    +0.000 A 
ENDBRANCH  15  16
ENDBRANCH   4  15
TORSDOF 2
ENDMDL
MODEL 8
REMARK VINA RESULT:      -5.8      2.379      4.633
REMARK  Name = 
REMARK  2 active torsions:
REMARK  status: ('A' for Active; 'I' for Inactive)
REMARK    1  A    between atoms: C_4  and  N_5
REMARK    2  A    between atoms: N_5  and  C_6
REMARK                            x       y       z     vdW  Elec       q    Type
REMARK                         _______ _______ _______ _____ _____    ______ ____
ROOT
ATOM      1  C   UNL     1      23.566  25.693  27.114  0.00  0.00    +0.000 C 
ATOM      2  C   UNL     1      24.937  25.176  27.040  0.00  0.00    +0.000 A 
ATOM      3  N   UNL     1      25.486  24.594  25.978  0.00  0.00    +0.000 NA
ATOM      4  C   UNL     1      26.739  24.121  25.903  0.00  0.00    +0.000 A 
ATOM      5  C   UNL     1      27.577  24.230  27.024  0.00  0.00    +0.000 A 
ATOM      6  C   UNL     1      28.847  23.822  27.151  0.00  0.00    +0.000 A 
ATOM      7  C   UNL     1      29.468  24.039  28.356  0.00  0.00    +0.000 A 
ATOM      8  S   UNL     1      28.251  24.806  29.275  0.00  0.00    +0.000 S 
ATOM      9  C   UNL     1      27.001  24.830  28.112  0.00  0.00    +0.000 A 
ATOM     10  N   UNL     1      25.715  25.294  28.128  0.00  0.00    +0.000 NA
ATOM     11  C   UNL     1      30.898  23.611  28.585  0.00  0.00    +0.000 C 
ATOM     12  C   UNL     1      31.138  22.228  28.051  0.00  0.00    +0.000 C 
ATOM     13  C   UNL     1      30.291  21.900  26.848  0.00  0.00    +0.000 C 
ATOM     14  C   UNL     1      29.771  23.132  26.158  0.00  0.00    +0.000 C 
ENDROOT
BRANCH   4  15
ATOM     15  N   UNL     1      27.152  23.533  24.693  0.00  0.00    +0.000 NA
BRANCH  15  16
ATOM     16  C   UNL     1      27.622  24.220  23.571  0.00  0.00    +0.000 A 
ATOM     17  C   UNL     1      28.569  23.627  22.763  0.00  0.00    +0.000 A 
ATOM     18  C   UNL     1      29.075  24.250  21.641  0.00  0.00    +0.000 A 
ATOM     19  C   UNL     1      28.642  25.508  21.286  0.00  0.00    +0.000 A 
ATOM     20  C   UNL     1      27.698  26.115  22.082  0.00  0.00    +0.000 A 
ATOM     21  O   UNL     1      27.262  27.396  21.713  0.00  0.00    +0.000 OA
ATOM     22  C   UNL     1      27.199  25.479  23.203  0.00  0.00    +0.000 A 
ENDBRANCH  15  16
ENDBRANCH   4  15
TORSDOF 2
ENDMDL
MODEL 9
REMARK VINA RESULT:      -5.8     23.109     24.717
REMARK  Name = 
REMARK  2 active torsions:
REMARK  status: ('A' for Active; 'I' for Inactive)
REMARK    1  A    between atoms: C_4  and  N_5
REMARK    2  A    between atoms: N_5  and  C_6
REMARK                            x       y       z     vdW  Elec       q    Type
REMARK                         _______ _______ _______ _____ _____    ______ ____
ROOT
ATOM      1  C   UNL     1      25.793   6.866  17.370  0.00  0.00    +0.000 C 
ATOM      2  C   UNL     1      25.777   5.405  17.250  0.00  0.00    +0.000 A 
ATOM      3  N   UNL     1      24.767   4.612  17.599  0.00  0.00    +0.000 NA
ATOM      4  C   UNL     1      24.746   3.276  17.491  0.00  0.00    +0.000 A 
ATOM      5  C   UNL     1      25.870   2.616  16.969  0.00  0.00    +0.000 A 
ATOM      6  C   UNL     1      26.045   1.300  16.784  0.00  0.00    +0.000 A 
ATOM      7  C   UNL     1      27.242   0.886  16.253  0.00  0.00    +0.000 A 
ATOM      8  S   UNL     1      28.084   2.354  16.032  0.00  0.00    +0.000 S 
ATOM      9  C   UNL     1      26.904   3.441  16.614  0.00  0.00    +0.000 A 
ATOM     10  N   UNL     1      26.866   4.801  16.748  0.00  0.00    +0.000 NA
ATOM     11  C   UNL     1      27.523  -0.578  16.010  0.00  0.00    +0.000 C 
ATOM     12  C   UNL     1      27.092  -1.410  17.184  0.00  0.00    +0.000 C 
ATOM     13  C   UNL     1      25.902  -0.840  17.912  0.00  0.00    +0.000 C 
ATOM     14  C   UNL     1      25.118   0.127  17.065  0.00  0.00    +0.000 C 
ENDROOT
BRANCH   4  15
ATOM     15  N   UNL     1      23.587   2.597  17.912  0.00  0.00    +0.000 NA
BRANCH  15  16
ATOM     16  C   UNL     1      22.401   2.480  17.184  0.00  0.00    +0.000 A 
ATOM     17  C   UNL     1      22.429   2.628  15.814  0.00  0.00    +0.000 A 
ATOM     18  C   UNL     1      21.294   2.526  15.037  0.00  0.00    +0.000 A 
ATOM     19  C   UNL     1      20.073   2.267  15.617  0.00  0.00    +0.000 A 
ATOM     20  C   UNL     1      20.025   2.117  16.984  0.00  0.00    +0.000 A 
ATOM     21  O   UNL     1      18.777   1.853  17.566  0.00  0.00    +0.000 OA
ATOM     22  C   UNL     1      21.171   2.222  17.750  0.00  0.00    +0.000 A 
ENDBRANCH  15  16
ENDBRANCH   4  15
TORSDOF 2
ENDMDL
MODEL 10
REMARK VINA RESULT:      -5.7      3.629      5.879
REMARK  Name = 
REMARK  2 active torsions:
REMARK  status: ('A' for Active; 'I' for Inactive)
REMARK    1  A    between atoms: C_4  and  N_5
REMARK    2  A    between atoms: N_5  and  C_6
REMARK                            x       y       z     vdW  Elec       q    Type
REMARK                         _______ _______ _______ _____ _____    ______ ____
ROOT
ATOM      1  C   UNL     1      24.989  29.119  27.299  0.00  0.00    +0.000 C 
ATOM      2  C   UNL     1      25.492  28.093  26.380  0.00  0.00    +0.000 A 
ATOM      3  N   UNL     1      25.465  26.781  26.597  0.00  0.00    +0.000 NA
ATOM      4  C   UNL     1      25.922  25.838  25.760  0.00  0.00    +0.000 A 
ATOM      5  C   UNL     1      26.487  26.228  24.536  0.00  0.00    +0.000 A 
ATOM      6  C   UNL     1      26.997  25.448  23.573  0.00  0.00    +0.000 A 
ATOM      7  C   UNL     1      27.497  26.064  22.453  0.00  0.00    +0.000 A 
ATOM      8  S   UNL     1      27.240  27.719  22.786  0.00  0.00    +0.000 S 
ATOM      9  C   UNL     1      26.510  27.581  24.322  0.00  0.00    +0.000 A 
ATOM     10  N   UNL     1      26.027  28.497  25.216  0.00  0.00    +0.000 NA
ATOM     11  C   UNL     1      28.090  25.261  21.319  0.00  0.00    +0.000 C 
ATOM     12  C   UNL     1      28.996  24.183  21.841  0.00  0.00    +0.000 C 
ATOM     13  C   UNL     1      28.573  23.649  23.185  0.00  0.00    +0.000 C 
ATOM     14  C   UNL     1      27.127  23.935  23.488  0.00  0.00    +0.000 C 
ENDROOT
BRANCH   4  15
ATOM     15  N   UNL     1      25.812  24.492  26.157  0.00  0.00    +0.000 NA
BRANCH  15  16
ATOM     16  C   UNL     1      26.477  23.903  27.234  0.00  0.00    +0.000 A 
ATOM     17  C   UNL     1      27.801  23.542  27.097  0.00  0.00    +0.000 A 
ATOM     18  C   UNL     1      28.515  22.954  28.121  0.00  0.00    +0.000 A 
ATOM     19  C   UNL     1      27.917  22.706  29.336  0.00  0.00    +0.000 A 
ATOM     20  C   UNL     1      26.596  23.059  29.491  0.00  0.00    +0.000 A 
ATOM     21  O   UNL     1      25.996  22.804  30.732  0.00  0.00    +0.000 OA
ATOM     22  C   UNL     1      25.893  23.647  28.456  0.00  0.00    +0.000 A 
ENDBRANCH  15  16
ENDBRANCH   4  15
TORSDOF 2
ENDMDL
