MODEL 1
REMARK VINA RESULT:      -7.8      0.000      0.000
REMARK  Name = 
REMARK  1 active torsions:
REMARK  status: ('A' for Active; 'I' for Inactive)
REMARK    1  A    between atoms: N_6  and  C_7
REMARK                            x       y       z     vdW  Elec       q    Type
REMARK                         _______ _______ _______ _____ _____    ______ ____
ROOT
ATOM      1  O   UNL     1      30.841  20.159  13.303  0.00  0.00    +0.000 OA
ATOM      2  C   UNL     1      31.014  20.782  12.216  0.00  0.00    +0.000 C 
ATOM      3  N   UNL     1      31.671  20.380  11.016  0.00  0.00    +0.000 NA
ATOM      4  C   UNL     1      31.890  21.621  10.256  0.00  0.00    +0.000 C 
ATOM      5  N   UNL     1      31.504  22.707  11.135  0.00  0.00    +0.000 NA
ATOM      6  N   UNL     1      30.542  22.108  11.984  0.00  0.00    +0.000 N 
ATOM      7  C   UNL     1      33.336  21.626   9.874  0.00  0.00    +0.000 C 
ATOM      8  C   UNL     1      33.670  22.842   9.075  0.00  0.00    +0.000 C 
ATOM      9  C   UNL     1      32.813  22.859   7.811  0.00  0.00    +0.000 C 
ATOM     10  C   UNL     1      32.991  21.577   7.028  0.00  0.00    +0.000 C 
ATOM     11  C   UNL     1      32.636  20.366   7.877  0.00  0.00    +0.000 C 
ATOM     12  C   UNL     1      33.573  20.338   9.082  0.00  0.00    +0.000 C 
ATOM     13  C   UNL     1      31.189  20.404   8.275  0.00  0.00    +0.000 C 
ATOM     14  C   UNL     1      30.970  21.685   9.051  0.00  0.00    +0.000 C 
ATOM     15  C   UNL     1      31.354  22.910   8.258  0.00  0.00    +0.000 C 
ENDROOT
BRANCH   6  16
ATOM     16  C   UNL     1      29.364  22.725  12.480  0.00  0.00    +0.000 A 
ATOM     17  C   UNL     1      29.323  23.440  13.638  0.00  0.00    +0.000 A 
ATOM     18  C   UNL     1      28.144  24.034  14.101  0.00  0.00    +0.000 A 
ATOM     19  C   UNL     1      27.004  23.873  13.336  0.00  0.00    +0.000 A 
ATOM     20  C   UNL     1      27.018  23.154  12.158  0.00  0.00    +0.000 A 
ATOM     21  C   UNL     1      28.217  22.578  11.734  0.00  0.00    +0.000 A 
ENDBRANCH   6  16
TORSDOF 1
ENDMDL
MODEL 2
REMARK VINA RESULT:      -6.6     28.580     31.160
REMARK  Name = 
REMARK  1 active torsions:
REMARK  status: ('A' for Active; 'I' for Inactive)
REMARK    1  A    between atoms: N_6  and  C_7
REMARK                            x       y       z     vdW  Elec       q    Type
REMARK                         _______ _______ _______ _____ _____    ______ ____
ROOT
ATOM      1  O   UNL     1      14.219  11.601  36.420  0.00  0.00    +0.000 OA
ATOM      2  C   UNL     1      15.443  11.282  36.410  0.00  0.00    +0.000 C 
ATOM      3  N   UNL     1      16.243  10.662  37.413  0.00  0.00    +0.000 NA
ATOM      4  C   UNL     1      17.637  10.887  36.996  0.00  0.00    +0.000 C 
ATOM      5  N   UNL     1      17.578  11.782  35.857  0.00  0.00    +0.000 NA
ATOM      6  N   UNL     1      16.307  11.508  35.297  0.00  0.00    +0.000 N 
ATOM      7  C   UNL     1      18.342  11.456  38.186  0.00  0.00    +0.000 C 
ATOM      8  C   UNL     1      19.781  11.709  37.881  0.00  0.00    +0.000 C 
ATOM      9  C   UNL     1      20.444  10.392  37.482  0.00  0.00    +0.000 C 
ATOM     10  C   UNL     1      20.249   9.348  38.559  0.00  0.00    +0.000 C 
ATOM     11  C   UNL     1      18.771   9.119  38.834  0.00  0.00    +0.000 C 
ATOM     12  C   UNL     1      18.166  10.437  39.314  0.00  0.00    +0.000 C 
ATOM     13  C   UNL     1      18.082   8.581  37.614  0.00  0.00    +0.000 C 
ATOM     14  C   UNL     1      18.269   9.598  36.507  0.00  0.00    +0.000 C 
ATOM     15  C   UNL     1      19.724   9.887  36.234  0.00  0.00    +0.000 C 
ENDROOT
BRANCH   6  16
ATOM     16  C   UNL     1      15.993  11.470  33.914  0.00  0.00    +0.000 A 
ATOM     17  C   UNL     1      15.100  12.312  33.324  0.00  0.00    +0.000 A 
ATOM     18  C   UNL     1      14.810  12.247  31.958  0.00  0.00    +0.000 A 
ATOM     19  C   UNL     1      15.467  11.290  31.210  0.00  0.00    +0.000 A 
ATOM     20  C   UNL     1      16.379  10.424  31.781  0.00  0.00    +0.000 A 
ATOM     21  C   UNL     1      16.636  10.524  33.149  0.00  0.00    +0.000 A 
ENDBRANCH   6  16
TORSDOF 1
ENDMDL
MODEL 3
REMARK VINA RESULT:      -6.6     29.439     31.003
REMARK  Name = 
REMARK  1 active torsions:
REMARK  status: ('A' for Active; 'I' for Inactive)
REMARK    1  A    between atoms: N_6  and  C_7
REMARK                            x       y       z     vdW  Elec       q    Type
REMARK                         _______ _______ _______ _____ _____    ______ ____
ROOT
ATOM      1  O   UNL     1      19.650   9.255  40.044  0.00  0.00    +0.000 OA
ATOM      2  C   UNL     1      20.512   9.618  39.191  0.00  0.00    +0.000 C 
ATOM      3  N   UNL     1      21.929   9.466  39.189  0.00  0.00    +0.000 NA
ATOM      4  C   UNL     1      22.420  10.396  38.160  0.00  0.00    +0.000 C 
ATOM      5  N   UNL     1      21.272  11.173  37.735  0.00  0.00    +0.000 NA
ATOM      6  N   UNL     1      20.184  10.300  37.982  0.00  0.00    +0.000 N 
ATOM      7  C   UNL     1      23.499  11.204  38.808  0.00  0.00    +0.000 C 
ATOM      8  C   UNL     1      24.088  12.177  37.842  0.00  0.00    +0.000 C 
ATOM      9  C   UNL     1      24.672  11.411  36.657  0.00  0.00    +0.000 C 
ATOM     10  C   UNL     1      25.672  10.379  37.128  0.00  0.00    +0.000 C 
ATOM     11  C   UNL     1      25.029   9.406  38.106  0.00  0.00    +0.000 C 
ATOM     12  C   UNL     1      24.538  10.200  39.314  0.00  0.00    +0.000 C 
ATOM     13  C   UNL     1      23.927   8.635  37.439  0.00  0.00    +0.000 C 
ATOM     14  C   UNL     1      22.912   9.641  36.940  0.00  0.00    +0.000 C 
ATOM     15  C   UNL     1      23.521  10.653  36.001  0.00  0.00    +0.000 C 
ENDROOT
BRANCH   6  16
ATOM     16  C   UNL     1      19.027  10.157  37.173  0.00  0.00    +0.000 A 
ATOM     17  C   UNL     1      17.825  10.719  37.477  0.00  0.00    +0.000 A 
ATOM     18  C   UNL     1      16.702  10.556  36.659  0.00  0.00    +0.000 A 
ATOM     19  C   UNL     1      16.850   9.796  35.514  0.00  0.00    +0.000 A 
ATOM     20  C   UNL     1      18.057   9.215  35.182  0.00  0.00    +0.000 A 
ATOM     21  C   UNL     1      19.151   9.403  36.028  0.00  0.00    +0.000 A 
ENDBRANCH   6  16
TORSDOF 1
ENDMDL
MODEL 4
REMARK VINA RESULT:      -6.5     11.191     14.194
REMARK  Name = 
REMARK  1 active torsions:
REMARK  status: ('A' for Active; 'I' for Inactive)
REMARK    1  A    between atoms: N_6  and  C_7
REMARK                            x       y       z     vdW  Elec       q    Type
REMARK                         _______ _______ _______ _____ _____    ______ ____
ROOT
ATOM      1  O   UNL     1      26.594  23.564  21.523  0.00  0.00    +0.000 OA
ATOM      2  C   UNL     1      27.431  23.908  22.408  0.00  0.00    +0.000 C 
ATOM      3  N   UNL     1      28.035  23.148  23.451  0.00  0.00    +0.000 NA
ATOM      4  C   UNL     1      28.609  24.140  24.374  0.00  0.00    +0.000 C 
ATOM      5  N   UNL     1      28.156  25.436  23.909  0.00  0.00    +0.000 NA
ATOM      6  N   UNL     1      27.959  25.229  22.522  0.00  0.00    +0.000 N 
ATOM      7  C   UNL     1      28.119  23.774  25.739  0.00  0.00    +0.000 C 
ATOM      8  C   UNL     1      28.658  24.711  26.768  0.00  0.00    +0.000 C 
ATOM      9  C   UNL     1      30.185  24.648  26.746  0.00  0.00    +0.000 C 
ATOM     10  C   UNL     1      30.664  23.227  26.940  0.00  0.00    +0.000 C 
ATOM     11  C   UNL     1      30.094  22.309  25.870  0.00  0.00    +0.000 C 
ATOM     12  C   UNL     1      28.571  22.333  25.983  0.00  0.00    +0.000 C 
ATOM     13  C   UNL     1      30.575  22.721  24.508  0.00  0.00    +0.000 C 
ATOM     14  C   UNL     1      30.124  24.149  24.284  0.00  0.00    +0.000 C 
ATOM     15  C   UNL     1      30.632  25.085  25.353  0.00  0.00    +0.000 C 
ENDROOT
BRANCH   6  16
ATOM     16  C   UNL     1      28.239  26.160  21.488  0.00  0.00    +0.000 A 
ATOM     17  C   UNL     1      27.410  27.189  21.160  0.00  0.00    +0.000 A 
ATOM     18  C   UNL     1      27.714  28.088  20.133  0.00  0.00    +0.000 A 
ATOM     19  C   UNL     1      28.901  27.900  19.450  0.00  0.00    +0.000 A 
ATOM     20  C   UNL     1      29.761  26.866  19.763  0.00  0.00    +0.000 A 
ATOM     21  C   UNL     1      29.416  25.991  20.795  0.00  0.00    +0.000 A 
ENDBRANCH   6  16
TORSDOF 1
ENDMDL
MODEL 5
REMARK VINA RESULT:      -6.5     33.303     34.391
REMARK  Name = 
REMARK  1 active torsions:
REMARK  status: ('A' for Active; 'I' for Inactive)
REMARK    1  A    between atoms: N_6  and  C_7
REMARK                            x       y       z     vdW  Elec       q    Type
REMARK                         _______ _______ _______ _____ _____    ______ ____
ROOT
ATOM      1  O   UNL     1      19.022  -9.934  24.309  0.00  0.00    +0.000 OA
ATOM      2  C   UNL     1      20.136  -9.337  24.249  0.00  0.00    +0.000 C 
ATOM      3  N   UNL     1      21.206  -9.471  23.317  0.00  0.00    +0.000 NA
ATOM      4  C   UNL     1      22.363  -8.822  23.954  0.00  0.00    +0.000 C 
ATOM      5  N   UNL     1      21.950  -8.495  25.305  0.00  0.00    +0.000 NA
ATOM      6  N   UNL     1      20.548  -8.341  25.184  0.00  0.00    +0.000 N 
ATOM      7  C   UNL     1      23.488  -9.805  23.879  0.00  0.00    +0.000 C 
ATOM      8  C   UNL     1      24.729  -9.241  24.485  0.00  0.00    +0.000 C 
ATOM      9  C   UNL     1      25.118  -7.970  23.731  0.00  0.00    +0.000 C 
ATOM     10  C   UNL     1      25.263  -8.249  22.252  0.00  0.00    +0.000 C 
ATOM     11  C   UNL     1      23.976  -8.818  21.676  0.00  0.00    +0.000 C 
ATOM     12  C   UNL     1      23.671 -10.130  22.395  0.00  0.00    +0.000 C 
ATOM     13  C   UNL     1      22.857  -7.824  21.796  0.00  0.00    +0.000 C 
ATOM     14  C   UNL     1      22.692  -7.509  23.268  0.00  0.00    +0.000 C 
ATOM     15  C   UNL     1      23.962  -6.984  23.888  0.00  0.00    +0.000 C 
ENDROOT
BRANCH   6  16
ATOM     16  C   UNL     1      19.749  -7.385  25.865  0.00  0.00    +0.000 A 
ATOM     17  C   UNL     1      18.724  -7.719  26.695  0.00  0.00    +0.000 A 
ATOM     18  C   UNL     1      17.954  -6.752  27.349  0.00  0.00    +0.000 A 
ATOM     19  C   UNL     1      18.269  -5.425  27.125  0.00  0.00    +0.000 A 
ATOM     20  C   UNL     1      19.304  -5.058  26.288  0.00  0.00    +0.000 A 
ATOM     21  C   UNL     1      20.046  -6.057  25.655  0.00  0.00    +0.000 A 
ENDBRANCH   6  16
TORSDOF 1
ENDMDL
MODEL 6
REMARK VINA RESULT:      -6.5     22.423     25.264
REMARK  Name = 
REMARK  1 active torsions:
REMARK  status: ('A' for Active; 'I' for Inactive)
REMARK    1  A    between atoms: N_6  and  C_7
REMARK                            x       y       z     vdW  Elec       q    Type
REMARK                         _______ _______ _______ _____ _____    ______ ____
ROOT
ATOM      1  O   UNL     1       9.862  24.539  23.827  0.00  0.00    +0.000 OA
ATOM      2  C   UNL     1       9.533  23.526  23.144  0.00  0.00    +0.000 C 
ATOM      3  N   UNL     1      10.334  22.628  22.379  0.00  0.00    +0.000 NA
ATOM      4  C   UNL     1       9.390  21.899  21.518  0.00  0.00    +0.000 C 
ATOM      5  N   UNL     1       8.100  22.536  21.701  0.00  0.00    +0.000 NA
ATOM      6  N   UNL     1       8.188  23.069  23.010  0.00  0.00    +0.000 N 
ATOM      7  C   UNL     1       9.930  22.000  20.127  0.00  0.00    +0.000 C 
ATOM      8  C   UNL     1       9.054  21.273  19.162  0.00  0.00    +0.000 C 
ATOM      9  C   UNL     1       8.977  19.803  19.569  0.00  0.00    +0.000 C 
ATOM     10  C   UNL     1      10.362  19.203  19.668  0.00  0.00    +0.000 C 
ATOM     11  C   UNL     1      11.218  19.970  20.664  0.00  0.00    +0.000 C 
ATOM     12  C   UNL     1      11.342  21.411  20.174  0.00  0.00    +0.000 C 
ATOM     13  C   UNL     1      10.633  19.881  22.044  0.00  0.00    +0.000 C 
ATOM     14  C   UNL     1       9.237  20.462  21.979  0.00  0.00    +0.000 C 
ATOM     15  C   UNL     1       8.368  19.756  20.968  0.00  0.00    +0.000 C 
ENDROOT
BRANCH   6  16
ATOM     16  C   UNL     1       7.139  23.122  23.964  0.00  0.00    +0.000 A 
ATOM     17  C   UNL     1       7.349  23.178  25.308  0.00  0.00    +0.000 A 
ATOM     18  C   UNL     1       6.293  23.225  26.223  0.00  0.00    +0.000 A 
ATOM     19  C   UNL     1       5.007  23.215  25.715  0.00  0.00    +0.000 A 
ATOM     20  C   UNL     1       4.765  23.160  24.357  0.00  0.00    +0.000 A 
ATOM     21  C   UNL     1       5.850  23.112  23.481  0.00  0.00    +0.000 A 
ENDBRANCH   6  16
TORSDOF 1
ENDMDL
MODEL 7
REMARK VINA RESULT:      -6.4      1.553      2.476
REMARK  Name = 
REMARK  1 active torsions:
REMARK  status: ('A' for Active; 'I' for Inactive)
REMARK    1  A    between atoms: N_6  and  C_7
REMARK                            x       y       z     vdW  Elec       q    Type
REMARK                         _______ _______ _______ _____ _____    ______ ____
ROOT
ATOM      1  O   UNL     1      29.284  19.995   9.658  0.00  0.00    +0.000 OA
ATOM      2  C   UNL     1      30.379  20.584   9.893  0.00  0.00    +0.000 C 
ATOM      3  N   UNL     1      31.585  20.627   9.135  0.00  0.00    +0.000 NA
ATOM      4  C   UNL     1      32.611  21.131  10.062  0.00  0.00    +0.000 C 
ATOM      5  N   UNL     1      31.983  21.191  11.368  0.00  0.00    +0.000 NA
ATOM      6  N   UNL     1      30.614  21.375  11.057  0.00  0.00    +0.000 N 
ATOM      7  C   UNL     1      33.757  20.174   9.978  0.00  0.00    +0.000 C 
ATOM      8  C   UNL     1      34.874  20.601  10.871  0.00  0.00    +0.000 C 
ATOM      9  C   UNL     1      35.345  21.992  10.450  0.00  0.00    +0.000 C 
ATOM     10  C   UNL     1      35.728  22.006   8.987  0.00  0.00    +0.000 C 
ATOM     11  C   UNL     1      34.562  21.569   8.114  0.00  0.00    +0.000 C 
ATOM     12  C   UNL     1      34.180  20.144   8.507  0.00  0.00    +0.000 C 
ATOM     13  C   UNL     1      33.414  22.528   8.245  0.00  0.00    +0.000 C 
ATOM     14  C   UNL     1      33.012  22.550   9.705  0.00  0.00    +0.000 C 
ATOM     15  C   UNL     1      34.155  22.936  10.609  0.00  0.00    +0.000 C 
ENDROOT
BRANCH   6  16
ATOM     16  C   UNL     1      29.695  22.185  11.774  0.00  0.00    +0.000 A 
ATOM     17  C   UNL     1      28.424  22.430  11.353  0.00  0.00    +0.000 A 
ATOM     18  C   UNL     1      27.543  23.236  12.081  0.00  0.00    +0.000 A 
ATOM     19  C   UNL     1      28.008  23.786  13.261  0.00  0.00    +0.000 A 
ATOM     20  C   UNL     1      29.292  23.554  13.712  0.00  0.00    +0.000 A 
ATOM     21  C   UNL     1      30.137  22.743  12.952  0.00  0.00    +0.000 A 
ENDBRANCH   6  16
TORSDOF 1
ENDMDL
MODEL 8
REMARK VINA RESULT:      -6.4     29.481     31.613
REMARK  Name = 
REMARK  1 active torsions:
REMARK  status: ('A' for Active; 'I' for Inactive)
REMARK    1  A    between atoms: N_6  and  C_7
REMARK                            x       y       z     vdW  Elec       q    Type
REMARK                         _______ _______ _______ _____ _____    ______ ____
ROOT
ATOM      1  O   UNL     1      19.906  13.326  38.056  0.00  0.00    +0.000 OA
ATOM      2  C   UNL     1      20.691  12.335  38.109  0.00  0.00    +0.000 C 
ATOM      3  N   UNL     1      22.114  12.281  38.060  0.00  0.00    +0.000 NA
ATOM      4  C   UNL     1      22.442  10.874  37.784  0.00  0.00    +0.000 C 
ATOM      5  N   UNL     1      21.182  10.210  37.512  0.00  0.00    +0.000 NA
ATOM      6  N   UNL     1      20.247  10.985  38.239  0.00  0.00    +0.000 N 
ATOM      7  C   UNL     1      23.390  10.885  36.627  0.00  0.00    +0.000 C 
ATOM      8  C   UNL     1      23.809   9.498  36.269  0.00  0.00    +0.000 C 
ATOM      9  C   UNL     1      24.492   8.857  37.475  0.00  0.00    +0.000 C 
ATOM     10  C   UNL     1      25.645   9.711  37.953  0.00  0.00    +0.000 C 
ATOM     11  C   UNL     1      25.173  11.111  38.311  0.00  0.00    +0.000 C 
ATOM     12  C   UNL     1      24.578  11.749  37.057  0.00  0.00    +0.000 C 
ATOM     13  C   UNL     1      24.197  11.067  39.451  0.00  0.00    +0.000 C 
ATOM     14  C   UNL     1      23.032  10.205  39.012  0.00  0.00    +0.000 C 
ATOM     15  C   UNL     1      23.465   8.819  38.605  0.00  0.00    +0.000 C 
ENDROOT
BRANCH   6  16
ATOM     16  C   UNL     1      19.117  10.491  38.941  0.00  0.00    +0.000 A 
ATOM     17  C   UNL     1      17.869  10.425  38.402  0.00  0.00    +0.000 A 
ATOM     18  C   UNL     1      16.775   9.935  39.122  0.00  0.00    +0.000 A 
ATOM     19  C   UNL     1      17.000   9.511  40.418  0.00  0.00    +0.000 A 
ATOM     20  C   UNL     1      18.256   9.566  40.990  0.00  0.00    +0.000 A 
ATOM     21  C   UNL     1      19.319  10.064  40.234  0.00  0.00    +0.000 A 
ENDBRANCH   6  16
TORSDOF 1
ENDMDL
MODEL 9
REMARK VINA RESULT:      -6.4     30.164     32.126
REMARK  Name = 
REMARK  1 active torsions:
REMARK  status: ('A' for Active; 'I' for Inactive)
REMARK    1  A    between atoms: N_6  and  C_7
REMARK                            x       y       z     vdW  Elec       q    Type
REMARK                         _______ _______ _______ _____ _____    ______ ____
ROOT
ATOM      1  O   UNL     1      36.041   1.340  38.230  0.00  0.00    +0.000 OA
ATOM      2  C   UNL     1      35.612   2.341  37.585  0.00  0.00    +0.000 C 
ATOM      3  N   UNL     1      36.165   3.644  37.427  0.00  0.00    +0.000 NA
ATOM      4  C   UNL     1      35.067   4.475  36.908  0.00  0.00    +0.000 C 
ATOM      5  N   UNL     1      33.877   3.648  36.955  0.00  0.00    +0.000 NA
ATOM      6  N   UNL     1      34.393   2.334  36.842  0.00  0.00    +0.000 N 
ATOM      7  C   UNL     1      35.007   5.685  37.785  0.00  0.00    +0.000 C 
ATOM      8  C   UNL     1      33.931   6.615  37.335  0.00  0.00    +0.000 C 
ATOM      9  C   UNL     1      34.214   7.047  35.897  0.00  0.00    +0.000 C 
ATOM     10  C   UNL     1      35.596   7.652  35.784  0.00  0.00    +0.000 C 
ATOM     11  C   UNL     1      36.660   6.670  36.248  0.00  0.00    +0.000 C 
ATOM     12  C   UNL     1      36.392   6.333  37.713  0.00  0.00    +0.000 C 
ATOM     13  C   UNL     1      36.675   5.451  35.372  0.00  0.00    +0.000 C 
ATOM     14  C   UNL     1      35.298   4.825  35.450  0.00  0.00    +0.000 C 
ATOM     15  C   UNL     1      34.208   5.784  35.039  0.00  0.00    +0.000 C 
ENDROOT
BRANCH   6  16
ATOM     16  C   UNL     1      33.800   1.260  36.129  0.00  0.00    +0.000 A 
ATOM     17  C   UNL     1      33.362   0.116  36.724  0.00  0.00    +0.000 A 
ATOM     18  C   UNL     1      32.784  -0.925  35.992  0.00  0.00    +0.000 A 
ATOM     19  C   UNL     1      32.666  -0.758  34.625  0.00  0.00    +0.000 A 
ATOM     20  C   UNL     1      33.100   0.392  33.997  0.00  0.00    +0.000 A 
ATOM     21  C   UNL     1      33.673   1.406  34.767  0.00  0.00    +0.000 A 
ENDBRANCH   6  16
TORSDOF 1
ENDMDL
MODEL 10
REMARK VINA RESULT:      -6.3     32.059     35.091
REMARK  Name = 
REMARK  1 active torsions:
REMARK  status: ('A' for Active; 'I' for Inactive)
REMARK    1  A    between atoms: N_6  and  C_7
REMARK                            x       y       z     vdW  Elec       q    Type
REMARK                         _______ _______ _______ _____ _____    ______ ____
ROOT
ATOM      1  O   UNL     1      20.225  10.888  39.143  0.00  0.00    +0.000 OA
ATOM      2  C   UNL     1      19.292  10.189  39.634  0.00  0.00    +0.000 C 
ATOM      3  N   UNL     1      18.944   9.938  40.993  0.00  0.00    +0.000 NA
ATOM      4  C   UNL     1      18.038   8.779  40.957  0.00  0.00    +0.000 C 
ATOM      5  N   UNL     1      18.043   8.304  39.587  0.00  0.00    +0.000 NA
ATOM      6  N   UNL     1      18.346   9.470  38.843  0.00  0.00    +0.000 N 
ATOM      7  C   UNL     1      18.577   7.797  41.948  0.00  0.00    +0.000 C 
ATOM      8  C   UNL     1      17.719   6.577  42.009  0.00  0.00    +0.000 C 
ATOM      9  C   UNL     1      16.304   6.985  42.419  0.00  0.00    +0.000 C 
ATOM     10  C   UNL     1      16.326   7.751  43.723  0.00  0.00    +0.000 C 
ATOM     11  C   UNL     1      17.208   8.985  43.614  0.00  0.00    +0.000 C 
ATOM     12  C   UNL     1      18.629   8.529  43.290  0.00  0.00    +0.000 C 
ATOM     13  C   UNL     1      16.663   9.937  42.588  0.00  0.00    +0.000 C 
ATOM     14  C   UNL     1      16.614   9.197  41.269  0.00  0.00    +0.000 C 
ATOM     15  C   UNL     1      15.783   7.940  41.347  0.00  0.00    +0.000 C 
ENDROOT
BRANCH   6  16
ATOM     16  C   UNL     1      17.804   9.821  37.580  0.00  0.00    +0.000 A 
ATOM     17  C   UNL     1      18.241   9.294  36.403  0.00  0.00    +0.000 A 
ATOM     18  C   UNL     1      17.686   9.663  35.174  0.00  0.00    +0.000 A 
ATOM     19  C   UNL     1      16.664  10.593  35.187  0.00  0.00    +0.000 A 
ATOM     20  C   UNL     1      16.201  11.143  36.366  0.00  0.00    +0.000 A 
ATOM     21  C   UNL     1      16.785  10.746  37.570  0.00  0.00    +0.000 A 
ENDBRANCH   6  16
TORSDOF 1
ENDMDL
