MODEL 1
REMARK VINA RESULT:      -6.7      0.000      0.000
REMARK  Name = 
REMARK  4 active torsions:
REMARK  status: ('A' for Active; 'I' for Inactive)
REMARK    1  A    between atoms: C_2  and  C_3
REMARK    2  A    between atoms: C_3  and  C_4
REMARK    3  A    between atoms: C_7  and  C_8
REMARK    4  A    between atoms: C_11  and  N_12
REMARK                            x       y       z     vdW  Elec       q    Type
REMARK                         _______ _______ _______ _____ _____    ______ ____
ROOT
ATOM      1  C   UNL     1      30.225  24.169  24.925  0.00  0.00    +0.000 C 
ATOM      2  O   UNL     1      29.838  23.927  26.203  0.00  0.00    +0.000 OA
ATOM      3  C   UNL     1      28.895  22.699  26.119  0.00  0.00    +0.000 C 
ATOM      4  N   UNL     1      27.701  23.595  25.586  0.00  0.00    +0.000 NA
ATOM      5  C   UNL     1      27.915  23.835  24.202  0.00  0.00    +0.000 A 
ATOM      6  C   UNL     1      26.926  23.791  23.239  0.00  0.00    +0.000 A 
ATOM      7  C   UNL     1      27.179  24.037  21.904  0.00  0.00    +0.000 A 
ATOM      8  C   UNL     1      28.492  24.332  21.598  0.00  0.00    +0.000 A 
ATOM      9  C   UNL     1      29.493  24.382  22.536  0.00  0.00    +0.000 A 
ATOM     10  C   UNL     1      29.211  24.130  23.873  0.00  0.00    +0.000 A 
ENDROOT
BRANCH   3  11
ATOM     11  C   UNL     1      28.483  22.712  27.618  0.00  0.00    +0.000 A 
ATOM     12  C   UNL     1      29.449  22.776  28.547  0.00  0.00    +0.000 A 
ATOM     13  C   UNL     1      28.767  22.773  29.783  0.00  0.00    +0.000 A 
ATOM     14  C   UNL     1      27.435  22.704  29.453  0.00  0.00    +0.000 A 
ATOM     15  O   UNL     1      27.338  22.672  28.163  0.00  0.00    +0.000 OA
BRANCH  14  16
ATOM     16  N   UNL     1      26.374  22.678  30.438  0.00  0.00    +0.000 N 
ATOM     17  O   UNL     1      25.889  21.623  30.858  0.00  0.00    +0.000 OA
ATOM     18  O   UNL     1      25.857  23.843  30.953  0.00  0.00    +0.000 OA
ENDBRANCH  14  16
ENDBRANCH   3  11
BRANCH   1  20
ATOM     19  C   UNL     1      32.721  23.988  24.713  0.00  0.00    +0.000 C 
ATOM     20  C   UNL     1      31.390  23.340  24.441  0.00  0.00    +0.000 C 
ENDBRANCH   1  20
BRANCH   1  21
ATOM     21  C   UNL     1      30.735  25.625  24.955  0.00  0.00    +0.000 C 
ATOM     22  C   UNL     1      30.005  26.418  26.016  0.00  0.00    +0.000 C 
ENDBRANCH   1  21
TORSDOF 4
ENDMDL
MODEL 2
REMARK VINA RESULT:      -6.6      4.115      7.754
REMARK  Name = 
REMARK  4 active torsions:
REMARK  status: ('A' for Active; 'I' for Inactive)
REMARK    1  A    between atoms: C_2  and  C_3
REMARK    2  A    between atoms: C_3  and  C_4
REMARK    3  A    between atoms: C_7  and  C_8
REMARK    4  A    between atoms: C_11  and  N_12
REMARK                            x       y       z     vdW  Elec       q    Type
REMARK                         _______ _______ _______ _____ _____    ______ ____
ROOT
ATOM      1  C   UNL     1      27.578  24.234  23.954  0.00  0.00    +0.000 C 
ATOM      2  O   UNL     1      27.886  25.060  22.923  0.00  0.00    +0.000 OA
ATOM      3  C   UNL     1      28.993  24.324  22.125  0.00  0.00    +0.000 C 
ATOM      4  N   UNL     1      30.093  24.721  23.195  0.00  0.00    +0.000 NA
ATOM      5  C   UNL     1      29.965  23.843  24.305  0.00  0.00    +0.000 A 
ATOM      6  C   UNL     1      31.028  23.266  24.972  0.00  0.00    +0.000 A 
ATOM      7  C   UNL     1      30.856  22.422  26.052  0.00  0.00    +0.000 A 
ATOM      8  C   UNL     1      29.545  22.193  26.417  0.00  0.00    +0.000 A 
ATOM      9  C   UNL     1      28.471  22.754  25.770  0.00  0.00    +0.000 A 
ATOM     10  C   UNL     1      28.673  23.600  24.687  0.00  0.00    +0.000 A 
ENDROOT
BRANCH   3  11
ATOM     11  C   UNL     1      29.273  25.486  21.131  0.00  0.00    +0.000 A 
ATOM     12  C   UNL     1      28.889  26.726  21.470  0.00  0.00    +0.000 A 
ATOM     13  C   UNL     1      29.278  27.539  20.383  0.00  0.00    +0.000 A 
ATOM     14  C   UNL     1      29.866  26.677  19.488  0.00  0.00    +0.000 A 
ATOM     15  O   UNL     1      29.830  25.485  19.990  0.00  0.00    +0.000 OA
BRANCH  14  16
ATOM     16  N   UNL     1      30.411  27.104  18.217  0.00  0.00    +0.000 N 
ATOM     17  O   UNL     1      29.695  27.382  17.252  0.00  0.00    +0.000 OA
ATOM     18  O   UNL     1      31.769  27.218  18.033  0.00  0.00    +0.000 OA
ENDBRANCH  14  16
ENDBRANCH   3  11
BRANCH   1  20
ATOM     19  C   UNL     1      25.180  23.495  24.047  0.00  0.00    +0.000 C 
ATOM     20  C   UNL     1      26.583  23.148  23.628  0.00  0.00    +0.000 C 
ENDBRANCH   1  20
BRANCH   1  21
ATOM     21  C   UNL     1      26.872  25.152  24.975  0.00  0.00    +0.000 C 
ATOM     22  C   UNL     1      27.404  26.564  24.871  0.00  0.00    +0.000 C 
ENDBRANCH   1  21
TORSDOF 4
ENDMDL
MODEL 3
REMARK VINA RESULT:      -6.3      2.595      6.737
REMARK  Name = 
REMARK  4 active torsions:
REMARK  status: ('A' for Active; 'I' for Inactive)
REMARK    1  A    between atoms: C_2  and  C_3
REMARK    2  A    between atoms: C_3  and  C_4
REMARK    3  A    between atoms: C_7  and  C_8
REMARK    4  A    between atoms: C_11  and  N_12
REMARK                            x       y       z     vdW  Elec       q    Type
REMARK                         _______ _______ _______ _____ _____    ______ ____
ROOT
ATOM      1  C   UNL     1      29.031  23.217  29.085  0.00  0.00    +0.000 C 
ATOM      2  O   UNL     1      29.087  23.452  27.750  0.00  0.00    +0.000 OA
ATOM      3  C   UNL     1      29.667  22.156  27.129  0.00  0.00    +0.000 C 
ATOM      4  N   UNL     1      31.136  22.539  27.586  0.00  0.00    +0.000 NA
ATOM      5  C   UNL     1      31.263  22.229  28.967  0.00  0.00    +0.000 A 
ATOM      6  C   UNL     1      32.370  21.629  29.534  0.00  0.00    +0.000 A 
ATOM      7  C   UNL     1      32.453  21.351  30.884  0.00  0.00    +0.000 A 
ATOM      8  C   UNL     1      31.349  21.715  31.629  0.00  0.00    +0.000 A 
ATOM      9  C   UNL     1      30.237  22.312  31.089  0.00  0.00    +0.000 A 
ATOM     10  C   UNL     1      30.180  22.581  29.727  0.00  0.00    +0.000 A 
ENDROOT
BRANCH   3  11
ATOM     11  C   UNL     1      29.773  22.706  25.679  0.00  0.00    +0.000 A 
ATOM     12  C   UNL     1      30.944  23.217  25.272  0.00  0.00    +0.000 A 
ATOM     13  C   UNL     1      30.723  23.621  23.938  0.00  0.00    +0.000 A 
ATOM     14  C   UNL     1      29.410  23.302  23.684  0.00  0.00    +0.000 A 
ATOM     15  O   UNL     1      28.910  22.766  24.751  0.00  0.00    +0.000 OA
BRANCH  14  16
ATOM     16  N   UNL     1      28.765  23.552  22.413  0.00  0.00    +0.000 N 
ATOM     17  O   UNL     1      27.577  23.283  22.211  0.00  0.00    +0.000 OA
ATOM     18  O   UNL     1      29.460  24.106  21.364  0.00  0.00    +0.000 OA
ENDBRANCH  14  16
ENDBRANCH   3  11
BRANCH   1  20
ATOM     19  C   UNL     1      26.521  23.167  29.173  0.00  0.00    +0.000 C 
ATOM     20  C   UNL     1      27.802  22.474  29.553  0.00  0.00    +0.000 C 
ENDBRANCH   1  20
BRANCH   1  21
ATOM     21  C   UNL     1      28.931  24.623  29.713  0.00  0.00    +0.000 C 
ATOM     22  C   UNL     1      29.580  25.650  28.812  0.00  0.00    +0.000 C 
ENDBRANCH   1  21
TORSDOF 4
ENDMDL
MODEL 4
REMARK VINA RESULT:      -5.9      3.402      5.381
REMARK  Name = 
REMARK  4 active torsions:
REMARK  status: ('A' for Active; 'I' for Inactive)
REMARK    1  A    between atoms: C_2  and  C_3
REMARK    2  A    between atoms: C_3  and  C_4
REMARK    3  A    between atoms: C_7  and  C_8
REMARK    4  A    between atoms: C_11  and  N_12
REMARK                            x       y       z     vdW  Elec       q    Type
REMARK                         _______ _______ _______ _____ _____    ______ ____
ROOT
ATOM      1  C   UNL     1      27.311  23.695  29.266  0.00  0.00    +0.000 C 
ATOM      2  O   UNL     1      28.478  23.147  29.690  0.00  0.00    +0.000 OA
ATOM      3  C   UNL     1      29.520  23.510  28.602  0.00  0.00    +0.000 C 
ATOM      4  N   UNL     1      28.969  22.384  27.632  0.00  0.00    +0.000 NA
ATOM      5  C   UNL     1      27.788  22.875  27.014  0.00  0.00    +0.000 A 
ATOM      6  C   UNL     1      27.477  22.708  25.678  0.00  0.00    +0.000 A 
ATOM      7  C   UNL     1      26.312  23.198  25.121  0.00  0.00    +0.000 A 
ATOM      8  C   UNL     1      25.479  23.868  25.994  0.00  0.00    +0.000 A 
ATOM      9  C   UNL     1      25.765  24.048  27.324  0.00  0.00    +0.000 A 
ATOM     10  C   UNL     1      26.944  23.544  27.859  0.00  0.00    +0.000 A 
ENDROOT
BRANCH   3  11
ATOM     11  C   UNL     1      30.684  22.679  29.211  0.00  0.00    +0.000 A 
ATOM     12  C   UNL     1      31.546  22.077  28.377  0.00  0.00    +0.000 A 
ATOM     13  C   UNL     1      32.467  21.417  29.218  0.00  0.00    +0.000 A 
ATOM     14  C   UNL     1      32.048  21.701  30.496  0.00  0.00    +0.000 A 
ATOM     15  O   UNL     1      30.994  22.448  30.420  0.00  0.00    +0.000 OA
BRANCH  14  16
ATOM     16  N   UNL     1      32.723  21.211  31.680  0.00  0.00    +0.000 N 
ATOM     17  O   UNL     1      33.804  20.619  31.625  0.00  0.00    +0.000 OA
ATOM     18  O   UNL     1      32.177  21.389  32.929  0.00  0.00    +0.000 OA
ENDBRANCH  14  16
ENDBRANCH   3  11
BRANCH   1  20
ATOM     19  C   UNL     1      26.108  25.369  30.701  0.00  0.00    +0.000 C 
ATOM     20  C   UNL     1      27.126  25.152  29.613  0.00  0.00    +0.000 C 
ENDBRANCH   1  20
BRANCH   1  21
ATOM     21  C   UNL     1      26.227  22.937  30.061  0.00  0.00    +0.000 C 
ATOM     22  C   UNL     1      26.694  21.536  30.387  0.00  0.00    +0.000 C 
ENDBRANCH   1  21
TORSDOF 4
ENDMDL
MODEL 5
REMARK VINA RESULT:      -5.8     16.777     18.916
REMARK  Name = 
REMARK  4 active torsions:
REMARK  status: ('A' for Active; 'I' for Inactive)
REMARK    1  A    between atoms: C_2  and  C_3
REMARK    2  A    between atoms: C_3  and  C_4
REMARK    3  A    between atoms: C_7  and  C_8
REMARK    4  A    between atoms: C_11  and  N_12
REMARK                            x       y       z     vdW  Elec       q    Type
REMARK                         _______ _______ _______ _____ _____    ______ ____
ROOT
ATOM      1  C   UNL     1      11.614  23.978  21.529  0.00  0.00    +0.000 C 
ATOM      2  O   UNL     1      10.854  23.003  20.971  0.00  0.00    +0.000 OA
ATOM      3  C   UNL     1      11.371  21.677  21.587  0.00  0.00    +0.000 C 
ATOM      4  N   UNL     1      12.641  21.678  20.638  0.00  0.00    +0.000 NA
ATOM      5  C   UNL     1      13.592  22.587  21.175  0.00  0.00    +0.000 A 
ATOM      6  C   UNL     1      14.950  22.344  21.247  0.00  0.00    +0.000 A 
ATOM      7  C   UNL     1      15.840  23.260  21.773  0.00  0.00    +0.000 A 
ATOM      8  C   UNL     1      15.276  24.438  22.222  0.00  0.00    +0.000 A 
ATOM      9  C   UNL     1      13.930  24.702  22.162  0.00  0.00    +0.000 A 
ATOM     10  C   UNL     1      13.057  23.763  21.628  0.00  0.00    +0.000 A 
ENDROOT
BRANCH   3  11
ATOM     11  C   UNL     1      10.487  20.741  20.717  0.00  0.00    +0.000 A 
ATOM     12  C   UNL     1      11.013  19.584  20.284  0.00  0.00    +0.000 A 
ATOM     13  C   UNL     1       9.983  18.972  19.538  0.00  0.00    +0.000 A 
ATOM     14  C   UNL     1       8.927  19.848  19.606  0.00  0.00    +0.000 A 
ATOM     15  O   UNL     1       9.291  20.868  20.315  0.00  0.00    +0.000 OA
BRANCH  14  16
ATOM     16  N   UNL     1       7.651  19.603  18.966  0.00  0.00    +0.000 N 
ATOM     17  O   UNL     1       6.992  18.582  19.178  0.00  0.00    +0.000 OA
ATOM     18  O   UNL     1       7.117  20.512  18.083  0.00  0.00    +0.000 OA
ENDBRANCH  14  16
ENDBRANCH   3  11
BRANCH   1  20
ATOM     19  C   UNL     1       9.965  25.382  22.800  0.00  0.00    +0.000 C 
ATOM     20  C   UNL     1      11.149  24.457  22.882  0.00  0.00    +0.000 C 
ENDBRANCH   1  20
BRANCH   1  21
ATOM     21  C   UNL     1      11.439  25.182  20.579  0.00  0.00    +0.000 C 
ATOM     22  C   UNL     1      11.044  24.711  19.198  0.00  0.00    +0.000 C 
ENDBRANCH   1  21
TORSDOF 4
ENDMDL
MODEL 6
REMARK VINA RESULT:      -5.7     32.024     33.278
REMARK  Name = 
REMARK  4 active torsions:
REMARK  status: ('A' for Active; 'I' for Inactive)
REMARK    1  A    between atoms: C_2  and  C_3
REMARK    2  A    between atoms: C_3  and  C_4
REMARK    3  A    between atoms: C_7  and  C_8
REMARK    4  A    between atoms: C_11  and  N_12
REMARK                            x       y       z     vdW  Elec       q    Type
REMARK                         _______ _______ _______ _____ _____    ______ ____
ROOT
ATOM      1  C   UNL     1      23.128 -10.010  24.791  0.00  0.00    +0.000 C 
ATOM      2  O   UNL     1      21.957  -9.734  25.419  0.00  0.00    +0.000 OA
ATOM      3  C   UNL     1      21.287  -8.625  24.568  0.00  0.00    +0.000 C 
ATOM      4  N   UNL     1      22.246  -7.517  25.172  0.00  0.00    +0.000 NA
ATOM      5  C   UNL     1      23.499  -7.611  24.510  0.00  0.00    +0.000 A 
ATOM      6  C   UNL     1      24.241  -6.527  24.083  0.00  0.00    +0.000 A 
ATOM      7  C   UNL     1      25.460  -6.665  23.448  0.00  0.00    +0.000 A 
ATOM      8  C   UNL     1      25.885  -7.966  23.269  0.00  0.00    +0.000 A 
ATOM      9  C   UNL     1      25.167  -9.060  23.683  0.00  0.00    +0.000 A 
ATOM     10  C   UNL     1      23.944  -8.892  24.320  0.00  0.00    +0.000 A 
ENDROOT
BRANCH   3  11
ATOM     11  C   UNL     1      20.092  -8.384  25.532  0.00  0.00    +0.000 A 
ATOM     12  C   UNL     1      20.173  -8.857  26.785  0.00  0.00    +0.000 A 
ATOM     13  C   UNL     1      18.958  -8.482  27.397  0.00  0.00    +0.000 A 
ATOM     14  C   UNL     1      18.262  -7.809  26.421  0.00  0.00    +0.000 A 
ATOM     15  O   UNL     1      18.986  -7.787  25.349  0.00  0.00    +0.000 OA
BRANCH  14  16
ATOM     16  N   UNL     1      16.945  -7.246  26.632  0.00  0.00    +0.000 N 
ATOM     17  O   UNL     1      16.772  -6.172  27.213  0.00  0.00    +0.000 OA
ATOM     18  O   UNL     1      15.819  -7.896  26.186  0.00  0.00    +0.000 OA
ENDBRANCH  14  16
ENDBRANCH   3  11
BRANCH   1  20
ATOM     19  C   UNL     1      22.270 -12.239  24.013  0.00  0.00    +0.000 C 
ATOM     20  C   UNL     1      23.024 -10.988  23.646  0.00  0.00    +0.000 C 
ENDBRANCH   1  20
BRANCH   1  21
ATOM     21  C   UNL     1      23.976 -10.718  25.868  0.00  0.00    +0.000 C 
ATOM     22  C   UNL     1      23.184 -10.872  27.147  0.00  0.00    +0.000 C 
ENDBRANCH   1  21
TORSDOF 4
ENDMDL
MODEL 7
REMARK VINA RESULT:      -5.7     32.056     33.720
REMARK  Name = 
REMARK  4 active torsions:
REMARK  status: ('A' for Active; 'I' for Inactive)
REMARK    1  A    between atoms: C_2  and  C_3
REMARK    2  A    between atoms: C_3  and  C_4
REMARK    3  A    between atoms: C_7  and  C_8
REMARK    4  A    between atoms: C_11  and  N_12
REMARK                            x       y       z     vdW  Elec       q    Type
REMARK                         _______ _______ _______ _____ _____    ______ ____
ROOT
ATOM      1  C   UNL     1      18.144  -8.152  26.528  0.00  0.00    +0.000 C 
ATOM      2  O   UNL     1      19.192  -7.746  25.766  0.00  0.00    +0.000 OA
ATOM      3  C   UNL     1      20.129  -8.977  25.670  0.00  0.00    +0.000 C 
ATOM      4  N   UNL     1      20.682  -8.729  27.135  0.00  0.00    +0.000 NA
ATOM      5  C   UNL     1      19.721  -9.224  28.057  0.00  0.00    +0.000 A 
ATOM      6  C   UNL     1      20.028  -9.946  29.194  0.00  0.00    +0.000 A 
ATOM      7  C   UNL     1      19.060 -10.403  30.067  0.00  0.00    +0.000 A 
ATOM      8  C   UNL     1      17.761 -10.086  29.724  0.00  0.00    +0.000 A 
ATOM      9  C   UNL     1      17.430  -9.370  28.600  0.00  0.00    +0.000 A 
ATOM     10  C   UNL     1      18.424  -8.922  27.739  0.00  0.00    +0.000 A 
ENDROOT
BRANCH   3  11
ATOM     11  C   UNL     1      21.274  -8.247  24.913  0.00  0.00    +0.000 A 
ATOM     12  C   UNL     1      21.461  -6.939  25.142  0.00  0.00    +0.000 A 
ATOM     13  C   UNL     1      22.553  -6.577  24.324  0.00  0.00    +0.000 A 
ATOM     14  C   UNL     1      22.910  -7.735  23.676  0.00  0.00    +0.000 A 
ATOM     15  O   UNL     1      22.117  -8.680  24.069  0.00  0.00    +0.000 OA
BRANCH  14  16
ATOM     16  N   UNL     1      24.001  -7.810  22.728  0.00  0.00    +0.000 N 
ATOM     17  O   UNL     1      25.109  -7.317  22.957  0.00  0.00    +0.000 OA
ATOM     18  O   UNL     1      23.844  -8.441  21.517  0.00  0.00    +0.000 OA
ENDBRANCH  14  16
ENDBRANCH   3  11
BRANCH   1  20
ATOM     19  C   UNL     1      15.808  -8.067  25.610  0.00  0.00    +0.000 C 
ATOM     20  C   UNL     1      17.058  -8.888  25.782  0.00  0.00    +0.000 C 
ENDBRANCH   1  20
BRANCH   1  21
ATOM     21  C   UNL     1      17.499  -6.837  27.013  0.00  0.00    +0.000 C 
ATOM     22  C   UNL     1      18.462  -5.683  26.847  0.00  0.00    +0.000 C 
ENDBRANCH   1  21
TORSDOF 4
ENDMDL
MODEL 8
REMARK VINA RESULT:      -5.7     17.814     20.451
REMARK  Name = 
REMARK  4 active torsions:
REMARK  status: ('A' for Active; 'I' for Inactive)
REMARK    1  A    between atoms: C_2  and  C_3
REMARK    2  A    between atoms: C_3  and  C_4
REMARK    3  A    between atoms: C_7  and  C_8
REMARK    4  A    between atoms: C_11  and  N_12
REMARK                            x       y       z     vdW  Elec       q    Type
REMARK                         _______ _______ _______ _____ _____    ______ ____
ROOT
ATOM      1  C   UNL     1      21.915  11.832  39.175  0.00  0.00    +0.000 C 
ATOM      2  O   UNL     1      20.713  11.299  39.508  0.00  0.00    +0.000 OA
ATOM      3  C   UNL     1      20.924   9.763  39.484  0.00  0.00    +0.000 C 
ATOM      4  N   UNL     1      20.863   9.732  37.901  0.00  0.00    +0.000 NA
ATOM      5  C   UNL     1      22.123  10.162  37.403  0.00  0.00    +0.000 A 
ATOM      6  C   UNL     1      22.786   9.573  36.344  0.00  0.00    +0.000 A 
ATOM      7  C   UNL     1      24.008  10.029  35.889  0.00  0.00    +0.000 A 
ATOM      8  C   UNL     1      24.522  11.115  36.569  0.00  0.00    +0.000 A 
ATOM      9  C   UNL     1      23.882  11.716  37.625  0.00  0.00    +0.000 A 
ATOM     10  C   UNL     1      22.653  11.239  38.061  0.00  0.00    +0.000 A 
ENDROOT
BRANCH   3  11
ATOM     11  C   UNL     1      19.436   9.393  39.736  0.00  0.00    +0.000 A 
ATOM     12  C   UNL     1      18.483  10.150  39.172  0.00  0.00    +0.000 A 
ATOM     13  C   UNL     1      17.264   9.567  39.579  0.00  0.00    +0.000 A 
ATOM     14  C   UNL     1      17.626   8.498  40.363  0.00  0.00    +0.000 A 
ATOM     15  O   UNL     1      18.919   8.452  40.413  0.00  0.00    +0.000 OA
BRANCH  14  16
ATOM     16  N   UNL     1      16.667   7.614  40.992  0.00  0.00    +0.000 N 
ATOM     17  O   UNL     1      16.831   6.393  41.045  0.00  0.00    +0.000 OA
ATOM     18  O   UNL     1      15.519   8.110  41.563  0.00  0.00    +0.000 OA
ENDBRANCH  14  16
ENDBRANCH   3  11
BRANCH   1  20
ATOM     19  C   UNL     1      22.923  13.368  40.887  0.00  0.00    +0.000 C 
ATOM     20  C   UNL     1      22.890  11.975  40.319  0.00  0.00    +0.000 C 
ENDBRANCH   1  20
BRANCH   1  21
ATOM     21  C   UNL     1      21.580  13.271  38.731  0.00  0.00    +0.000 C 
ATOM     22  C   UNL     1      20.165  13.345  38.203  0.00  0.00    +0.000 C 
ENDBRANCH   1  21
TORSDOF 4
ENDMDL
MODEL 9
REMARK VINA RESULT:      -5.6     24.665     26.817
REMARK  Name = 
REMARK  4 active torsions:
REMARK  status: ('A' for Active; 'I' for Inactive)
REMARK    1  A    between atoms: C_2  and  C_3
REMARK    2  A    between atoms: C_3  and  C_4
REMARK    3  A    between atoms: C_7  and  C_8
REMARK    4  A    between atoms: C_11  and  N_12
REMARK                            x       y       z     vdW  Elec       q    Type
REMARK                         _______ _______ _______ _____ _____    ______ ____
ROOT
ATOM      1  C   UNL     1       7.343  15.251  11.248  0.00  0.00    +0.000 C 
ATOM      2  O   UNL     1       7.911  14.020  11.183  0.00  0.00    +0.000 OA
ATOM      3  C   UNL     1       8.865  13.943  12.403  0.00  0.00    +0.000 C 
ATOM      4  N   UNL     1       9.949  14.837  11.670  0.00  0.00    +0.000 NA
ATOM      5  C   UNL     1       9.538  16.194  11.763  0.00  0.00    +0.000 A 
ATOM      6  C   UNL     1      10.385  17.249  12.044  0.00  0.00    +0.000 A 
ATOM      7  C   UNL     1       9.942  18.555  12.119  0.00  0.00    +0.000 A 
ATOM      8  C   UNL     1       8.592  18.732  11.895  0.00  0.00    +0.000 A 
ATOM      9  C   UNL     1       7.730  17.701  11.616  0.00  0.00    +0.000 A 
ATOM     10  C   UNL     1       8.202  16.396  11.545  0.00  0.00    +0.000 A 
ENDROOT
BRANCH   3  11
ATOM     11  C   UNL     1       9.481  12.564  12.038  0.00  0.00    +0.000 A 
ATOM     12  C   UNL     1       9.773  12.313  10.752  0.00  0.00    +0.000 A 
ATOM     13  C   UNL     1      10.309  11.007  10.748  0.00  0.00    +0.000 A 
ATOM     14  C   UNL     1      10.278  10.607  12.062  0.00  0.00    +0.000 A 
ATOM     15  O   UNL     1       9.780  11.570  12.768  0.00  0.00    +0.000 OA
BRANCH  14  16
ATOM     16  N   UNL     1      10.743   9.310  12.507  0.00  0.00    +0.000 N 
ATOM     17  O   UNL     1      11.327   8.524  11.755  0.00  0.00    +0.000 OA
ATOM     18  O   UNL     1      10.549   8.896  13.804  0.00  0.00    +0.000 OA
ENDBRANCH  14  16
ENDBRANCH   3  11
BRANCH   1  20
ATOM     19  C   UNL     1       4.990  14.504  11.704  0.00  0.00    +0.000 C 
ATOM     20  C   UNL     1       6.145  15.355  12.159  0.00  0.00    +0.000 C 
ENDBRANCH   1  20
BRANCH   1  21
ATOM     21  C   UNL     1       6.805  15.494   9.823  0.00  0.00    +0.000 C 
ATOM     22  C   UNL     1       7.445  14.532   8.846  0.00  0.00    +0.000 C 
ENDBRANCH   1  21
TORSDOF 4
ENDMDL
MODEL 10
REMARK VINA RESULT:      -5.6      3.055      5.614
REMARK  Name = 
REMARK  4 active torsions:
REMARK  status: ('A' for Active; 'I' for Inactive)
REMARK    1  A    between atoms: C_2  and  C_3
REMARK    2  A    between atoms: C_3  and  C_4
REMARK    3  A    between atoms: C_7  and  C_8
REMARK    4  A    between atoms: C_11  and  N_12
REMARK                            x       y       z     vdW  Elec       q    Type
REMARK                         _______ _______ _______ _____ _____    ______ ____
ROOT
ATOM      1  C   UNL     1      31.077  23.599  27.697  0.00  0.00    +0.000 C 
ATOM      2  O   UNL     1      29.919  23.531  26.992  0.00  0.00    +0.000 OA
ATOM      3  C   UNL     1      30.287  22.814  25.668  0.00  0.00    +0.000 C 
ATOM      4  N   UNL     1      30.944  24.133  25.082  0.00  0.00    +0.000 NA
ATOM      5  C   UNL     1      32.237  24.271  25.654  0.00  0.00    +0.000 A 
ATOM      6  C   UNL     1      33.364  24.654  24.953  0.00  0.00    +0.000 A 
ATOM      7  C   UNL     1      34.602  24.782  25.551  0.00  0.00    +0.000 A 
ATOM      8  C   UNL     1      34.635  24.500  26.902  0.00  0.00    +0.000 A 
ATOM      9  C   UNL     1      33.529  24.117  27.621  0.00  0.00    +0.000 A 
ATOM     10  C   UNL     1      32.295  23.997  26.994  0.00  0.00    +0.000 A 
ENDROOT
BRANCH   3  11
ATOM     11  C   UNL     1      28.894  22.987  25.000  0.00  0.00    +0.000 A 
ATOM     12  C   UNL     1      27.800  22.923  25.775  0.00  0.00    +0.000 A 
ATOM     13  C   UNL     1      26.715  23.116  24.892  0.00  0.00    +0.000 A 
ATOM     14  C   UNL     1      27.290  23.278  23.654  0.00  0.00    +0.000 A 
ATOM     15  O   UNL     1      28.574  23.191  23.789  0.00  0.00    +0.000 OA
BRANCH  14  16
ATOM     16  N   UNL     1      26.523  23.504  22.447  0.00  0.00    +0.000 N 
ATOM     17  O   UNL     1      26.872  24.317  21.586  0.00  0.00    +0.000 OA
ATOM     18  O   UNL     1      25.359  22.812  22.209  0.00  0.00    +0.000 OA
ENDBRANCH  14  16
ENDBRANCH   3  11
BRANCH   1  20
ATOM     19  C   UNL     1      30.981  22.454  29.930  0.00  0.00    +0.000 C 
ATOM     20  C   UNL     1      31.415  22.362  28.492  0.00  0.00    +0.000 C 
ENDBRANCH   1  20
BRANCH   1  21
ATOM     21  C   UNL     1      30.820  24.706  28.740  0.00  0.00    +0.000 C 
ATOM     22  C   UNL     1      29.702  25.616  28.280  0.00  0.00    +0.000 C 
ENDBRANCH   1  21
TORSDOF 4
ENDMDL
