MODEL 1
REMARK VINA RESULT:      -8.3      0.000      0.000
REMARK  Name = 
REMARK  7 active torsions:
REMARK  status: ('A' for Active; 'I' for Inactive)
REMARK    1  A    between atoms: O_2  and  C_3
REMARK    2  A    between atoms: C_7  and  C_8
REMARK    3  A    between atoms: N_9  and  N_10
REMARK    4  A    between atoms: C_11  and  C_13
REMARK    5  A    between atoms: C_17  and  C_18
REMARK    6  A    between atoms: C_18  and  O_19
REMARK    7  A    between atoms: O_19  and  C_20
REMARK                            x       y       z     vdW  Elec       q    Type
REMARK                         _______ _______ _______ _____ _____    ______ ____
ROOT
ATOM      1  C   UNL     1      37.194   4.031  15.982  0.00  0.00    +0.000 A 
ATOM      2  C   UNL     1      36.619   4.564  14.864  0.00  0.00    +0.000 A 
ATOM      3  C   UNL     1      35.481   4.030  14.304  0.00  0.00    +0.000 A 
ATOM      4  C   UNL     1      34.934   2.919  14.924  0.00  0.00    +0.000 A 
ATOM      5  C   UNL     1      35.488   2.368  16.041  0.00  0.00    +0.000 A 
ATOM      6  C   UNL     1      36.625   2.929  16.571  0.00  0.00    +0.000 A 
ENDROOT
BRANCH   1   8
ATOM      7  N   UNL     1      38.506   4.974  17.914  0.00  0.00    +0.000 NA
ATOM      8  C   UNL     1      38.393   4.629  16.538  0.00  0.00    +0.000 C 
ATOM      9  O   UNL     1      39.395   4.868  15.814  0.00  0.00    +0.000 OA
BRANCH   7  11
ATOM     10  C   UNL     1      39.682   6.285  19.490  0.00  0.00    +0.000 C 
ATOM     11  N   UNL     1      39.656   5.549  18.457  0.00  0.00    +0.000 NA
BRANCH  10  16
ATOM     12  C   UNL     1      42.268   8.813  20.521  0.00  0.00    +0.000 A 
ATOM     13  C   UNL     1      43.228   7.997  21.068  0.00  0.00    +0.000 A 
ATOM     14  C   UNL     1      43.039   6.626  21.103  0.00  0.00    +0.000 A 
ATOM     15  C   UNL     1      41.877   6.069  20.587  0.00  0.00    +0.000 A 
ATOM     16  C   UNL     1      40.904   6.873  20.034  0.00  0.00    +0.000 A 
ATOM     17  C   UNL     1      41.118   8.226  20.013  0.00  0.00    +0.000 A 
ATOM     18  O   UNL     1      40.174   9.075  19.471  0.00  0.00    +0.000 OA
BRANCH  12  20
ATOM     19  C   UNL     1      42.490  10.890  21.714  0.00  0.00    +0.000 C 
ATOM     20  O   UNL     1      42.480  10.177  20.498  0.00  0.00    +0.000 OA
ENDBRANCH  12  20
ENDBRANCH  10  16
ENDBRANCH   7  11
ENDBRANCH   1   8
BRANCH   5  21
ATOM     21  C   UNL     1      34.898   1.183  16.696  0.00  0.00    +0.000 C 
BRANCH  21  22
ATOM     22  O   UNL     1      35.481   0.869  17.934  0.00  0.00    +0.000 OA
BRANCH  22  23
ATOM     23  C   UNL     1      36.287  -0.246  18.047  0.00  0.00    +0.000 A 
ATOM     24  C   UNL     1      36.414  -0.808  19.313  0.00  0.00    +0.000 A 
ATOM     25  C   UNL     1      37.193  -1.920  19.536  0.00  0.00    +0.000 A 
ATOM     26  C   UNL     1      37.868  -2.501  18.482  0.00  0.00    +0.000 A 
ATOM     27  C   UNL     1      37.735  -1.939  17.240  0.00  0.00    +0.000 A 
ATOM     28  C   UNL     1      36.954  -0.823  17.016  0.00  0.00    +0.000 A 
ATOM     29  C   UNL     1      38.533  -2.700  16.254  0.00  0.00    +0.000 C 
ATOM     30  C   UNL     1      38.734  -4.028  16.920  0.00  0.00    +0.000 C 
ATOM     31  C   UNL     1      38.761  -3.684  18.418  0.00  0.00    +0.000 C 
ENDBRANCH  22  23
ENDBRANCH  21  22
ENDBRANCH   5  21
TORSDOF 7
ENDMDL
MODEL 2
REMARK VINA RESULT:      -8.0      5.538     10.229
REMARK  Name = 
REMARK  7 active torsions:
REMARK  status: ('A' for Active; 'I' for Inactive)
REMARK    1  A    between atoms: O_2  and  C_3
REMARK    2  A    between atoms: C_7  and  C_8
REMARK    3  A    between atoms: N_9  and  N_10
REMARK    4  A    between atoms: C_11  and  C_13
REMARK    5  A    between atoms: C_17  and  C_18
REMARK    6  A    between atoms: C_18  and  O_19
REMARK    7  A    between atoms: O_19  and  C_20
REMARK                            x       y       z     vdW  Elec       q    Type
REMARK                         _______ _______ _______ _____ _____    ______ ____
ROOT
ATOM      1  C   UNL     1      35.255   5.372  13.638  0.00  0.00    +0.000 A 
ATOM      2  C   UNL     1      34.214   6.203  13.939  0.00  0.00    +0.000 A 
ATOM      3  C   UNL     1      33.723   7.114  13.031  0.00  0.00    +0.000 A 
ATOM      4  C   UNL     1      34.329   7.155  11.787  0.00  0.00    +0.000 A 
ATOM      5  C   UNL     1      35.369   6.336  11.461  0.00  0.00    +0.000 A 
ATOM      6  C   UNL     1      35.833   5.440  12.394  0.00  0.00    +0.000 A 
ENDROOT
BRANCH   1   8
ATOM      7  N   UNL     1      34.919   3.397  15.164  0.00  0.00    +0.000 NA
ATOM      8  C   UNL     1      35.740   4.428  14.626  0.00  0.00    +0.000 C 
ATOM      9  O   UNL     1      36.923   4.484  15.053  0.00  0.00    +0.000 OA
BRANCH   7  11
ATOM     10  C   UNL     1      35.446   1.228  15.943  0.00  0.00    +0.000 C 
ATOM     11  N   UNL     1      35.377   2.484  16.115  0.00  0.00    +0.000 NA
BRANCH  10  16
ATOM     12  C   UNL     1      37.337  -1.561  17.610  0.00  0.00    +0.000 A 
ATOM     13  C   UNL     1      36.854  -1.475  18.894  0.00  0.00    +0.000 A 
ATOM     14  C   UNL     1      35.914  -0.512  19.220  0.00  0.00    +0.000 A 
ATOM     15  C   UNL     1      35.456   0.371  18.253  0.00  0.00    +0.000 A 
ATOM     16  C   UNL     1      35.930   0.298  16.961  0.00  0.00    +0.000 A 
ATOM     17  C   UNL     1      36.860  -0.664  16.666  0.00  0.00    +0.000 A 
ATOM     18  O   UNL     1      37.366  -0.780  15.387  0.00  0.00    +0.000 OA
BRANCH  12  20
ATOM     19  C   UNL     1      38.709  -3.402  18.329  0.00  0.00    +0.000 C 
ATOM     20  O   UNL     1      38.273  -2.530  17.310  0.00  0.00    +0.000 OA
ENDBRANCH  12  20
ENDBRANCH  10  16
ENDBRANCH   7  11
ENDBRANCH   1   8
BRANCH   5  21
ATOM     21  C   UNL     1      36.011   6.387  10.132  0.00  0.00    +0.000 C 
BRANCH  21  22
ATOM     22  O   UNL     1      35.105   6.331   9.061  0.00  0.00    +0.000 OA
BRANCH  22  23
ATOM     23  C   UNL     1      35.272   5.379   8.074  0.00  0.00    +0.000 A 
ATOM     24  C   UNL     1      35.870   4.180   8.448  0.00  0.00    +0.000 A 
ATOM     25  C   UNL     1      36.083   3.166   7.543  0.00  0.00    +0.000 A 
ATOM     26  C   UNL     1      35.696   3.333   6.230  0.00  0.00    +0.000 A 
ATOM     27  C   UNL     1      35.108   4.518   5.873  0.00  0.00    +0.000 A 
ATOM     28  C   UNL     1      34.894   5.536   6.781  0.00  0.00    +0.000 A 
ATOM     29  C   UNL     1      34.773   4.501   4.433  0.00  0.00    +0.000 C 
ATOM     30  C   UNL     1      34.753   3.040   4.096  0.00  0.00    +0.000 C 
ATOM     31  C   UNL     1      35.792   2.432   5.054  0.00  0.00    +0.000 C 
ENDBRANCH  22  23
ENDBRANCH  21  22
ENDBRANCH   5  21
TORSDOF 7
ENDMDL
MODEL 3
REMARK VINA RESULT:      -7.8      2.346      9.906
REMARK  Name = 
REMARK  7 active torsions:
REMARK  status: ('A' for Active; 'I' for Inactive)
REMARK    1  A    between atoms: O_2  and  C_3
REMARK    2  A    between atoms: C_7  and  C_8
REMARK    3  A    between atoms: N_9  and  N_10
REMARK    4  A    between atoms: C_11  and  C_13
REMARK    5  A    between atoms: C_17  and  C_18
REMARK    6  A    between atoms: C_18  and  O_19
REMARK    7  A    between atoms: O_19  and  C_20
REMARK                            x       y       z     vdW  Elec       q    Type
REMARK                         _______ _______ _______ _____ _____    ______ ____
ROOT
ATOM      1  C   UNL     1      38.213   4.768  16.651  0.00  0.00    +0.000 A 
ATOM      2  C   UNL     1      37.962   5.758  15.745  0.00  0.00    +0.000 A 
ATOM      3  C   UNL     1      38.140   7.088  16.051  0.00  0.00    +0.000 A 
ATOM      4  C   UNL     1      38.589   7.388  17.326  0.00  0.00    +0.000 A 
ATOM      5  C   UNL     1      38.848   6.418  18.249  0.00  0.00    +0.000 A 
ATOM      6  C   UNL     1      38.658   5.101  17.907  0.00  0.00    +0.000 A 
ENDROOT
BRANCH   1   8
ATOM      7  N   UNL     1      37.025   2.561  16.903  0.00  0.00    +0.000 NA
ATOM      8  C   UNL     1      38.012   3.379  16.284  0.00  0.00    +0.000 C 
ATOM      9  O   UNL     1      38.712   2.835  15.390  0.00  0.00    +0.000 OA
BRANCH   7  11
ATOM     10  C   UNL     1      36.316   0.345  17.317  0.00  0.00    +0.000 C 
ATOM     11  N   UNL     1      36.825   1.225  16.557  0.00  0.00    +0.000 NA
BRANCH  10  16
ATOM     12  C   UNL     1      37.010  -3.259  16.502  0.00  0.00    +0.000 A 
ATOM     13  C   UNL     1      35.750  -3.701  16.176  0.00  0.00    +0.000 A 
ATOM     14  C   UNL     1      34.674  -2.831  16.219  0.00  0.00    +0.000 A 
ATOM     15  C   UNL     1      34.863  -1.508  16.593  0.00  0.00    +0.000 A 
ATOM     16  C   UNL     1      36.119  -1.048  16.924  0.00  0.00    +0.000 A 
ATOM     17  C   UNL     1      37.165  -1.932  16.872  0.00  0.00    +0.000 A 
ATOM     18  O   UNL     1      38.443  -1.522  17.193  0.00  0.00    +0.000 OA
BRANCH  12  20
ATOM     19  C   UNL     1      38.059  -5.271  17.302  0.00  0.00    +0.000 C 
ATOM     20  O   UNL     1      38.066  -4.147  16.451  0.00  0.00    +0.000 OA
ENDBRANCH  12  20
ENDBRANCH  10  16
ENDBRANCH   7  11
ENDBRANCH   1   8
BRANCH   5  21
ATOM     21  C   UNL     1      39.326   6.747  19.607  0.00  0.00    +0.000 C 
BRANCH  21  22
ATOM     22  O   UNL     1      40.350   7.707  19.632  0.00  0.00    +0.000 OA
BRANCH  22  23
ATOM     23  C   UNL     1      41.666   7.300  19.738  0.00  0.00    +0.000 A 
ATOM     24  C   UNL     1      42.518   7.642  18.694  0.00  0.00    +0.000 A 
ATOM     25  C   UNL     1      43.848   7.286  18.701  0.00  0.00    +0.000 A 
ATOM     26  C   UNL     1      44.356   6.573  19.766  0.00  0.00    +0.000 A 
ATOM     27  C   UNL     1      43.508   6.242  20.789  0.00  0.00    +0.000 A 
ATOM     28  C   UNL     1      42.174   6.599  20.783  0.00  0.00    +0.000 A 
ATOM     29  C   UNL     1      44.239   5.482  21.825  0.00  0.00    +0.000 C 
ATOM     30  C   UNL     1      45.674   5.830  21.565  0.00  0.00    +0.000 C 
ATOM     31  C   UNL     1      45.722   6.063  20.046  0.00  0.00    +0.000 C 
ENDBRANCH  22  23
ENDBRANCH  21  22
ENDBRANCH   5  21
TORSDOF 7
ENDMDL
MODEL 4
REMARK VINA RESULT:      -7.7     24.317     28.515
REMARK  Name = 
REMARK  7 active torsions:
REMARK  status: ('A' for Active; 'I' for Inactive)
REMARK    1  A    between atoms: O_2  and  C_3
REMARK    2  A    between atoms: C_7  and  C_8
REMARK    3  A    between atoms: N_9  and  N_10
REMARK    4  A    between atoms: C_11  and  C_13
REMARK    5  A    between atoms: C_17  and  C_18
REMARK    6  A    between atoms: C_18  and  O_19
REMARK    7  A    between atoms: O_19  and  C_20
REMARK                            x       y       z     vdW  Elec       q    Type
REMARK                         _______ _______ _______ _____ _____    ______ ____
ROOT
ATOM      1  C   UNL     1      12.492  -1.281  26.730  0.00  0.00    +0.000 A 
ATOM      2  C   UNL     1      12.026  -1.296  28.014  0.00  0.00    +0.000 A 
ATOM      3  C   UNL     1      12.698  -0.670  29.040  0.00  0.00    +0.000 A 
ATOM      4  C   UNL     1      13.876  -0.017  28.718  0.00  0.00    +0.000 A 
ATOM      5  C   UNL     1      14.362   0.013  27.445  0.00  0.00    +0.000 A 
ATOM      6  C   UNL     1      13.664  -0.624  26.447  0.00  0.00    +0.000 A 
ENDROOT
BRANCH   1   8
ATOM      7  N   UNL     1      10.720  -1.310  24.941  0.00  0.00    +0.000 NA
ATOM      8  C   UNL     1      11.751  -1.954  25.681  0.00  0.00    +0.000 C 
ATOM      9  O   UNL     1      11.994  -3.152  25.379  0.00  0.00    +0.000 OA
BRANCH   7  11
ATOM     10  C   UNL     1       9.332  -1.358  23.028  0.00  0.00    +0.000 C 
ATOM     11  N   UNL     1      10.002  -1.949  23.930  0.00  0.00    +0.000 NA
BRANCH  10  16
ATOM     12  C   UNL     1       6.626  -2.272  20.583  0.00  0.00    +0.000 A 
ATOM     13  C   UNL     1       7.172  -3.386  19.993  0.00  0.00    +0.000 A 
ATOM     14  C   UNL     1       8.418  -3.843  20.388  0.00  0.00    +0.000 A 
ATOM     15  C   UNL     1       9.122  -3.177  21.381  0.00  0.00    +0.000 A 
ATOM     16  C   UNL     1       8.589  -2.058  21.983  0.00  0.00    +0.000 A 
ATOM     17  C   UNL     1       7.354  -1.628  21.572  0.00  0.00    +0.000 A 
ATOM     18  O   UNL     1       6.777  -0.513  22.144  0.00  0.00    +0.000 OA
BRANCH  12  20
ATOM     19  C   UNL     1       4.843  -2.337  18.969  0.00  0.00    +0.000 C 
ATOM     20  O   UNL     1       5.382  -1.836  20.172  0.00  0.00    +0.000 OA
ENDBRANCH  12  20
ENDBRANCH  10  16
ENDBRANCH   7  11
ENDBRANCH   1   8
BRANCH   5  21
ATOM     21  C   UNL     1      15.619   0.711  27.110  0.00  0.00    +0.000 C 
BRANCH  21  22
ATOM     22  O   UNL     1      16.771  -0.068  27.302  0.00  0.00    +0.000 OA
BRANCH  22  23
ATOM     23  C   UNL     1      17.678  -0.211  26.271  0.00  0.00    +0.000 A 
ATOM     24  C   UNL     1      17.968  -1.508  25.860  0.00  0.00    +0.000 A 
ATOM     25  C   UNL     1      18.857  -1.762  24.841  0.00  0.00    +0.000 A 
ATOM     26  C   UNL     1      19.483  -0.710  24.206  0.00  0.00    +0.000 A 
ATOM     27  C   UNL     1      19.190   0.563  24.619  0.00  0.00    +0.000 A 
ATOM     28  C   UNL     1      18.297   0.818  25.641  0.00  0.00    +0.000 A 
ATOM     29  C   UNL     1      19.960   1.542  23.821  0.00  0.00    +0.000 C 
ATOM     30  C   UNL     1      20.335   0.771  22.592  0.00  0.00    +0.000 C 
ATOM     31  C   UNL     1      20.467  -0.676  23.095  0.00  0.00    +0.000 C 
ENDBRANCH  22  23
ENDBRANCH  21  22
ENDBRANCH   5  21
TORSDOF 7
ENDMDL
MODEL 5
REMARK VINA RESULT:      -7.6      2.992      9.879
REMARK  Name = 
REMARK  7 active torsions:
REMARK  status: ('A' for Active; 'I' for Inactive)
REMARK    1  A    between atoms: O_2  and  C_3
REMARK    2  A    between atoms: C_7  and  C_8
REMARK    3  A    between atoms: N_9  and  N_10
REMARK    4  A    between atoms: C_11  and  C_13
REMARK    5  A    between atoms: C_17  and  C_18
REMARK    6  A    between atoms: C_18  and  O_19
REMARK    7  A    between atoms: O_19  and  C_20
REMARK                            x       y       z     vdW  Elec       q    Type
REMARK                         _______ _______ _______ _____ _____    ______ ____
ROOT
ATOM      1  C   UNL     1      38.302   5.213  16.976  0.00  0.00    +0.000 A 
ATOM      2  C   UNL     1      37.965   6.253  16.158  0.00  0.00    +0.000 A 
ATOM      3  C   UNL     1      38.173   7.564  16.523  0.00  0.00    +0.000 A 
ATOM      4  C   UNL     1      38.745   7.792  17.764  0.00  0.00    +0.000 A 
ATOM      5  C   UNL     1      39.091   6.771  18.599  0.00  0.00    +0.000 A 
ATOM      6  C   UNL     1      38.867   5.475  18.200  0.00  0.00    +0.000 A 
ENDROOT
BRANCH   1   8
ATOM      7  N   UNL     1      38.781   3.247  15.476  0.00  0.00    +0.000 NA
ATOM      8  C   UNL     1      38.065   3.847  16.550  0.00  0.00    +0.000 C 
ATOM      9  O   UNL     1      37.204   3.129  17.122  0.00  0.00    +0.000 OA
BRANCH   7  11
ATOM     10  C   UNL     1      39.464   1.127  14.687  0.00  0.00    +0.000 C 
ATOM     11  N   UNL     1      38.559   1.934  15.060  0.00  0.00    +0.000 NA
BRANCH  10  16
ATOM     12  C   UNL     1      38.594  -2.530  14.770  0.00  0.00    +0.000 A 
ATOM     13  C   UNL     1      38.694  -2.853  13.438  0.00  0.00    +0.000 A 
ATOM     14  C   UNL     1      39.045  -1.886  12.512  0.00  0.00    +0.000 A 
ATOM     15  C   UNL     1      39.296  -0.585  12.924  0.00  0.00    +0.000 A 
ATOM     16  C   UNL     1      39.199  -0.244  14.256  0.00  0.00    +0.000 A 
ATOM     17  C   UNL     1      38.851  -1.221  15.150  0.00  0.00    +0.000 A 
ATOM     18  O   UNL     1      38.741  -0.931  16.495  0.00  0.00    +0.000 OA
BRANCH  12  20
ATOM     19  C   UNL     1      37.000  -4.164  15.531  0.00  0.00    +0.000 C 
ATOM     20  O   UNL     1      38.243  -3.512  15.674  0.00  0.00    +0.000 OA
ENDBRANCH  12  20
ENDBRANCH  10  16
ENDBRANCH   7  11
ENDBRANCH   1   8
BRANCH   5  21
ATOM     21  C   UNL     1      39.700   7.022  19.920  0.00  0.00    +0.000 C 
BRANCH  21  22
ATOM     22  O   UNL     1      40.647   6.059  20.302  0.00  0.00    +0.000 OA
BRANCH  22  23
ATOM     23  C   UNL     1      41.990   6.301  20.091  0.00  0.00    +0.000 A 
ATOM     24  C   UNL     1      42.371   6.675  18.807  0.00  0.00    +0.000 A 
ATOM     25  C   UNL     1      43.683   6.939  18.489  0.00  0.00    +0.000 A 
ATOM     26  C   UNL     1      44.653   6.834  19.464  0.00  0.00    +0.000 A 
ATOM     27  C   UNL     1      44.268   6.465  20.725  0.00  0.00    +0.000 A 
ATOM     28  C   UNL     1      42.950   6.200  21.044  0.00  0.00    +0.000 A 
ATOM     29  C   UNL     1      45.446   6.406  21.616  0.00  0.00    +0.000 C 
ATOM     30  C   UNL     1      46.462   7.249  20.906  0.00  0.00    +0.000 C 
ATOM     31  C   UNL     1      46.120   7.056  19.419  0.00  0.00    +0.000 C 
ENDBRANCH  22  23
ENDBRANCH  21  22
ENDBRANCH   5  21
TORSDOF 7
ENDMDL
MODEL 6
REMARK VINA RESULT:      -7.6      6.046     10.190
REMARK  Name = 
REMARK  7 active torsions:
REMARK  status: ('A' for Active; 'I' for Inactive)
REMARK    1  A    between atoms: O_2  and  C_3
REMARK    2  A    between atoms: C_7  and  C_8
REMARK    3  A    between atoms: N_9  and  N_10
REMARK    4  A    between atoms: C_11  and  C_13
REMARK    5  A    between atoms: C_17  and  C_18
REMARK    6  A    between atoms: C_18  and  O_19
REMARK    7  A    between atoms: O_19  and  C_20
REMARK                            x       y       z     vdW  Elec       q    Type
REMARK                         _______ _______ _______ _____ _____    ______ ____
ROOT
ATOM      1  C   UNL     1      45.274   5.351  23.175  0.00  0.00    +0.000 A 
ATOM      2  C   UNL     1      46.341   4.501  23.107  0.00  0.00    +0.000 A 
ATOM      3  C   UNL     1      47.030   4.289  21.935  0.00  0.00    +0.000 A 
ATOM      4  C   UNL     1      46.597   4.977  20.814  0.00  0.00    +0.000 A 
ATOM      5  C   UNL     1      45.535   5.831  20.855  0.00  0.00    +0.000 A 
ATOM      6  C   UNL     1      44.872   6.018  22.044  0.00  0.00    +0.000 A 
ENDROOT
BRANCH   1   8
ATOM      7  N   UNL     1      44.704   4.638  25.522  0.00  0.00    +0.000 NA
ATOM      8  C   UNL     1      44.578   5.545  24.433  0.00  0.00    +0.000 C 
ATOM      9  O   UNL     1      43.825   6.537  24.612  0.00  0.00    +0.000 OA
BRANCH   7  11
ATOM     10  C   UNL     1      42.964   4.228  27.069  0.00  0.00    +0.000 C 
ATOM     11  N   UNL     1      44.039   4.816  26.735  0.00  0.00    +0.000 NA
BRANCH  10  16
ATOM     12  C   UNL     1      40.769   5.704  29.740  0.00  0.00    +0.000 A 
ATOM     13  C   UNL     1      41.007   4.839  30.782  0.00  0.00    +0.000 A 
ATOM     14  C   UNL     1      41.880   3.778  30.619  0.00  0.00    +0.000 A 
ATOM     15  C   UNL     1      42.518   3.580  29.403  0.00  0.00    +0.000 A 
ATOM     16  C   UNL     1      42.291   4.437  28.348  0.00  0.00    +0.000 A 
ATOM     17  C   UNL     1      41.422   5.480  28.538  0.00  0.00    +0.000 A 
ATOM     18  O   UNL     1      41.160   6.367  27.513  0.00  0.00    +0.000 OA
BRANCH  12  20
ATOM     19  C   UNL     1      38.569   6.482  30.327  0.00  0.00    +0.000 C 
ATOM     20  O   UNL     1      39.894   6.755  29.928  0.00  0.00    +0.000 OA
ENDBRANCH  12  20
ENDBRANCH  10  16
ENDBRANCH   7  11
ENDBRANCH   1   8
BRANCH   5  21
ATOM     21  C   UNL     1      45.080   6.561  19.655  0.00  0.00    +0.000 C 
BRANCH  21  22
ATOM     22  O   UNL     1      43.938   7.349  19.868  0.00  0.00    +0.000 OA
BRANCH  22  23
ATOM     23  C   UNL     1      42.714   6.922  19.391  0.00  0.00    +0.000 A 
ATOM     24  C   UNL     1      41.715   6.694  20.331  0.00  0.00    +0.000 A 
ATOM     25  C   UNL     1      40.459   6.267  19.963  0.00  0.00    +0.000 A 
ATOM     26  C   UNL     1      40.176   6.058  18.630  0.00  0.00    +0.000 A 
ATOM     27  C   UNL     1      41.167   6.285  17.713  0.00  0.00    +0.000 A 
ATOM     28  C   UNL     1      42.427   6.714  18.082  0.00  0.00    +0.000 A 
ATOM     29  C   UNL     1      40.669   6.002  16.350  0.00  0.00    +0.000 C 
ATOM     30  C   UNL     1      39.179   6.077  16.501  0.00  0.00    +0.000 C 
ATOM     31  C   UNL     1      38.936   5.611  17.946  0.00  0.00    +0.000 C 
ENDBRANCH  22  23
ENDBRANCH  21  22
ENDBRANCH   5  21
TORSDOF 7
ENDMDL
MODEL 7
REMARK VINA RESULT:      -7.5      4.210     10.457
REMARK  Name = 
REMARK  7 active torsions:
REMARK  status: ('A' for Active; 'I' for Inactive)
REMARK    1  A    between atoms: O_2  and  C_3
REMARK    2  A    between atoms: C_7  and  C_8
REMARK    3  A    between atoms: N_9  and  N_10
REMARK    4  A    between atoms: C_11  and  C_13
REMARK    5  A    between atoms: C_17  and  C_18
REMARK    6  A    between atoms: C_18  and  O_19
REMARK    7  A    between atoms: O_19  and  C_20
REMARK                            x       y       z     vdW  Elec       q    Type
REMARK                         _______ _______ _______ _____ _____    ______ ____
ROOT
ATOM      1  C   UNL     1      38.902   6.115  18.655  0.00  0.00    +0.000 A 
ATOM      2  C   UNL     1      39.891   6.219  19.591  0.00  0.00    +0.000 A 
ATOM      3  C   UNL     1      40.118   7.387  20.285  0.00  0.00    +0.000 A 
ATOM      4  C   UNL     1      39.297   8.463  19.995  0.00  0.00    +0.000 A 
ATOM      5  C   UNL     1      38.303   8.386  19.065  0.00  0.00    +0.000 A 
ATOM      6  C   UNL     1      38.107   7.204  18.392  0.00  0.00    +0.000 A 
ENDROOT
BRANCH   1   8
ATOM      7  N   UNL     1      38.902   4.740  16.545  0.00  0.00    +0.000 NA
ATOM      8  C   UNL     1      38.699   4.865  17.948  0.00  0.00    +0.000 C 
ATOM      9  O   UNL     1      38.332   3.827  18.558  0.00  0.00    +0.000 OA
BRANCH   7  11
ATOM     10  C   UNL     1      37.592   3.125  15.420  0.00  0.00    +0.000 C 
ATOM     11  N   UNL     1      38.709   3.541  15.857  0.00  0.00    +0.000 NA
BRANCH  10  16
ATOM     12  C   UNL     1      36.912  -0.502  14.703  0.00  0.00    +0.000 A 
ATOM     13  C   UNL     1      37.101  -0.540  13.342  0.00  0.00    +0.000 A 
ATOM     14  C   UNL     1      37.450   0.610  12.656  0.00  0.00    +0.000 A 
ATOM     15  C   UNL     1      37.610   1.808  13.338  0.00  0.00    +0.000 A 
ATOM     16  C   UNL     1      37.423   1.864  14.703  0.00  0.00    +0.000 A 
ATOM     17  C   UNL     1      37.079   0.710  15.356  0.00  0.00    +0.000 A 
ATOM     18  O   UNL     1      36.882   0.712  16.722  0.00  0.00    +0.000 OA
BRANCH  12  20
ATOM     19  C   UNL     1      37.416  -2.784  15.275  0.00  0.00    +0.000 C 
ATOM     20  O   UNL     1      36.565  -1.663  15.364  0.00  0.00    +0.000 OA
ENDBRANCH  12  20
ENDBRANCH  10  16
ENDBRANCH   7  11
ENDBRANCH   1   8
BRANCH   5  21
ATOM     21  C   UNL     1      37.432   9.538  18.762  0.00  0.00    +0.000 C 
BRANCH  21  22
ATOM     22  O   UNL     1      36.132   9.182  18.371  0.00  0.00    +0.000 OA
BRANCH  22  23
ATOM     23  C   UNL     1      35.527   9.844  17.321  0.00  0.00    +0.000 A 
ATOM     24  C   UNL     1      35.152  11.166  17.541  0.00  0.00    +0.000 A 
ATOM     25  C   UNL     1      34.543  11.917  16.562  0.00  0.00    +0.000 A 
ATOM     26  C   UNL     1      34.295  11.353  15.328  0.00  0.00    +0.000 A 
ATOM     27  C   UNL     1      34.669  10.052  15.122  0.00  0.00    +0.000 A 
ATOM     28  C   UNL     1      35.280   9.298  16.105  0.00  0.00    +0.000 A 
ATOM     29  C   UNL     1      34.316   9.636  13.748  0.00  0.00    +0.000 C 
ATOM     30  C   UNL     1      34.168  10.937  13.018  0.00  0.00    +0.000 C 
ATOM     31  C   UNL     1      33.669  11.908  14.101  0.00  0.00    +0.000 C 
ENDBRANCH  22  23
ENDBRANCH  21  22
ENDBRANCH   5  21
TORSDOF 7
ENDMDL
MODEL 8
REMARK VINA RESULT:      -7.5      2.909      4.246
REMARK  Name = 
REMARK  7 active torsions:
REMARK  status: ('A' for Active; 'I' for Inactive)
REMARK    1  A    between atoms: O_2  and  C_3
REMARK    2  A    between atoms: C_7  and  C_8
REMARK    3  A    between atoms: N_9  and  N_10
REMARK    4  A    between atoms: C_11  and  C_13
REMARK    5  A    between atoms: C_17  and  C_18
REMARK    6  A    between atoms: C_18  and  O_19
REMARK    7  A    between atoms: O_19  and  C_20
REMARK                            x       y       z     vdW  Elec       q    Type
REMARK                         _______ _______ _______ _____ _____    ______ ____
ROOT
ATOM      1  C   UNL     1      39.884   5.777  18.064  0.00  0.00    +0.000 A 
ATOM      2  C   UNL     1      40.508   6.094  16.892  0.00  0.00    +0.000 A 
ATOM      3  C   UNL     1      40.098   5.575  15.685  0.00  0.00    +0.000 A 
ATOM      4  C   UNL     1      39.016   4.710  15.703  0.00  0.00    +0.000 A 
ATOM      5  C   UNL     1      38.375   4.379  16.860  0.00  0.00    +0.000 A 
ATOM      6  C   UNL     1      38.814   4.917  18.046  0.00  0.00    +0.000 A 
ENDROOT
BRANCH   1   8
ATOM      7  N   UNL     1      41.732   6.429  19.646  0.00  0.00    +0.000 NA
ATOM      8  C   UNL     1      40.350   6.348  19.313  0.00  0.00    +0.000 C 
ATOM      9  O   UNL     1      39.540   6.802  20.163  0.00  0.00    +0.000 OA
BRANCH   7  11
ATOM     10  C   UNL     1      43.393   7.301  21.084  0.00  0.00    +0.000 C 
ATOM     11  N   UNL     1      42.189   6.977  20.845  0.00  0.00    +0.000 NA
BRANCH  10  16
ATOM     12  C   UNL     1      44.683   7.592  24.603  0.00  0.00    +0.000 A 
ATOM     13  C   UNL     1      44.695   8.957  24.766  0.00  0.00    +0.000 A 
ATOM     14  C   UNL     1      44.283   9.784  23.735  0.00  0.00    +0.000 A 
ATOM     15  C   UNL     1      43.859   9.239  22.532  0.00  0.00    +0.000 A 
ATOM     16  C   UNL     1      43.841   7.873  22.351  0.00  0.00    +0.000 A 
ATOM     17  C   UNL     1      44.254   7.079  23.389  0.00  0.00    +0.000 A 
ATOM     18  O   UNL     1      44.255   5.704  23.260  0.00  0.00    +0.000 OA
BRANCH  12  20
ATOM     19  C   UNL     1      45.318   7.369  26.913  0.00  0.00    +0.000 C 
ATOM     20  O   UNL     1      45.098   6.789  25.646  0.00  0.00    +0.000 OA
ENDBRANCH  12  20
ENDBRANCH  10  16
ENDBRANCH   7  11
ENDBRANCH   1   8
BRANCH   5  21
ATOM     21  C   UNL     1      37.223   3.456  16.872  0.00  0.00    +0.000 C 
BRANCH  21  22
ATOM     22  O   UNL     1      37.285   2.455  15.889  0.00  0.00    +0.000 OA
BRANCH  22  23
ATOM     23  C   UNL     1      36.618   1.263  16.085  0.00  0.00    +0.000 A 
ATOM     24  C   UNL     1      35.557   1.273  16.984  0.00  0.00    +0.000 A 
ATOM     25  C   UNL     1      34.824   0.140  17.252  0.00  0.00    +0.000 A 
ATOM     26  C   UNL     1      35.143  -1.042  16.617  0.00  0.00    +0.000 A 
ATOM     27  C   UNL     1      36.190  -1.042  15.733  0.00  0.00    +0.000 A 
ATOM     28  C   UNL     1      36.925   0.096  15.464  0.00  0.00    +0.000 A 
ATOM     29  C   UNL     1      36.372  -2.395  15.166  0.00  0.00    +0.000 C 
ATOM     30  C   UNL     1      35.048  -3.055  15.405  0.00  0.00    +0.000 C 
ATOM     31  C   UNL     1      34.543  -2.397  16.701  0.00  0.00    +0.000 C 
ENDBRANCH  22  23
ENDBRANCH  21  22
ENDBRANCH   5  21
TORSDOF 7
ENDMDL
MODEL 9
REMARK VINA RESULT:      -7.5      3.033      9.166
REMARK  Name = 
REMARK  7 active torsions:
REMARK  status: ('A' for Active; 'I' for Inactive)
REMARK    1  A    between atoms: O_2  and  C_3
REMARK    2  A    between atoms: C_7  and  C_8
REMARK    3  A    between atoms: N_9  and  N_10
REMARK    4  A    between atoms: C_11  and  C_13
REMARK    5  A    between atoms: C_17  and  C_18
REMARK    6  A    between atoms: C_18  and  O_19
REMARK    7  A    between atoms: O_19  and  C_20
REMARK                            x       y       z     vdW  Elec       q    Type
REMARK                         _______ _______ _______ _____ _____    ______ ____
ROOT
ATOM      1  C   UNL     1      35.280   5.673  14.153  0.00  0.00    +0.000 A 
ATOM      2  C   UNL     1      34.052   6.150  13.792  0.00  0.00    +0.000 A 
ATOM      3  C   UNL     1      33.815   7.494  13.619  0.00  0.00    +0.000 A 
ATOM      4  C   UNL     1      34.879   8.355  13.826  0.00  0.00    +0.000 A 
ATOM      5  C   UNL     1      36.115   7.905  14.187  0.00  0.00    +0.000 A 
ATOM      6  C   UNL     1      36.314   6.555  14.350  0.00  0.00    +0.000 A 
ENDROOT
BRANCH   1   8
ATOM      7  N   UNL     1      34.736   3.475  15.256  0.00  0.00    +0.000 NA
ATOM      8  C   UNL     1      35.484   4.247  14.324  0.00  0.00    +0.000 C 
ATOM      9  O   UNL     1      36.344   3.628  13.644  0.00  0.00    +0.000 OA
BRANCH   7  11
ATOM     10  C   UNL     1      35.395   1.558  16.473  0.00  0.00    +0.000 C 
ATOM     11  N   UNL     1      34.925   2.103  15.427  0.00  0.00    +0.000 NA
BRANCH  10  16
ATOM     12  C   UNL     1      36.992  -1.845  16.481  0.00  0.00    +0.000 A 
ATOM     13  C   UNL     1      35.942  -2.626  16.899  0.00  0.00    +0.000 A 
ATOM     14  C   UNL     1      34.714  -2.050  17.178  0.00  0.00    +0.000 A 
ATOM     15  C   UNL     1      34.539  -0.681  17.038  0.00  0.00    +0.000 A 
ATOM     16  C   UNL     1      35.582   0.117  16.620  0.00  0.00    +0.000 A 
ATOM     17  C   UNL     1      36.785  -0.480  16.351  0.00  0.00    +0.000 A 
ATOM     18  O   UNL     1      37.861   0.275  15.929  0.00  0.00    +0.000 OA
BRANCH  12  20
ATOM     19  C   UNL     1      38.785  -3.291  17.175  0.00  0.00    +0.000 C 
ATOM     20  O   UNL     1      38.206  -2.443  16.208  0.00  0.00    +0.000 OA
ENDBRANCH  12  20
ENDBRANCH  10  16
ENDBRANCH   7  11
ENDBRANCH   1   8
BRANCH   5  21
ATOM     21  C   UNL     1      37.245   8.830  14.406  0.00  0.00    +0.000 C 
BRANCH  21  22
ATOM     22  O   UNL     1      38.486   8.189  14.543  0.00  0.00    +0.000 OA
BRANCH  22  23
ATOM     23  C   UNL     1      38.869   7.698  15.775  0.00  0.00    +0.000 A 
ATOM     24  C   UNL     1      39.816   6.679  15.782  0.00  0.00    +0.000 A 
ATOM     25  C   UNL     1      40.267   6.119  16.956  0.00  0.00    +0.000 A 
ATOM     26  C   UNL     1      39.773   6.574  18.161  0.00  0.00    +0.000 A 
ATOM     27  C   UNL     1      38.841   7.578  18.142  0.00  0.00    +0.000 A 
ATOM     28  C   UNL     1      38.389   8.140  16.964  0.00  0.00    +0.000 A 
ATOM     29  C   UNL     1      38.439   7.918  19.523  0.00  0.00    +0.000 C 
ATOM     30  C   UNL     1      39.567   7.389  20.356  0.00  0.00    +0.000 C 
ATOM     31  C   UNL     1      40.068   6.173  19.559  0.00  0.00    +0.000 C 
ENDBRANCH  22  23
ENDBRANCH  21  22
ENDBRANCH   5  21
TORSDOF 7
ENDMDL
MODEL 10
REMARK VINA RESULT:      -7.5      2.770      3.793
REMARK  Name = 
REMARK  7 active torsions:
REMARK  status: ('A' for Active; 'I' for Inactive)
REMARK    1  A    between atoms: O_2  and  C_3
REMARK    2  A    between atoms: C_7  and  C_8
REMARK    3  A    between atoms: N_9  and  N_10
REMARK    4  A    between atoms: C_11  and  C_13
REMARK    5  A    between atoms: C_17  and  C_18
REMARK    6  A    between atoms: C_18  and  O_19
REMARK    7  A    between atoms: O_19  and  C_20
REMARK                            x       y       z     vdW  Elec       q    Type
REMARK                         _______ _______ _______ _____ _____    ______ ____
ROOT
ATOM      1  C   UNL     1      37.916   2.813  13.370  0.00  0.00    +0.000 A 
ATOM      2  C   UNL     1      37.527   3.271  12.144  0.00  0.00    +0.000 A 
ATOM      3  C   UNL     1      37.550   2.470  11.025  0.00  0.00    +0.000 A 
ATOM      4  C   UNL     1      37.987   1.166  11.191  0.00  0.00    +0.000 A 
ATOM      5  C   UNL     1      38.381   0.684  12.404  0.00  0.00    +0.000 A 
ATOM      6  C   UNL     1      38.344   1.514  13.498  0.00  0.00    +0.000 A 
ENDROOT
BRANCH   1   8
ATOM      7  N   UNL     1      38.708   3.501  15.660  0.00  0.00    +0.000 NA
ATOM      8  C   UNL     1      37.874   3.693  14.522  0.00  0.00    +0.000 C 
ATOM      9  O   UNL     1      37.088   4.676  14.561  0.00  0.00    +0.000 OA
BRANCH   7  11
ATOM     10  C   UNL     1      39.410   5.365  16.933  0.00  0.00    +0.000 C 
ATOM     11  N   UNL     1      38.675   4.343  16.772  0.00  0.00    +0.000 NA
BRANCH  10  16
ATOM     12  C   UNL     1      38.397   8.112  19.291  0.00  0.00    +0.000 A 
ATOM     13  C   UNL     1      39.238   7.870  20.352  0.00  0.00    +0.000 A 
ATOM     14  C   UNL     1      40.134   6.816  20.303  0.00  0.00    +0.000 A 
ATOM     15  C   UNL     1      40.187   5.998  19.183  0.00  0.00    +0.000 A 
ATOM     16  C   UNL     1      39.352   6.226  18.111  0.00  0.00    +0.000 A 
ATOM     17  C   UNL     1      38.475   7.277  18.187  0.00  0.00    +0.000 A 
ATOM     18  O   UNL     1      37.617   7.548  17.141  0.00  0.00    +0.000 OA
BRANCH  12  20
ATOM     19  C   UNL     1      37.973  10.418  19.832  0.00  0.00    +0.000 C 
ATOM     20  O   UNL     1      37.513   9.169  19.365  0.00  0.00    +0.000 OA
ENDBRANCH  12  20
ENDBRANCH  10  16
ENDBRANCH   7  11
ENDBRANCH   1   8
BRANCH   5  21
ATOM     21  C   UNL     1      38.846  -0.707  12.572  0.00  0.00    +0.000 C 
BRANCH  21  22
ATOM     22  O   UNL     1      39.831  -0.862  13.559  0.00  0.00    +0.000 OA
BRANCH  22  23
ATOM     23  C   UNL     1      39.532  -1.542  14.723  0.00  0.00    +0.000 A 
ATOM     24  C   UNL     1      40.182  -2.754  14.931  0.00  0.00    +0.000 A 
ATOM     25  C   UNL     1      39.957  -3.512  16.057  0.00  0.00    +0.000 A 
ATOM     26  C   UNL     1      39.066  -3.066  17.011  0.00  0.00    +0.000 A 
ATOM     27  C   UNL     1      38.432  -1.870  16.796  0.00  0.00    +0.000 A 
ATOM     28  C   UNL     1      38.658  -1.110  15.666  0.00  0.00    +0.000 A 
ATOM     29  C   UNL     1      37.522  -1.572  17.923  0.00  0.00    +0.000 C 
ATOM     30  C   UNL     1      38.049  -2.431  19.033  0.00  0.00    +0.000 C 
ATOM     31  C   UNL     1      38.631  -3.653  18.302  0.00  0.00    +0.000 C 
ENDBRANCH  22  23
ENDBRANCH  21  22
ENDBRANCH   5  21
TORSDOF 7
ENDMDL
