MODEL 1
REMARK VINA RESULT:      -7.2      0.000      0.000
REMARK  Name = 
REMARK  3 active torsions:
REMARK  status: ('A' for Active; 'I' for Inactive)
REMARK    1  A    between atoms: O_2  and  C_3
REMARK    2  A    between atoms: C_8  and  N_9
REMARK    3  A    between atoms: C_10  and  C_12
REMARK                            x       y       z     vdW  Elec       q    Type
REMARK                         _______ _______ _______ _____ _____    ______ ____
ROOT
ATOM      1  N   UNL     1      14.910  11.725  34.314  0.00  0.00    +0.000 NA
ATOM      2  C   UNL     1      15.411  12.280  35.502  0.00  0.00    +0.000 C 
ATOM      3  O   UNL     1      15.999  13.373  35.457  0.00  0.00    +0.000 OA
ENDROOT
BRANCH   2   4
ATOM      4  C   UNL     1      15.264  11.607  36.822  0.00  0.00    +0.000 A 
ATOM      5  C   UNL     1      14.044  11.479  37.416  0.00  0.00    +0.000 A 
ATOM      6  N   UNL     1      12.764  11.910  36.967  0.00  0.00    +0.000 NA
ATOM      7  S   UNL     1      14.388  10.665  38.864  0.00  0.00    +0.000 S 
ATOM      8  C   UNL     1      16.076  10.496  38.700  0.00  0.00    +0.000 A 
ATOM      9  C   UNL     1      16.329  11.090  37.497  0.00  0.00    +0.000 A 
ATOM     10  C   UNL     1      17.809  11.061  37.126  0.00  0.00    +0.000 C 
ATOM     11  C   UNL     1      18.191   9.592  37.231  0.00  0.00    +0.000 C 
ATOM     12  C   UNL     1      18.022   9.042  38.606  0.00  0.00    +0.000 C 
ATOM     13  C   UNL     1      17.197   9.895  39.519  0.00  0.00    +0.000 C 
ENDBRANCH   2   4
BRANCH   1  19
ATOM     14  C   UNL     1      14.219  13.410  32.699  0.00  0.00    +0.000 A 
ATOM     15  C   UNL     1      14.312  14.051  31.487  0.00  0.00    +0.000 A 
ATOM     16  C   UNL     1      15.274  13.632  30.565  0.00  0.00    +0.000 A 
ATOM     17  C   UNL     1      16.097  12.581  30.914  0.00  0.00    +0.000 A 
ATOM     18  C   UNL     1      15.998  11.936  32.144  0.00  0.00    +0.000 A 
ATOM     19  C   UNL     1      15.043  12.362  33.043  0.00  0.00    +0.000 A 
BRANCH  14  21
ATOM     20  C   UNL     1      13.172  15.193  34.019  0.00  0.00    +0.000 C 
ATOM     21  O   UNL     1      13.254  13.842  33.605  0.00  0.00    +0.000 OA
ENDBRANCH  14  21
ENDBRANCH   1  19
TORSDOF 3
ENDMDL
MODEL 2
REMARK VINA RESULT:      -6.9      1.140      2.080
REMARK  Name = 
REMARK  3 active torsions:
REMARK  status: ('A' for Active; 'I' for Inactive)
REMARK    1  A    between atoms: O_2  and  C_3
REMARK    2  A    between atoms: C_8  and  N_9
REMARK    3  A    between atoms: C_10  and  C_12
REMARK                            x       y       z     vdW  Elec       q    Type
REMARK                         _______ _______ _______ _____ _____    ______ ____
ROOT
ATOM      1  N   UNL     1      14.804  11.494  34.780  0.00  0.00    +0.000 NA
ATOM      2  C   UNL     1      15.363  12.054  35.939  0.00  0.00    +0.000 C 
ATOM      3  O   UNL     1      15.921  13.160  35.867  0.00  0.00    +0.000 OA
ENDROOT
BRANCH   2   4
ATOM      4  C   UNL     1      15.311  11.370  37.261  0.00  0.00    +0.000 A 
ATOM      5  C   UNL     1      14.132  11.209  37.925  0.00  0.00    +0.000 A 
ATOM      6  N   UNL     1      12.817  11.611  37.556  0.00  0.00    +0.000 NA
ATOM      7  S   UNL     1      14.581  10.396  39.344  0.00  0.00    +0.000 S 
ATOM      8  C   UNL     1      16.259  10.268  39.079  0.00  0.00    +0.000 A 
ATOM      9  C   UNL     1      16.427  10.875  37.868  0.00  0.00    +0.000 A 
ATOM     10  C   UNL     1      17.882  10.884  37.410  0.00  0.00    +0.000 C 
ATOM     11  C   UNL     1      18.304   9.424  37.481  0.00  0.00    +0.000 C 
ATOM     12  C   UNL     1      18.231   8.863  38.860  0.00  0.00    +0.000 C 
ATOM     13  C   UNL     1      17.441   9.690  39.826  0.00  0.00    +0.000 C 
ENDBRANCH   2   4
BRANCH   1  19
ATOM     14  C   UNL     1      15.642  11.645  32.499  0.00  0.00    +0.000 A 
ATOM     15  C   UNL     1      15.714  12.236  31.261  0.00  0.00    +0.000 A 
ATOM     16  C   UNL     1      14.956  13.382  31.006  0.00  0.00    +0.000 A 
ATOM     17  C   UNL     1      14.161  13.875  32.019  0.00  0.00    +0.000 A 
ATOM     18  C   UNL     1      14.093  13.272  33.271  0.00  0.00    +0.000 A 
ATOM     19  C   UNL     1      14.847  12.141  33.507  0.00  0.00    +0.000 A 
BRANCH  14  21
ATOM     20  C   UNL     1      17.595  10.548  33.500  0.00  0.00    +0.000 C 
ATOM     21  O   UNL     1      16.405  10.503  32.734  0.00  0.00    +0.000 OA
ENDBRANCH  14  21
ENDBRANCH   1  19
TORSDOF 3
ENDMDL
MODEL 3
REMARK VINA RESULT:      -6.2     17.962     20.427
REMARK  Name = 
REMARK  3 active torsions:
REMARK  status: ('A' for Active; 'I' for Inactive)
REMARK    1  A    between atoms: O_2  and  C_3
REMARK    2  A    between atoms: C_8  and  N_9
REMARK    3  A    between atoms: C_10  and  C_12
REMARK                            x       y       z     vdW  Elec       q    Type
REMARK                         _______ _______ _______ _____ _____    ______ ____
ROOT
ATOM      1  N   UNL     1      29.452  23.442  27.372  0.00  0.00    +0.000 NA
ATOM      2  C   UNL     1      28.365  22.754  26.812  0.00  0.00    +0.000 C 
ATOM      3  O   UNL     1      28.100  21.610  27.215  0.00  0.00    +0.000 OA
ENDROOT
BRANCH   2   4
ATOM      4  C   UNL     1      27.509  23.347  25.746  0.00  0.00    +0.000 A 
ATOM      5  C   UNL     1      26.286  23.872  26.036  0.00  0.00    +0.000 A 
ATOM      6  N   UNL     1      25.610  23.970  27.285  0.00  0.00    +0.000 NA
ATOM      7  S   UNL     1      25.714  24.407  24.531  0.00  0.00    +0.000 S 
ATOM      8  C   UNL     1      27.034  23.958  23.551  0.00  0.00    +0.000 A 
ATOM      9  C   UNL     1      27.900  23.393  24.441  0.00  0.00    +0.000 A 
ATOM     10  C   UNL     1      29.186  22.903  23.782  0.00  0.00    +0.000 C 
ATOM     11  C   UNL     1      29.709  24.121  23.034  0.00  0.00    +0.000 C 
ATOM     12  C   UNL     1      28.772  24.603  21.979  0.00  0.00    +0.000 C 
ATOM     13  C   UNL     1      27.384  24.053  22.082  0.00  0.00    +0.000 C 
ENDBRANCH   2   4
BRANCH   1  19
ATOM     14  C   UNL     1      29.951  23.049  29.722  0.00  0.00    +0.000 A 
ATOM     15  C   UNL     1      30.717  22.531  30.738  0.00  0.00    +0.000 A 
ATOM     16  C   UNL     1      31.872  21.810  30.424  0.00  0.00    +0.000 A 
ATOM     17  C   UNL     1      32.196  21.649  29.092  0.00  0.00    +0.000 A 
ATOM     18  C   UNL     1      31.415  22.176  28.068  0.00  0.00    +0.000 A 
ATOM     19  C   UNL     1      30.279  22.885  28.395  0.00  0.00    +0.000 A 
BRANCH  14  21
ATOM     20  C   UNL     1      27.614  23.116  30.467  0.00  0.00    +0.000 C 
ATOM     21  O   UNL     1      28.803  23.765  30.056  0.00  0.00    +0.000 OA
ENDBRANCH  14  21
ENDBRANCH   1  19
TORSDOF 3
ENDMDL
MODEL 4
REMARK VINA RESULT:      -6.2      3.154      4.797
REMARK  Name = 
REMARK  3 active torsions:
REMARK  status: ('A' for Active; 'I' for Inactive)
REMARK    1  A    between atoms: O_2  and  C_3
REMARK    2  A    between atoms: C_8  and  N_9
REMARK    3  A    between atoms: C_10  and  C_12
REMARK                            x       y       z     vdW  Elec       q    Type
REMARK                         _______ _______ _______ _____ _____    ______ ____
ROOT
ATOM      1  N   UNL     1      17.431   9.795  36.988  0.00  0.00    +0.000 NA
ATOM      2  C   UNL     1      18.225  10.407  37.969  0.00  0.00    +0.000 C 
ATOM      3  O   UNL     1      18.371  11.640  37.946  0.00  0.00    +0.000 OA
ENDROOT
BRANCH   2   4
ATOM      4  C   UNL     1      18.903   9.633  39.045  0.00  0.00    +0.000 A 
ATOM      5  C   UNL     1      20.246   9.409  39.012  0.00  0.00    +0.000 A 
ATOM      6  N   UNL     1      21.214   9.815  38.050  0.00  0.00    +0.000 NA
ATOM      7  S   UNL     1      20.535   8.504  40.418  0.00  0.00    +0.000 S 
ATOM      8  C   UNL     1      18.948   8.420  41.032  0.00  0.00    +0.000 A 
ATOM      9  C   UNL     1      18.223   9.113  40.107  0.00  0.00    +0.000 A 
ATOM     10  C   UNL     1      16.738   9.175  40.449  0.00  0.00    +0.000 C 
ATOM     11  C   UNL     1      16.704   9.731  41.865  0.00  0.00    +0.000 C 
ATOM     12  C   UNL     1      17.396   8.853  42.852  0.00  0.00    +0.000 C 
ATOM     13  C   UNL     1      18.278   7.808  42.242  0.00  0.00    +0.000 C 
ENDBRANCH   2   4
BRANCH   1  19
ATOM     14  C   UNL     1      15.581  11.166  36.199  0.00  0.00    +0.000 A 
ATOM     15  C   UNL     1      14.915  11.881  35.233  0.00  0.00    +0.000 A 
ATOM     16  C   UNL     1      15.462  11.968  33.950  0.00  0.00    +0.000 A 
ATOM     17  C   UNL     1      16.658  11.325  33.707  0.00  0.00    +0.000 A 
ATOM     18  C   UNL     1      17.327  10.603  34.691  0.00  0.00    +0.000 A 
ATOM     19  C   UNL     1      16.775  10.527  35.952  0.00  0.00    +0.000 A 
BRANCH  14  21
ATOM     20  C   UNL     1      13.647  11.350  37.698  0.00  0.00    +0.000 C 
ATOM     21  O   UNL     1      15.020  11.091  37.472  0.00  0.00    +0.000 OA
ENDBRANCH  14  21
ENDBRANCH   1  19
TORSDOF 3
ENDMDL
MODEL 5
REMARK VINA RESULT:      -6.1     18.271     19.719
REMARK  Name = 
REMARK  3 active torsions:
REMARK  status: ('A' for Active; 'I' for Inactive)
REMARK    1  A    between atoms: O_2  and  C_3
REMARK    2  A    between atoms: C_8  and  N_9
REMARK    3  A    between atoms: C_10  and  C_12
REMARK                            x       y       z     vdW  Elec       q    Type
REMARK                         _______ _______ _______ _____ _____    ______ ____
ROOT
ATOM      1  N   UNL     1      28.904  22.313  27.143  0.00  0.00    +0.000 NA
ATOM      2  C   UNL     1      29.315  23.261  28.092  0.00  0.00    +0.000 C 
ATOM      3  O   UNL     1      29.313  24.464  27.786  0.00  0.00    +0.000 OA
ENDROOT
BRANCH   2   4
ATOM      4  C   UNL     1      29.756  22.878  29.463  0.00  0.00    +0.000 A 
ATOM      5  C   UNL     1      28.853  22.681  30.464  0.00  0.00    +0.000 A 
ATOM      6  N   UNL     1      27.433  22.783  30.442  0.00  0.00    +0.000 NA
ATOM      7  S   UNL     1      29.818  22.274  31.798  0.00  0.00    +0.000 S 
ATOM      8  C   UNL     1      31.356  22.358  31.071  0.00  0.00    +0.000 A 
ATOM      9  C   UNL     1      31.070  22.707  29.783  0.00  0.00    +0.000 A 
ATOM     10  C   UNL     1      32.318  22.846  28.918  0.00  0.00    +0.000 C 
ATOM     11  C   UNL     1      33.044  21.520  29.097  0.00  0.00    +0.000 C 
ATOM     12  C   UNL     1      33.453  21.265  30.507  0.00  0.00    +0.000 C 
ATOM     13  C   UNL     1      32.786  22.147  31.517  0.00  0.00    +0.000 C 
ENDBRANCH   2   4
BRANCH   1  19
ATOM     14  C   UNL     1      29.390  22.757  24.799  0.00  0.00    +0.000 A 
ATOM     15  C   UNL     1      29.025  23.096  23.519  0.00  0.00    +0.000 A 
ATOM     16  C   UNL     1      27.682  23.361  23.239  0.00  0.00    +0.000 A 
ATOM     17  C   UNL     1      26.772  23.271  24.272  0.00  0.00    +0.000 A 
ATOM     18  C   UNL     1      27.149  22.928  25.567  0.00  0.00    +0.000 A 
ATOM     19  C   UNL     1      28.478  22.668  25.827  0.00  0.00    +0.000 A 
BRANCH  14  21
ATOM     20  C   UNL     1      31.739  23.464  24.823  0.00  0.00    +0.000 C 
ATOM     21  O   UNL     1      30.734  22.496  25.058  0.00  0.00    +0.000 OA
ENDBRANCH  14  21
ENDBRANCH   1  19
TORSDOF 3
ENDMDL
MODEL 6
REMARK VINA RESULT:      -6.0     22.338     23.694
REMARK  Name = 
REMARK  3 active torsions:
REMARK  status: ('A' for Active; 'I' for Inactive)
REMARK    1  A    between atoms: O_2  and  C_3
REMARK    2  A    between atoms: C_8  and  N_9
REMARK    3  A    between atoms: C_10  and  C_12
REMARK                            x       y       z     vdW  Elec       q    Type
REMARK                         _______ _______ _______ _____ _____    ______ ____
ROOT
ATOM      1  N   UNL     1      22.272  -7.524  25.555  0.00  0.00    +0.000 NA
ATOM      2  C   UNL     1      20.957  -7.764  25.128  0.00  0.00    +0.000 C 
ATOM      3  O   UNL     1      20.759  -8.141  23.962  0.00  0.00    +0.000 OA
ENDROOT
BRANCH   2   4
ATOM      4  C   UNL     1      19.781  -7.583  26.024  0.00  0.00    +0.000 A 
ATOM      5  C   UNL     1      19.207  -6.359  26.195  0.00  0.00    +0.000 A 
ATOM      6  N   UNL     1      19.555  -5.103  25.623  0.00  0.00    +0.000 NA
ATOM      7  S   UNL     1      17.939  -6.660  27.281  0.00  0.00    +0.000 S 
ATOM      8  C   UNL     1      18.151  -8.336  27.505  0.00  0.00    +0.000 A 
ATOM      9  C   UNL     1      19.224  -8.620  26.713  0.00  0.00    +0.000 A 
ATOM     10  C   UNL     1      19.611 -10.095  26.750  0.00  0.00    +0.000 C 
ATOM     11  C   UNL     1      18.323 -10.827  26.404  0.00  0.00    +0.000 C 
ATOM     12  C   UNL     1      17.231 -10.584  27.389  0.00  0.00    +0.000 C 
ATOM     13  C   UNL     1      17.469  -9.424  28.306  0.00  0.00    +0.000 C 
ENDBRANCH   2   4
BRANCH   1  19
ATOM     14  C   UNL     1      23.927  -8.950  24.482  0.00  0.00    +0.000 A 
ATOM     15  C   UNL     1      25.018  -9.161  23.673  0.00  0.00    +0.000 A 
ATOM     16  C   UNL     1      25.627  -8.068  23.050  0.00  0.00    +0.000 A 
ATOM     17  C   UNL     1      25.102  -6.813  23.277  0.00  0.00    +0.000 A 
ATOM     18  C   UNL     1      23.997  -6.607  24.098  0.00  0.00    +0.000 A 
ATOM     19  C   UNL     1      23.407  -7.695  24.705  0.00  0.00    +0.000 A 
BRANCH  14  21
ATOM     20  C   UNL     1      24.011 -10.812  26.077  0.00  0.00    +0.000 C 
ATOM     21  O   UNL     1      23.334 -10.052  25.095  0.00  0.00    +0.000 OA
ENDBRANCH  14  21
ENDBRANCH   1  19
TORSDOF 3
ENDMDL
MODEL 7
REMARK VINA RESULT:      -6.0     18.335     19.462
REMARK  Name = 
REMARK  3 active torsions:
REMARK  status: ('A' for Active; 'I' for Inactive)
REMARK    1  A    between atoms: O_2  and  C_3
REMARK    2  A    between atoms: C_8  and  N_9
REMARK    3  A    between atoms: C_10  and  C_12
REMARK                            x       y       z     vdW  Elec       q    Type
REMARK                         _______ _______ _______ _____ _____    ______ ____
ROOT
ATOM      1  N   UNL     1      26.398  25.025  25.959  0.00  0.00    +0.000 NA
ATOM      2  C   UNL     1      26.677  23.709  25.558  0.00  0.00    +0.000 C 
ATOM      3  O   UNL     1      25.735  22.949  25.281  0.00  0.00    +0.000 OA
ENDROOT
BRANCH   2   4
ATOM      4  C   UNL     1      28.066  23.185  25.449  0.00  0.00    +0.000 A 
ATOM      5  C   UNL     1      28.663  23.017  24.235  0.00  0.00    +0.000 A 
ATOM      6  N   UNL     1      28.157  23.274  22.929  0.00  0.00    +0.000 NA
ATOM      7  S   UNL     1      30.199  22.412  24.625  0.00  0.00    +0.000 S 
ATOM      8  C   UNL     1      30.067  22.379  26.323  0.00  0.00    +0.000 A 
ATOM      9  C   UNL     1      28.806  22.850  26.544  0.00  0.00    +0.000 A 
ATOM     10  C   UNL     1      28.451  22.913  28.026  0.00  0.00    +0.000 C 
ATOM     11  C   UNL     1      29.578  23.728  28.645  0.00  0.00    +0.000 C 
ATOM     12  C   UNL     1      30.914  23.086  28.490  0.00  0.00    +0.000 C 
ATOM     13  C   UNL     1      30.960  21.982  27.479  0.00  0.00    +0.000 C 
ENDBRANCH   2   4
BRANCH   1  19
ATOM     14  C   UNL     1      24.379  25.444  27.254  0.00  0.00    +0.000 A 
ATOM     15  C   UNL     1      23.100  25.923  27.401  0.00  0.00    +0.000 A 
ATOM     16  C   UNL     1      22.469  26.531  26.313  0.00  0.00    +0.000 A 
ATOM     17  C   UNL     1      23.165  26.624  25.125  0.00  0.00    +0.000 A 
ATOM     18  C   UNL     1      24.461  26.136  24.983  0.00  0.00    +0.000 A 
ATOM     19  C   UNL     1      25.070  25.538  26.066  0.00  0.00    +0.000 A 
BRANCH  14  21
ATOM     20  C   UNL     1      25.263  25.558  29.540  0.00  0.00    +0.000 C 
ATOM     21  O   UNL     1      24.992  24.840  28.350  0.00  0.00    +0.000 OA
ENDBRANCH  14  21
ENDBRANCH   1  19
TORSDOF 3
ENDMDL
MODEL 8
REMARK VINA RESULT:      -6.0     18.449     20.854
REMARK  Name = 
REMARK  3 active torsions:
REMARK  status: ('A' for Active; 'I' for Inactive)
REMARK    1  A    between atoms: O_2  and  C_3
REMARK    2  A    between atoms: C_8  and  N_9
REMARK    3  A    between atoms: C_10  and  C_12
REMARK                            x       y       z     vdW  Elec       q    Type
REMARK                         _______ _______ _______ _____ _____    ______ ____
ROOT
ATOM      1  N   UNL     1      30.672  23.371  27.686  0.00  0.00    +0.000 NA
ATOM      2  C   UNL     1      30.071  22.655  26.640  0.00  0.00    +0.000 C 
ATOM      3  O   UNL     1      29.880  21.436  26.773  0.00  0.00    +0.000 OA
ENDROOT
BRANCH   2   4
ATOM      4  C   UNL     1      29.649  23.305  25.368  0.00  0.00    +0.000 A 
ATOM      5  C   UNL     1      30.541  23.534  24.364  0.00  0.00    +0.000 A 
ATOM      6  N   UNL     1      31.932  23.240  24.298  0.00  0.00    +0.000 NA
ATOM      7  S   UNL     1      29.605  24.275  23.159  0.00  0.00    +0.000 S 
ATOM      8  C   UNL     1      28.092  24.286  23.942  0.00  0.00    +0.000 A 
ATOM      9  C   UNL     1      28.363  23.700  25.144  0.00  0.00    +0.000 A 
ATOM     10  C   UNL     1      27.133  23.596  26.040  0.00  0.00    +0.000 C 
ATOM     11  C   UNL     1      26.102  22.885  25.177  0.00  0.00    +0.000 C 
ATOM     12  C   UNL     1      25.746  23.647  23.947  0.00  0.00    +0.000 C 
ATOM     13  C   UNL     1      26.693  24.756  23.607  0.00  0.00    +0.000 C 
ENDBRANCH   2   4
BRANCH   1  19
ATOM     14  C   UNL     1      30.225  22.721  29.989  0.00  0.00    +0.000 A 
ATOM     15  C   UNL     1      30.576  22.144  31.185  0.00  0.00    +0.000 A 
ATOM     16  C   UNL     1      31.844  21.572  31.322  0.00  0.00    +0.000 A 
ATOM     17  C   UNL     1      32.697  21.614  30.239  0.00  0.00    +0.000 A 
ATOM     18  C   UNL     1      32.335  22.200  29.030  0.00  0.00    +0.000 A 
ATOM     19  C   UNL     1      31.080  22.759  28.910  0.00  0.00    +0.000 A 
BRANCH  14  21
ATOM     20  C   UNL     1      27.795  22.487  29.750  0.00  0.00    +0.000 C 
ATOM     21  O   UNL     1      28.957  23.285  29.872  0.00  0.00    +0.000 OA
ENDBRANCH  14  21
ENDBRANCH   1  19
TORSDOF 3
ENDMDL
MODEL 9
REMARK VINA RESULT:      -6.0     23.836     26.200
REMARK  Name = 
REMARK  3 active torsions:
REMARK  status: ('A' for Active; 'I' for Inactive)
REMARK    1  A    between atoms: O_2  and  C_3
REMARK    2  A    between atoms: C_8  and  N_9
REMARK    3  A    between atoms: C_10  and  C_12
REMARK                            x       y       z     vdW  Elec       q    Type
REMARK                         _______ _______ _______ _____ _____    ______ ____
ROOT
ATOM      1  N   UNL     1      34.998  -5.483  31.715  0.00  0.00    +0.000 NA
ATOM      2  C   UNL     1      34.194  -5.525  32.864  0.00  0.00    +0.000 C 
ATOM      3  O   UNL     1      33.104  -6.117  32.818  0.00  0.00    +0.000 OA
ENDROOT
BRANCH   2   4
ATOM      4  C   UNL     1      34.600  -4.883  34.145  0.00  0.00    +0.000 A 
ATOM      5  C   UNL     1      35.457  -5.504  35.004  0.00  0.00    +0.000 A 
ATOM      6  N   UNL     1      36.097  -6.771  34.893  0.00  0.00    +0.000 NA
ATOM      7  S   UNL     1      35.605  -4.404  36.286  0.00  0.00    +0.000 S 
ATOM      8  C   UNL     1      34.578  -3.168  35.719  0.00  0.00    +0.000 A 
ATOM      9  C   UNL     1      34.140  -3.657  34.522  0.00  0.00    +0.000 A 
ATOM     10  C   UNL     1      33.185  -2.703  33.811  0.00  0.00    +0.000 C 
ATOM     11  C   UNL     1      33.949  -1.389  33.747  0.00  0.00    +0.000 C 
ATOM     12  C   UNL     1      34.275  -0.838  35.093  0.00  0.00    +0.000 C 
ATOM     13  C   UNL     1      34.121  -1.815  36.218  0.00  0.00    +0.000 C 
ENDBRANCH   2   4
BRANCH   1  19
ATOM     14  C   UNL     1      34.998  -7.390  30.201  0.00  0.00    +0.000 A 
ATOM     15  C   UNL     1      34.658  -8.017  29.027  0.00  0.00    +0.000 A 
ATOM     16  C   UNL     1      33.901  -7.326  28.077  0.00  0.00    +0.000 A 
ATOM     17  C   UNL     1      33.526  -6.029  28.362  0.00  0.00    +0.000 A 
ATOM     18  C   UNL     1      33.874  -5.399  29.553  0.00  0.00    +0.000 A 
ATOM     19  C   UNL     1      34.621  -6.095  30.481  0.00  0.00    +0.000 A 
BRANCH  14  21
ATOM     20  C   UNL     1      35.185  -9.120  31.930  0.00  0.00    +0.000 C 
ATOM     21  O   UNL     1      35.752  -8.096  31.136  0.00  0.00    +0.000 OA
ENDBRANCH  14  21
ENDBRANCH   1  19
TORSDOF 3
ENDMDL
MODEL 10
REMARK VINA RESULT:      -5.9     18.007     19.935
REMARK  Name = 
REMARK  3 active torsions:
REMARK  status: ('A' for Active; 'I' for Inactive)
REMARK    1  A    between atoms: O_2  and  C_3
REMARK    2  A    between atoms: C_8  and  N_9
REMARK    3  A    between atoms: C_10  and  C_12
REMARK                            x       y       z     vdW  Elec       q    Type
REMARK                         _______ _______ _______ _____ _____    ______ ____
ROOT
ATOM      1  N   UNL     1      28.578  24.716  25.441  0.00  0.00    +0.000 NA
ATOM      2  C   UNL     1      28.720  23.462  26.054  0.00  0.00    +0.000 C 
ATOM      3  O   UNL     1      28.851  22.453  25.343  0.00  0.00    +0.000 OA
ENDROOT
BRANCH   2   4
ATOM      4  C   UNL     1      28.720  23.293  27.534  0.00  0.00    +0.000 A 
ATOM      5  C   UNL     1      29.870  23.022  28.212  0.00  0.00    +0.000 A 
ATOM      6  N   UNL     1      31.197  22.856  27.723  0.00  0.00    +0.000 NA
ATOM      7  S   UNL     1      29.367  22.919  29.829  0.00  0.00    +0.000 S 
ATOM      8  C   UNL     1      27.702  23.221  29.626  0.00  0.00    +0.000 A 
ATOM      9  C   UNL     1      27.583  23.397  28.279  0.00  0.00    +0.000 A 
ATOM     10  C   UNL     1      26.149  23.686  27.847  0.00  0.00    +0.000 C 
ATOM     11  C   UNL     1      25.732  24.871  28.707  0.00  0.00    +0.000 C 
ATOM     12  C   UNL     1      25.751  24.567  30.166  0.00  0.00    +0.000 C 
ATOM     13  C   UNL     1      26.494  23.319  30.531  0.00  0.00    +0.000 C 
ENDBRANCH   2   4
BRANCH   1  19
ATOM     14  C   UNL     1      27.401  24.820  23.313  0.00  0.00    +0.000 A 
ATOM     15  C   UNL     1      27.354  24.982  21.950  0.00  0.00    +0.000 A 
ATOM     16  C   UNL     1      28.539  25.228  21.250  0.00  0.00    +0.000 A 
ATOM     17  C   UNL     1      29.716  25.298  21.967  0.00  0.00    +0.000 A 
ATOM     18  C   UNL     1      29.755  25.134  23.348  0.00  0.00    +0.000 A 
ATOM     19  C   UNL     1      28.578  24.892  24.024  0.00  0.00    +0.000 A 
BRANCH  14  21
ATOM     20  C   UNL     1      25.565  23.317  23.936  0.00  0.00    +0.000 C 
ATOM     21  O   UNL     1      26.210  24.576  23.993  0.00  0.00    +0.000 OA
ENDBRANCH  14  21
ENDBRANCH   1  19
TORSDOF 3
ENDMDL
