MODEL 1
REMARK VINA RESULT:      -5.8      0.000      0.000
REMARK  Name = 
REMARK  4 active torsions:
REMARK  status: ('A' for Active; 'I' for Inactive)
REMARK    1  A    between atoms: O_2  and  C_3
REMARK    2  A    between atoms: C_6  and  C_7
REMARK    3  A    between atoms: C_7  and  C_8
REMARK    4  A    between atoms: C_7  and  C_15
REMARK                            x       y       z     vdW  Elec       q    Type
REMARK                         _______ _______ _______ _____ _____    ______ ____
ROOT
ATOM      1  C   UNL     1      27.701  22.713  24.653  0.00  0.00    +0.000 C 
ENDROOT
BRANCH   1   2
ATOM      2  C   UNL     1      27.092  23.083  26.056  0.00  0.00    +0.000 A 
ATOM      3  C   UNL     1      26.021  23.805  26.280  0.00  0.00    +0.000 A 
ATOM      4  C   UNL     1      25.571  24.072  27.542  0.00  0.00    +0.000 A 
ATOM      5  C   UNL     1      26.243  23.580  28.631  0.00  0.00    +0.000 A 
ATOM      6  O   UNL     1      25.790  23.846  29.950  0.00  0.00    +0.000 OA
ATOM      7  C   UNL     1      27.372  22.816  28.435  0.00  0.00    +0.000 A 
ATOM      8  C   UNL     1      27.792  22.570  27.142  0.00  0.00    +0.000 A 
ENDBRANCH   1   2
BRANCH   1  12
ATOM      9  C   UNL     1      31.600  24.563  25.092  0.00  0.00    +0.000 A 
ATOM     10  C   UNL     1      31.473  23.294  24.570  0.00  0.00    +0.000 A 
ATOM     11  C   UNL     1      30.200  22.721  24.437  0.00  0.00    +0.000 A 
ATOM     12  C   UNL     1      29.101  23.432  24.830  0.00  0.00    +0.000 A 
ATOM     13  C   UNL     1      29.179  24.675  25.344  0.00  0.00    +0.000 A 
ATOM     14  C   UNL     1      30.462  25.228  25.468  0.00  0.00    +0.000 A 
BRANCH   9  16
ATOM     15  C   UNL     1      34.016  24.409  24.751  0.00  0.00    +0.000 C 
ATOM     16  O   UNL     1      32.873  25.103  25.211  0.00  0.00    +0.000 OA
ENDBRANCH   9  16
ENDBRANCH   1  12
BRANCH   1  17
ATOM     17  C   UNL     1      26.963  23.828  23.729  0.00  0.00    +0.000 C 
ATOM     18 CL   UNL     1      26.929  25.388  24.427  0.00  0.00    +0.000 Cl
ATOM     19 CL   UNL     1      27.938  23.759  22.241  0.00  0.00    +0.000 Cl
ATOM     20 CL   UNL     1      25.334  23.155  23.414  0.00  0.00    +0.000 Cl
ENDBRANCH   1  17
TORSDOF 4
ENDMDL
MODEL 2
REMARK VINA RESULT:      -5.8      2.906      4.840
REMARK  Name = 
REMARK  4 active torsions:
REMARK  status: ('A' for Active; 'I' for Inactive)
REMARK    1  A    between atoms: O_2  and  C_3
REMARK    2  A    between atoms: C_6  and  C_7
REMARK    3  A    between atoms: C_7  and  C_8
REMARK    4  A    between atoms: C_7  and  C_15
REMARK                            x       y       z     vdW  Elec       q    Type
REMARK                         _______ _______ _______ _____ _____    ______ ____
ROOT
ATOM      1  C   UNL     1      27.943  25.013  25.864  0.00  0.00    +0.000 C 
ENDROOT
BRANCH   1   2
ATOM      2  C   UNL     1      28.393  24.848  24.365  0.00  0.00    +0.000 A 
ATOM      3  C   UNL     1      28.290  23.767  23.630  0.00  0.00    +0.000 A 
ATOM      4  C   UNL     1      28.712  23.725  22.330  0.00  0.00    +0.000 A 
ATOM      5  C   UNL     1      29.267  24.836  21.749  0.00  0.00    +0.000 A 
ATOM      6  O   UNL     1      29.710  24.810  20.402  0.00  0.00    +0.000 OA
ATOM      7  C   UNL     1      29.391  25.990  22.492  0.00  0.00    +0.000 A 
ATOM      8  C   UNL     1      28.951  25.989  23.801  0.00  0.00    +0.000 A 
ENDBRANCH   1   2
BRANCH   1  12
ATOM      9  C   UNL     1      30.800  22.369  27.778  0.00  0.00    +0.000 A 
ATOM     10  C   UNL     1      29.761  22.925  28.492  0.00  0.00    +0.000 A 
ATOM     11  C   UNL     1      28.850  23.774  27.848  0.00  0.00    +0.000 A 
ATOM     12  C   UNL     1      29.009  24.040  26.516  0.00  0.00    +0.000 A 
ATOM     13  C   UNL     1      30.010  23.518  25.780  0.00  0.00    +0.000 A 
ATOM     14  C   UNL     1      30.909  22.671  26.446  0.00  0.00    +0.000 A 
BRANCH   9  16
ATOM     15  C   UNL     1      32.439  21.986  29.552  0.00  0.00    +0.000 C 
ATOM     16  O   UNL     1      31.685  21.533  28.445  0.00  0.00    +0.000 OA
ENDBRANCH   9  16
ENDBRANCH   1  12
BRANCH   1  17
ATOM     17  C   UNL     1      26.658  24.018  25.877  0.00  0.00    +0.000 C 
ATOM     18 CL   UNL     1      27.068  22.360  25.804  0.00  0.00    +0.000 Cl
ATOM     19 CL   UNL     1      25.877  24.468  27.412  0.00  0.00    +0.000 Cl
ATOM     20 CL   UNL     1      25.646  24.561  24.503  0.00  0.00    +0.000 Cl
ENDBRANCH   1  17
TORSDOF 4
ENDMDL
MODEL 3
REMARK VINA RESULT:      -5.8      2.761      3.873
REMARK  Name = 
REMARK  4 active torsions:
REMARK  status: ('A' for Active; 'I' for Inactive)
REMARK    1  A    between atoms: O_2  and  C_3
REMARK    2  A    between atoms: C_6  and  C_7
REMARK    3  A    between atoms: C_7  and  C_8
REMARK    4  A    between atoms: C_7  and  C_15
REMARK                            x       y       z     vdW  Elec       q    Type
REMARK                         _______ _______ _______ _____ _____    ______ ____
ROOT
ATOM      1  C   UNL     1      27.237  23.286  25.115  0.00  0.00    +0.000 C 
ENDROOT
BRANCH   1   2
ATOM      2  C   UNL     1      28.535  22.916  25.923  0.00  0.00    +0.000 A 
ATOM      3  C   UNL     1      29.744  22.765  25.438  0.00  0.00    +0.000 A 
ATOM      4  C   UNL     1      30.812  22.440  26.227  0.00  0.00    +0.000 A 
ATOM      5  C   UNL     1      30.643  22.261  27.575  0.00  0.00    +0.000 A 
ATOM      6  O   UNL     1      31.740  21.924  28.410  0.00  0.00    +0.000 OA
ATOM      7  C   UNL     1      29.387  22.412  28.121  0.00  0.00    +0.000 A 
ATOM      8  C   UNL     1      28.335  22.740  27.287  0.00  0.00    +0.000 A 
ENDBRANCH   1   2
BRANCH   1  12
ATOM      9  C   UNL     1      29.111  24.857  21.532  0.00  0.00    +0.000 A 
ATOM     10  C   UNL     1      28.198  23.828  21.460  0.00  0.00    +0.000 A 
ATOM     11  C   UNL     1      27.605  23.341  22.635  0.00  0.00    +0.000 A 
ATOM     12  C   UNL     1      27.945  23.896  23.837  0.00  0.00    +0.000 A 
ATOM     13  C   UNL     1      28.833  24.903  23.953  0.00  0.00    +0.000 A 
ATOM     14  C   UNL     1      29.413  25.374  22.765  0.00  0.00    +0.000 A 
BRANCH   9  16
ATOM     15  C   UNL     1      29.707  26.694  20.034  0.00  0.00    +0.000 C 
ATOM     16  O   UNL     1      29.681  25.317  20.353  0.00  0.00    +0.000 OA
ENDBRANCH   9  16
ENDBRANCH   1  12
BRANCH   1  17
ATOM     17  C   UNL     1      26.834  24.673  25.861  0.00  0.00    +0.000 C 
ATOM     18 CL   UNL     1      28.173  25.538  26.479  0.00  0.00    +0.000 Cl
ATOM     19 CL   UNL     1      25.992  25.546  24.558  0.00  0.00    +0.000 Cl
ATOM     20 CL   UNL     1      25.657  24.188  27.122  0.00  0.00    +0.000 Cl
ENDBRANCH   1  17
TORSDOF 4
ENDMDL
MODEL 4
REMARK VINA RESULT:      -5.8      3.014      5.825
REMARK  Name = 
REMARK  4 active torsions:
REMARK  status: ('A' for Active; 'I' for Inactive)
REMARK    1  A    between atoms: O_2  and  C_3
REMARK    2  A    between atoms: C_6  and  C_7
REMARK    3  A    between atoms: C_7  and  C_8
REMARK    4  A    between atoms: C_7  and  C_15
REMARK                            x       y       z     vdW  Elec       q    Type
REMARK                         _______ _______ _______ _____ _____    ______ ____
ROOT
ATOM      1  C   UNL     1      28.800  22.385  27.262  0.00  0.00    +0.000 C 
ENDROOT
BRANCH   1   2
ATOM      2  C   UNL     1      28.003  22.695  25.941  0.00  0.00    +0.000 A 
ATOM      3  C   UNL     1      26.702  22.794  25.815  0.00  0.00    +0.000 A 
ATOM      4  C   UNL     1      26.103  23.067  24.617  0.00  0.00    +0.000 A 
ATOM      5  C   UNL     1      26.865  23.249  23.491  0.00  0.00    +0.000 A 
ATOM      6  O   UNL     1      26.261  23.533  22.239  0.00  0.00    +0.000 OA
ATOM      7  C   UNL     1      28.236  23.151  23.586  0.00  0.00    +0.000 A 
ATOM      8  C   UNL     1      28.800  22.874  24.816  0.00  0.00    +0.000 A 
ENDBRANCH   1   2
BRANCH   1  12
ATOM      9  C   UNL     1      26.118  24.264  30.107  0.00  0.00    +0.000 A 
ATOM     10  C   UNL     1      26.471  22.939  30.236  0.00  0.00    +0.000 A 
ATOM     11  C   UNL     1      27.343  22.357  29.303  0.00  0.00    +0.000 A 
ATOM     12  C   UNL     1      27.828  23.117  28.276  0.00  0.00    +0.000 A 
ATOM     13  C   UNL     1      27.509  24.415  28.112  0.00  0.00    +0.000 A 
ATOM     14  C   UNL     1      26.637  24.976  29.057  0.00  0.00    +0.000 A 
BRANCH   9  16
ATOM     15  C   UNL     1      24.685  26.093  30.867  0.00  0.00    +0.000 C 
ATOM     16  O   UNL     1      25.255  24.811  31.046  0.00  0.00    +0.000 OA
ENDBRANCH   9  16
ENDBRANCH   1  12
BRANCH   1  17
ATOM     17  C   UNL     1      29.956  23.523  27.160  0.00  0.00    +0.000 C 
ATOM     18 CL   UNL     1      29.412  25.001  26.497  0.00  0.00    +0.000 Cl
ATOM     19 CL   UNL     1      30.456  23.674  28.862  0.00  0.00    +0.000 Cl
ATOM     20 CL   UNL     1      31.267  22.757  26.210  0.00  0.00    +0.000 Cl
ENDBRANCH   1  17
TORSDOF 4
ENDMDL
MODEL 5
REMARK VINA RESULT:      -5.6      2.830      5.691
REMARK  Name = 
REMARK  4 active torsions:
REMARK  status: ('A' for Active; 'I' for Inactive)
REMARK    1  A    between atoms: O_2  and  C_3
REMARK    2  A    between atoms: C_6  and  C_7
REMARK    3  A    between atoms: C_7  and  C_8
REMARK    4  A    between atoms: C_7  and  C_15
REMARK                            x       y       z     vdW  Elec       q    Type
REMARK                         _______ _______ _______ _____ _____    ______ ____
ROOT
ATOM      1  C   UNL     1      29.002  22.510  25.671  0.00  0.00    +0.000 C 
ENDROOT
BRANCH   1   2
ATOM      2  C   UNL     1      28.563  23.576  24.601  0.00  0.00    +0.000 A 
ATOM      3  C   UNL     1      28.443  24.869  24.785  0.00  0.00    +0.000 A 
ATOM      4  C   UNL     1      28.052  25.716  23.786  0.00  0.00    +0.000 A 
ATOM      5  C   UNL     1      27.769  25.225  22.538  0.00  0.00    +0.000 A 
ATOM      6  O   UNL     1      27.363  26.089  21.488  0.00  0.00    +0.000 OA
ATOM      7  C   UNL     1      27.884  23.871  22.307  0.00  0.00    +0.000 A 
ATOM      8  C   UNL     1      28.282  23.051  23.344  0.00  0.00    +0.000 A 
ENDBRANCH   1   2
BRANCH   1  12
ATOM      9  C   UNL     1      26.381  23.643  28.936  0.00  0.00    +0.000 A 
ATOM     10  C   UNL     1      27.581  23.011  29.179  0.00  0.00    +0.000 A 
ATOM     11  C   UNL     1      28.411  22.658  28.104  0.00  0.00    +0.000 A 
ATOM     12  C   UNL     1      28.013  22.946  26.828  0.00  0.00    +0.000 A 
ATOM     13  C   UNL     1      26.848  23.562  26.546  0.00  0.00    +0.000 A 
ATOM     14  C   UNL     1      26.035  23.906  27.636  0.00  0.00    +0.000 A 
BRANCH   9  16
ATOM     15  C   UNL     1      25.354  25.328  30.379  0.00  0.00    +0.000 C 
ATOM     16  O   UNL     1      25.582  23.980  30.020  0.00  0.00    +0.000 OA
ENDBRANCH   9  16
ENDBRANCH   1  12
BRANCH   1  17
ATOM     17  C   UNL     1      30.358  23.216  26.223  0.00  0.00    +0.000 C 
ATOM     18 CL   UNL     1      30.087  24.713  27.003  0.00  0.00    +0.000 Cl
ATOM     19 CL   UNL     1      30.984  21.967  27.327  0.00  0.00    +0.000 Cl
ATOM     20 CL   UNL     1      31.423  23.343  24.789  0.00  0.00    +0.000 Cl
ENDBRANCH   1  17
TORSDOF 4
ENDMDL
MODEL 6
REMARK VINA RESULT:      -5.6      2.931      6.159
REMARK  Name = 
REMARK  4 active torsions:
REMARK  status: ('A' for Active; 'I' for Inactive)
REMARK    1  A    between atoms: O_2  and  C_3
REMARK    2  A    between atoms: C_6  and  C_7
REMARK    3  A    between atoms: C_7  and  C_8
REMARK    4  A    between atoms: C_7  and  C_15
REMARK                            x       y       z     vdW  Elec       q    Type
REMARK                         _______ _______ _______ _____ _____    ______ ____
ROOT
ATOM      1  C   UNL     1      27.320  22.936  25.711  0.00  0.00    +0.000 C 
ENDROOT
BRANCH   1   2
ATOM      2  C   UNL     1      28.063  23.443  24.420  0.00  0.00    +0.000 A 
ATOM      3  C   UNL     1      29.275  23.938  24.355  0.00  0.00    +0.000 A 
ATOM      4  C   UNL     1      29.833  24.354  23.179  0.00  0.00    +0.000 A 
ATOM      5  C   UNL     1      29.123  24.263  22.010  0.00  0.00    +0.000 A 
ATOM      6  O   UNL     1      29.685  24.689  20.779  0.00  0.00    +0.000 OA
ATOM      7  C   UNL     1      27.845  23.748  22.039  0.00  0.00    +0.000 A 
ATOM      8  C   UNL     1      27.320  23.340  23.249  0.00  0.00    +0.000 A 
ENDBRANCH   1   2
BRANCH   1  12
ATOM      9  C   UNL     1      24.960  26.458  26.627  0.00  0.00    +0.000 A 
ATOM     10  C   UNL     1      24.752  25.272  27.297  0.00  0.00    +0.000 A 
ATOM     11  C   UNL     1      25.532  24.149  26.983  0.00  0.00    +0.000 A 
ATOM     12  C   UNL     1      26.488  24.249  26.011  0.00  0.00    +0.000 A 
ATOM     13  C   UNL     1      26.725  25.388  25.331  0.00  0.00    +0.000 A 
ATOM     14  C   UNL     1      25.934  26.498  25.663  0.00  0.00    +0.000 A 
BRANCH   9  16
ATOM     15  C   UNL     1      22.810  27.402  27.308  0.00  0.00    +0.000 C 
ATOM     16  O   UNL     1      24.173  27.551  26.961  0.00  0.00    +0.000 OA
ENDBRANCH   9  16
ENDBRANCH   1  12
BRANCH   1  17
ATOM     17  C   UNL     1      28.505  23.136  26.806  0.00  0.00    +0.000 C 
ATOM     18 CL   UNL     1      28.979  24.764  27.019  0.00  0.00    +0.000 Cl
ATOM     19 CL   UNL     1      27.761  22.439  28.266  0.00  0.00    +0.000 Cl
ATOM     20 CL   UNL     1      29.834  22.076  26.241  0.00  0.00    +0.000 Cl
ENDBRANCH   1  17
TORSDOF 4
ENDMDL
MODEL 7
REMARK VINA RESULT:      -5.6     20.276     22.017
REMARK  Name = 
REMARK  4 active torsions:
REMARK  status: ('A' for Active; 'I' for Inactive)
REMARK    1  A    between atoms: O_2  and  C_3
REMARK    2  A    between atoms: C_6  and  C_7
REMARK    3  A    between atoms: C_7  and  C_8
REMARK    4  A    between atoms: C_7  and  C_15
REMARK                            x       y       z     vdW  Elec       q    Type
REMARK                         _______ _______ _______ _____ _____    ______ ____
ROOT
ATOM      1  C   UNL     1      27.517   4.893  16.962  0.00  0.00    +0.000 C 
ENDROOT
BRANCH   1   2
ATOM      2  C   UNL     1      27.423   5.406  15.477  0.00  0.00    +0.000 A 
ATOM      3  C   UNL     1      26.633   6.347  15.020  0.00  0.00    +0.000 A 
ATOM      4  C   UNL     1      26.626   6.720  13.706  0.00  0.00    +0.000 A 
ATOM      5  C   UNL     1      27.465   6.108  12.811  0.00  0.00    +0.000 A 
ATOM      6  O   UNL     1      27.473   6.484  11.442  0.00  0.00    +0.000 OA
ATOM      7  C   UNL     1      28.310   5.114  13.255  0.00  0.00    +0.000 A 
ATOM      8  C   UNL     1      28.284   4.767  14.591  0.00  0.00    +0.000 A 
ENDBRANCH   1   2
BRANCH   1  12
ATOM      9  C   UNL     1      23.481   3.386  17.469  0.00  0.00    +0.000 A 
ATOM     10  C   UNL     1      24.305   3.583  18.555  0.00  0.00    +0.000 A 
ATOM     11  C   UNL     1      25.605   4.074  18.363  0.00  0.00    +0.000 A 
ATOM     12  C   UNL     1      26.036   4.349  17.095  0.00  0.00    +0.000 A 
ATOM     13  C   UNL     1      25.264   4.172  16.005  0.00  0.00    +0.000 A 
ATOM     14  C   UNL     1      23.968   3.680  16.222  0.00  0.00    +0.000 A 
BRANCH   9  16
ATOM     15  C   UNL     1      21.939   1.512  17.759  0.00  0.00    +0.000 C 
ATOM     16  O   UNL     1      22.200   2.900  17.692  0.00  0.00    +0.000 OA
ENDBRANCH   9  16
ENDBRANCH   1  12
BRANCH   1  17
ATOM     17  C   UNL     1      27.336   6.303  17.751  0.00  0.00    +0.000 C 
ATOM     18 CL   UNL     1      25.783   6.997  17.576  0.00  0.00    +0.000 Cl
ATOM     19 CL   UNL     1      27.690   5.819  19.427  0.00  0.00    +0.000 Cl
ATOM     20 CL   UNL     1      28.654   7.345  17.132  0.00  0.00    +0.000 Cl
ENDBRANCH   1  17
TORSDOF 4
ENDMDL
MODEL 8
REMARK VINA RESULT:      -5.5     15.084     17.093
REMARK  Name = 
REMARK  4 active torsions:
REMARK  status: ('A' for Active; 'I' for Inactive)
REMARK    1  A    between atoms: O_2  and  C_3
REMARK    2  A    between atoms: C_6  and  C_7
REMARK    3  A    between atoms: C_7  and  C_8
REMARK    4  A    between atoms: C_7  and  C_15
REMARK                            x       y       z     vdW  Elec       q    Type
REMARK                         _______ _______ _______ _____ _____    ______ ____
ROOT
ATOM      1  C   UNL     1      31.647  22.158  10.286  0.00  0.00    +0.000 C 
ENDROOT
BRANCH   1   2
ATOM      2  C   UNL     1      31.195  21.542   8.910  0.00  0.00    +0.000 A 
ATOM      3  C   UNL     1      30.656  20.362   8.718  0.00  0.00    +0.000 A 
ATOM      4  C   UNL     1      30.297  19.916   7.477  0.00  0.00    +0.000 A 
ATOM      5  C   UNL     1      30.494  20.709   6.376  0.00  0.00    +0.000 A 
ATOM      6  O   UNL     1      30.127  20.263   5.080  0.00  0.00    +0.000 OA
ATOM      7  C   UNL     1      31.058  21.955   6.539  0.00  0.00    +0.000 A 
ATOM      8  C   UNL     1      31.407  22.367   7.811  0.00  0.00    +0.000 A 
ENDBRANCH   1   2
BRANCH   1  12
ATOM      9  C   UNL     1      35.109  19.671  11.090  0.00  0.00    +0.000 A 
ATOM     10  C   UNL     1      34.459  20.331  12.110  0.00  0.00    +0.000 A 
ATOM     11  C   UNL     1      33.340  21.127  11.822  0.00  0.00    +0.000 A 
ATOM     12  C   UNL     1      32.912  21.236  10.528  0.00  0.00    +0.000 A 
ATOM     13  C   UNL     1      33.517  20.608   9.501  0.00  0.00    +0.000 A 
ATOM     14  C   UNL     1      34.633  19.818   9.814  0.00  0.00    +0.000 A 
BRANCH   9  16
ATOM     15  C   UNL     1      36.893  19.039  12.638  0.00  0.00    +0.000 C 
ATOM     16  O   UNL     1      36.213  18.891  11.407  0.00  0.00    +0.000 OA
ENDBRANCH   9  16
ENDBRANCH   1  12
BRANCH   1  17
ATOM     17  C   UNL     1      30.600  21.410  11.279  0.00  0.00    +0.000 C 
ATOM     18 CL   UNL     1      30.927  19.747  11.501  0.00  0.00    +0.000 Cl
ATOM     19 CL   UNL     1      30.794  22.355  12.776  0.00  0.00    +0.000 Cl
ATOM     20 CL   UNL     1      28.988  21.730  10.568  0.00  0.00    +0.000 Cl
ENDBRANCH   1  17
TORSDOF 4
ENDMDL
MODEL 9
REMARK VINA RESULT:      -5.4      1.893      2.054
REMARK  Name = 
REMARK  4 active torsions:
REMARK  status: ('A' for Active; 'I' for Inactive)
REMARK    1  A    between atoms: O_2  and  C_3
REMARK    2  A    between atoms: C_6  and  C_7
REMARK    3  A    between atoms: C_7  and  C_8
REMARK    4  A    between atoms: C_7  and  C_15
REMARK                            x       y       z     vdW  Elec       q    Type
REMARK                         _______ _______ _______ _____ _____    ______ ____
ROOT
ATOM      1  C   UNL     1      27.345  22.649  25.922  0.00  0.00    +0.000 C 
ENDROOT
BRANCH   1   2
ATOM      2  C   UNL     1      26.503  23.560  26.891  0.00  0.00    +0.000 A 
ATOM      3  C   UNL     1      25.552  24.396  26.552  0.00  0.00    +0.000 A 
ATOM      4  C   UNL     1      24.877  25.146  27.474  0.00  0.00    +0.000 A 
ATOM      5  C   UNL     1      25.183  25.041  28.806  0.00  0.00    +0.000 A 
ATOM      6  O   UNL     1      24.493  25.811  29.777  0.00  0.00    +0.000 OA
ATOM      7  C   UNL     1      26.178  24.172  29.199  0.00  0.00    +0.000 A 
ATOM      8  C   UNL     1      26.835  23.433  28.235  0.00  0.00    +0.000 A 
ENDBRANCH   1   2
BRANCH   1  12
ATOM      9  C   UNL     1      31.314  23.573  27.410  0.00  0.00    +0.000 A 
ATOM     10  C   UNL     1      30.909  22.268  27.238  0.00  0.00    +0.000 A 
ATOM     11  C   UNL     1      29.620  21.997  26.752  0.00  0.00    +0.000 A 
ATOM     12  C   UNL     1      28.784  23.038  26.458  0.00  0.00    +0.000 A 
ATOM     13  C   UNL     1      29.139  24.329  26.611  0.00  0.00    +0.000 A 
ATOM     14  C   UNL     1      30.432  24.574  27.097  0.00  0.00    +0.000 A 
BRANCH   9  16
ATOM     15  C   UNL     1      33.110  23.094  28.997  0.00  0.00    +0.000 C 
ATOM     16  O   UNL     1      32.594  23.808  27.891  0.00  0.00    +0.000 OA
ENDBRANCH   9  16
ENDBRANCH   1  12
BRANCH   1  17
ATOM     17  C   UNL     1      27.320  23.574  24.585  0.00  0.00    +0.000 C 
ATOM     18 CL   UNL     1      27.455  25.248  24.901  0.00  0.00    +0.000 Cl
ATOM     19 CL   UNL     1      28.712  22.929  23.682  0.00  0.00    +0.000 Cl
ATOM     20 CL   UNL     1      25.800  23.128  23.750  0.00  0.00    +0.000 Cl
ENDBRANCH   1  17
TORSDOF 4
ENDMDL
MODEL 10
REMARK VINA RESULT:      -5.4      3.147      4.433
REMARK  Name = 
REMARK  4 active torsions:
REMARK  status: ('A' for Active; 'I' for Inactive)
REMARK    1  A    between atoms: O_2  and  C_3
REMARK    2  A    between atoms: C_6  and  C_7
REMARK    3  A    between atoms: C_7  and  C_8
REMARK    4  A    between atoms: C_7  and  C_15
REMARK                            x       y       z     vdW  Elec       q    Type
REMARK                         _______ _______ _______ _____ _____    ______ ____
ROOT
ATOM      1  C   UNL     1      29.205  24.587  27.771  0.00  0.00    +0.000 C 
ENDROOT
BRANCH   1   2
ATOM      2  C   UNL     1      28.262  23.651  28.615  0.00  0.00    +0.000 A 
ATOM      3  C   UNL     1      28.212  22.342  28.570  0.00  0.00    +0.000 A 
ATOM      4  C   UNL     1      27.353  21.616  29.347  0.00  0.00    +0.000 A 
ATOM      5  C   UNL     1      26.503  22.252  30.213  0.00  0.00    +0.000 A 
ATOM      6  O   UNL     1      25.605  21.516  31.028  0.00  0.00    +0.000 OA
ATOM      7  C   UNL     1      26.527  23.628  30.288  0.00  0.00    +0.000 A 
ATOM      8  C   UNL     1      27.410  24.322  29.485  0.00  0.00    +0.000 A 
ENDBRANCH   1   2
BRANCH   1  12
ATOM      9  C   UNL     1      27.966  23.453  23.772  0.00  0.00    +0.000 A 
ATOM     10  C   UNL     1      29.156  24.113  23.984  0.00  0.00    +0.000 A 
ATOM     11  C   UNL     1      29.534  24.465  25.288  0.00  0.00    +0.000 A 
ATOM     12  C   UNL     1      28.710  24.149  26.332  0.00  0.00    +0.000 A 
ATOM     13  C   UNL     1      27.538  23.504  26.171  0.00  0.00    +0.000 A 
ATOM     14  C   UNL     1      27.182  23.161  24.857  0.00  0.00    +0.000 A 
BRANCH   9  16
ATOM     15  C   UNL     1      26.689  23.883  21.733  0.00  0.00    +0.000 C 
ATOM     16  O   UNL     1      27.620  23.117  22.470  0.00  0.00    +0.000 OA
ENDBRANCH   9  16
ENDBRANCH   1  12
BRANCH   1  17
ATOM     17  C   UNL     1      30.580  23.723  27.836  0.00  0.00    +0.000 C 
ATOM     18 CL   UNL     1      30.526  22.272  26.934  0.00  0.00    +0.000 Cl
ATOM     19 CL   UNL     1      31.762  24.889  27.195  0.00  0.00    +0.000 Cl
ATOM     20 CL   UNL     1      30.875  23.463  29.583  0.00  0.00    +0.000 Cl
ENDBRANCH   1  17
TORSDOF 4
ENDMDL
