MODEL 1
REMARK VINA RESULT:      -8.2      0.000      0.000
REMARK  Name = 
REMARK  7 active torsions:
REMARK  status: ('A' for Active; 'I' for Inactive)
REMARK    1  A    between atoms: O_2  and  C_3
REMARK    2  A    between atoms: C_8  and  O_9
REMARK    3  A    between atoms: N_17  and  C_18
REMARK    4  A    between atoms: C_18  and  C_19
REMARK    5  A    between atoms: C_19  and  C_20
REMARK    6  A    between atoms: C_20  and  C_21
REMARK    7  A    between atoms: C_21  and  C_22
REMARK                            x       y       z     vdW  Elec       q    Type
REMARK                         _______ _______ _______ _____ _____    ______ ____
ROOT
ATOM      1  C   UNL     1      36.033  -3.438  14.862  0.00  0.00    +0.000 A 
ATOM      2  C   UNL     1      35.194  -2.838  15.767  0.00  0.00    +0.000 A 
ATOM      3  C   UNL     1      35.358  -1.480  16.127  0.00  0.00    +0.000 A 
ATOM      4  C   UNL     1      36.389  -0.797  15.531  0.00  0.00    +0.000 A 
ATOM      5  C   UNL     1      37.220  -1.434  14.619  0.00  0.00    +0.000 A 
ATOM      6  C   UNL     1      37.061  -2.750  14.270  0.00  0.00    +0.000 A 
ATOM      7  C   UNL     1      36.582   0.596  15.884  0.00  0.00    +0.000 A 
ATOM      8  C   UNL     1      37.521   1.499  15.430  0.00  0.00    +0.000 A 
ATOM      9  C   UNL     1      38.577   1.419  14.524  0.00  0.00    +0.000 A 
ATOM     10  N   UNL     1      39.329   2.511  14.292  0.00  0.00    +0.000 NA
ATOM     11  N   UNL     1      39.113   3.686  14.894  0.00  0.00    +0.000 NA
ATOM     12  C   UNL     1      38.101   3.817  15.783  0.00  0.00    +0.000 A 
ATOM     13  N   UNL     1      37.882   5.071  16.417  0.00  0.00    +0.000 NA
ATOM     14  C   UNL     1      37.318   2.719  16.037  0.00  0.00    +0.000 A 
ATOM     15  C   UNL     1      36.235   2.535  16.869  0.00  0.00    +0.000 A 
ATOM     16  N   UNL     1      35.806   1.230  16.755  0.00  0.00    +0.000 N 
ATOM     17  C   UNL     1      34.724   0.554  17.410  0.00  0.00    +0.000 C 
ATOM     18  C   UNL     1      34.477  -0.838  17.074  0.00  0.00    +0.000 C 
ENDROOT
BRANCH   1  20
ATOM     19  C   UNL     1      34.606  -5.444  14.743  0.00  0.00    +0.000 C 
ATOM     20  O   UNL     1      35.830  -4.764  14.543  0.00  0.00    +0.000 OA
ENDBRANCH   1  20
BRANCH   6  21
ATOM     21  O   UNL     1      37.921  -3.370  13.339  0.00  0.00    +0.000 OA
ATOM     22  C   UNL     1      39.004  -2.617  12.780  0.00  0.00    +0.000 C 
ENDBRANCH   6  21
BRANCH  13  23
ATOM     23  C   UNL     1      38.724   6.220  16.138  0.00  0.00    +0.000 C 
BRANCH  23  24
ATOM     24  C   UNL     1      39.218   6.840  17.445  0.00  0.00    +0.000 C 
BRANCH  24  25
ATOM     25  C   UNL     1      39.653   5.755  18.389  0.00  0.00    +0.000 C 
BRANCH  25  26
ATOM     26  C   UNL     1      40.162   6.310  19.702  0.00  0.00    +0.000 C 
BRANCH  26  27
ATOM     27  C   UNL     1      41.662   6.437  19.662  0.00  0.00    +0.000 A 
ATOM     28  C   UNL     1      42.401   6.230  20.808  0.00  0.00    +0.000 A 
ATOM     29  C   UNL     1      43.775   6.344  20.810  0.00  0.00    +0.000 A 
ATOM     30  C   UNL     1      44.386   6.674  19.620  0.00  0.00    +0.000 A 
ATOM     31  C   UNL     1      43.692   6.887  18.456  0.00  0.00    +0.000 A 
ATOM     32  C   UNL     1      42.318   6.768  18.475  0.00  0.00    +0.000 A 
ENDBRANCH  26  27
ENDBRANCH  25  26
ENDBRANCH  24  25
ENDBRANCH  23  24
ENDBRANCH  13  23
TORSDOF 7
ENDMDL
MODEL 2
REMARK VINA RESULT:      -7.8      2.698      4.172
REMARK  Name = 
REMARK  7 active torsions:
REMARK  status: ('A' for Active; 'I' for Inactive)
REMARK    1  A    between atoms: O_2  and  C_3
REMARK    2  A    between atoms: C_8  and  O_9
REMARK    3  A    between atoms: N_17  and  C_18
REMARK    4  A    between atoms: C_18  and  C_19
REMARK    5  A    between atoms: C_19  and  C_20
REMARK    6  A    between atoms: C_20  and  C_21
REMARK    7  A    between atoms: C_21  and  C_22
REMARK                            x       y       z     vdW  Elec       q    Type
REMARK                         _______ _______ _______ _____ _____    ______ ____
ROOT
ATOM      1  C   UNL     1      37.465  -2.602  16.807  0.00  0.00    +0.000 A 
ATOM      2  C   UNL     1      38.573  -2.156  16.133  0.00  0.00    +0.000 A 
ATOM      3  C   UNL     1      38.589  -0.883  15.516  0.00  0.00    +0.000 A 
ATOM      4  C   UNL     1      37.451  -0.123  15.622  0.00  0.00    +0.000 A 
ATOM      5  C   UNL     1      36.347  -0.606  16.312  0.00  0.00    +0.000 A 
ATOM      6  C   UNL     1      36.331  -1.839  16.911  0.00  0.00    +0.000 A 
ATOM      7  C   UNL     1      37.439   1.184  14.997  0.00  0.00    +0.000 A 
ATOM      8  C   UNL     1      36.442   2.137  14.964  0.00  0.00    +0.000 A 
ATOM      9  C   UNL     1      35.149   2.199  15.481  0.00  0.00    +0.000 A 
ATOM     10  N   UNL     1      34.408   3.303  15.270  0.00  0.00    +0.000 NA
ATOM     11  N   UNL     1      34.853   4.358  14.581  0.00  0.00    +0.000 NA
ATOM     12  C   UNL     1      36.102   4.350  14.057  0.00  0.00    +0.000 A 
ATOM     13  N   UNL     1      36.563   5.479  13.325  0.00  0.00    +0.000 NA
ATOM     14  C   UNL     1      36.879   3.237  14.258  0.00  0.00    +0.000 A 
ATOM     15  C   UNL     1      38.162   2.929  13.863  0.00  0.00    +0.000 A 
ATOM     16  N   UNL     1      38.479   1.670  14.328  0.00  0.00    +0.000 N 
ATOM     17  C   UNL     1      39.684   0.908  14.182  0.00  0.00    +0.000 C 
ATOM     18  C   UNL     1      39.753  -0.400  14.809  0.00  0.00    +0.000 C 
ENDROOT
BRANCH   1  20
ATOM     19  C   UNL     1      37.823  -5.038  16.697  0.00  0.00    +0.000 C 
ATOM     20  O   UNL     1      37.500  -3.850  17.393  0.00  0.00    +0.000 OA
ENDBRANCH   1  20
BRANCH   6  21
ATOM     21  O   UNL     1      35.194  -2.302  17.605  0.00  0.00    +0.000 OA
ATOM     22  C   UNL     1      33.912  -1.741  17.297  0.00  0.00    +0.000 C 
ENDBRANCH   6  21
BRANCH  13  23
ATOM     23  C   UNL     1      35.724   6.645  13.119  0.00  0.00    +0.000 C 
BRANCH  23  24
ATOM     24  C   UNL     1      35.912   7.637  14.268  0.00  0.00    +0.000 C 
BRANCH  24  25
ATOM     25  C   UNL     1      37.355   7.666  14.682  0.00  0.00    +0.000 C 
BRANCH  25  26
ATOM     26  C   UNL     1      37.539   8.227  16.076  0.00  0.00    +0.000 C 
BRANCH  26  27
ATOM     27  C   UNL     1      38.117   7.175  16.985  0.00  0.00    +0.000 A 
ATOM     28  C   UNL     1      38.489   7.505  18.271  0.00  0.00    +0.000 A 
ATOM     29  C   UNL     1      39.028   6.569  19.129  0.00  0.00    +0.000 A 
ATOM     30  C   UNL     1      39.181   5.287  18.651  0.00  0.00    +0.000 A 
ATOM     31  C   UNL     1      38.825   4.912  17.381  0.00  0.00    +0.000 A 
ATOM     32  C   UNL     1      38.288   5.863  16.538  0.00  0.00    +0.000 A 
ENDBRANCH  26  27
ENDBRANCH  25  26
ENDBRANCH  24  25
ENDBRANCH  23  24
ENDBRANCH  13  23
TORSDOF 7
ENDMDL
MODEL 3
REMARK VINA RESULT:      -7.8     24.500     28.082
REMARK  Name = 
REMARK  7 active torsions:
REMARK  status: ('A' for Active; 'I' for Inactive)
REMARK    1  A    between atoms: O_2  and  C_3
REMARK    2  A    between atoms: C_8  and  O_9
REMARK    3  A    between atoms: N_17  and  C_18
REMARK    4  A    between atoms: C_18  and  C_19
REMARK    5  A    between atoms: C_19  and  C_20
REMARK    6  A    between atoms: C_20  and  C_21
REMARK    7  A    between atoms: C_21  and  C_22
REMARK                            x       y       z     vdW  Elec       q    Type
REMARK                         _______ _______ _______ _____ _____    ______ ____
ROOT
ATOM      1  C   UNL     1       6.373   0.550  24.186  0.00  0.00    +0.000 A 
ATOM      2  C   UNL     1       6.940  -0.663  23.892  0.00  0.00    +0.000 A 
ATOM      3  C   UNL     1       8.267  -0.963  24.283  0.00  0.00    +0.000 A 
ATOM      4  C   UNL     1       8.952   0.011  24.964  0.00  0.00    +0.000 A 
ATOM      5  C   UNL     1       8.347   1.229  25.245  0.00  0.00    +0.000 A 
ATOM      6  C   UNL     1       7.062   1.520  24.867  0.00  0.00    +0.000 A 
ATOM      7  C   UNL     1      10.313  -0.268  25.374  0.00  0.00    +0.000 A 
ATOM      8  C   UNL     1      11.206   0.522  26.069  0.00  0.00    +0.000 A 
ATOM      9  C   UNL     1      11.143   1.809  26.601  0.00  0.00    +0.000 A 
ATOM     10  N   UNL     1      12.215   2.308  27.244  0.00  0.00    +0.000 NA
ATOM     11  N   UNL     1      13.353   1.625  27.401  0.00  0.00    +0.000 NA
ATOM     12  C   UNL     1      13.467   0.371  26.903  0.00  0.00    +0.000 A 
ATOM     13  N   UNL     1      14.685  -0.344  27.075  0.00  0.00    +0.000 NA
ATOM     14  C   UNL     1      12.389  -0.162  26.244  0.00  0.00    +0.000 A 
ATOM     15  C   UNL     1      12.194  -1.384  25.639  0.00  0.00    +0.000 A 
ATOM     16  N   UNL     1      10.919  -1.422  25.116  0.00  0.00    +0.000 N 
ATOM     17  C   UNL     1      10.246  -2.465  24.398  0.00  0.00    +0.000 C 
ATOM     18  C   UNL     1       8.872  -2.240  23.983  0.00  0.00    +0.000 C 
ENDROOT
BRANCH   1  20
ATOM     19  C   UNL     1       4.457   0.147  22.689  0.00  0.00    +0.000 C 
ATOM     20  O   UNL     1       5.076   0.793  23.784  0.00  0.00    +0.000 OA
ENDBRANCH   1  20
BRANCH   6  21
ATOM     21  O   UNL     1       6.474   2.767  25.168  0.00  0.00    +0.000 OA
ATOM     22  C   UNL     1       6.269   3.129  26.538  0.00  0.00    +0.000 C 
ENDBRANCH   6  21
BRANCH  13  23
ATOM     23  C   UNL     1      15.817   0.239  27.772  0.00  0.00    +0.000 C 
BRANCH  23  24
ATOM     24  C   UNL     1      16.868   0.709  26.767  0.00  0.00    +0.000 C 
BRANCH  24  25
ATOM     25  C   UNL     1      16.949  -0.265  25.626  0.00  0.00    +0.000 C 
BRANCH  25  26
ATOM     26  C   UNL     1      18.177  -1.146  25.712  0.00  0.00    +0.000 C 
BRANCH  26  27
ATOM     27  C   UNL     1      19.069  -0.906  24.523  0.00  0.00    +0.000 A 
ATOM     28  C   UNL     1      19.472  -1.967  23.740  0.00  0.00    +0.000 A 
ATOM     29  C   UNL     1      20.294  -1.786  22.647  0.00  0.00    +0.000 A 
ATOM     30  C   UNL     1      20.700  -0.501  22.366  0.00  0.00    +0.000 A 
ATOM     31  C   UNL     1      20.324   0.585  23.116  0.00  0.00    +0.000 A 
ATOM     32  C   UNL     1      19.502   0.383  24.205  0.00  0.00    +0.000 A 
ENDBRANCH  26  27
ENDBRANCH  25  26
ENDBRANCH  24  25
ENDBRANCH  23  24
ENDBRANCH  13  23
TORSDOF 7
ENDMDL
MODEL 4
REMARK VINA RESULT:      -7.8     23.872     27.455
REMARK  Name = 
REMARK  7 active torsions:
REMARK  status: ('A' for Active; 'I' for Inactive)
REMARK    1  A    between atoms: O_2  and  C_3
REMARK    2  A    between atoms: C_8  and  O_9
REMARK    3  A    between atoms: N_17  and  C_18
REMARK    4  A    between atoms: C_18  and  C_19
REMARK    5  A    between atoms: C_19  and  C_20
REMARK    6  A    between atoms: C_20  and  C_21
REMARK    7  A    between atoms: C_21  and  C_22
REMARK                            x       y       z     vdW  Elec       q    Type
REMARK                         _______ _______ _______ _____ _____    ______ ____
ROOT
ATOM      1  C   UNL     1       7.219   0.508  24.799  0.00  0.00    +0.000 A 
ATOM      2  C   UNL     1       7.550   1.686  25.420  0.00  0.00    +0.000 A 
ATOM      3  C   UNL     1       8.844   1.891  25.955  0.00  0.00    +0.000 A 
ATOM      4  C   UNL     1       9.743   0.863  25.824  0.00  0.00    +0.000 A 
ATOM      5  C   UNL     1       9.375  -0.316  25.190  0.00  0.00    +0.000 A 
ATOM      6  C   UNL     1       8.122  -0.515  24.671  0.00  0.00    +0.000 A 
ATOM      7  C   UNL     1      11.075   1.045  26.365  0.00  0.00    +0.000 A 
ATOM      8  C   UNL     1      12.156   0.188  26.358  0.00  0.00    +0.000 A 
ATOM      9  C   UNL     1      12.361  -1.100  25.866  0.00  0.00    +0.000 A 
ATOM     10  N   UNL     1      13.567  -1.679  26.022  0.00  0.00    +0.000 NA
ATOM     11  N   UNL     1      14.591  -1.075  26.632  0.00  0.00    +0.000 NA
ATOM     12  C   UNL     1      14.444   0.175  27.129  0.00  0.00    +0.000 A 
ATOM     13  N   UNL     1      15.542   0.806  27.778  0.00  0.00    +0.000 NA
ATOM     14  C   UNL     1      13.226   0.789  26.984  0.00  0.00    +0.000 A 
ATOM     15  C   UNL     1      12.770   2.030  27.370  0.00  0.00    +0.000 A 
ATOM     16  N   UNL     1      11.455   2.161  26.979  0.00  0.00    +0.000 N 
ATOM     17  C   UNL     1      10.545   3.256  27.149  0.00  0.00    +0.000 C 
ATOM     18  C   UNL     1       9.204   3.130  26.605  0.00  0.00    +0.000 C 
ENDROOT
BRANCH   1  20
ATOM     19  C   UNL     1       5.056   1.434  24.064  0.00  0.00    +0.000 C 
ATOM     20  O   UNL     1       5.944   0.358  24.293  0.00  0.00    +0.000 OA
ENDBRANCH   1  20
BRANCH   6  21
ATOM     21  O   UNL     1       7.777  -1.725  24.032  0.00  0.00    +0.000 OA
ATOM     22  C   UNL     1       8.218  -1.954  22.689  0.00  0.00    +0.000 C 
ENDBRANCH   6  21
BRANCH  13  23
ATOM     23  C   UNL     1      16.822   0.138  27.927  0.00  0.00    +0.000 C 
BRANCH  23  24
ATOM     24  C   UNL     1      17.913   0.924  27.198  0.00  0.00    +0.000 C 
BRANCH  24  25
ATOM     25  C   UNL     1      17.940   0.530  25.749  0.00  0.00    +0.000 C 
BRANCH  25  26
ATOM     26  C   UNL     1      18.442  -0.885  25.550  0.00  0.00    +0.000 C 
BRANCH  26  27
ATOM     27  C   UNL     1      19.266  -0.968  24.292  0.00  0.00    +0.000 A 
ATOM     28  C   UNL     1      19.459  -2.186  23.676  0.00  0.00    +0.000 A 
ATOM     29  C   UNL     1      20.212  -2.302  22.527  0.00  0.00    +0.000 A 
ATOM     30  C   UNL     1      20.767  -1.150  22.015  0.00  0.00    +0.000 A 
ATOM     31  C   UNL     1      20.601   0.083  22.593  0.00  0.00    +0.000 A 
ATOM     32  C   UNL     1      19.844   0.177  23.742  0.00  0.00    +0.000 A 
ENDBRANCH  26  27
ENDBRANCH  25  26
ENDBRANCH  24  25
ENDBRANCH  23  24
ENDBRANCH  13  23
TORSDOF 7
ENDMDL
MODEL 5
REMARK VINA RESULT:      -7.8      2.306      3.938
REMARK  Name = 
REMARK  7 active torsions:
REMARK  status: ('A' for Active; 'I' for Inactive)
REMARK    1  A    between atoms: O_2  and  C_3
REMARK    2  A    between atoms: C_8  and  O_9
REMARK    3  A    between atoms: N_17  and  C_18
REMARK    4  A    between atoms: C_18  and  C_19
REMARK    5  A    between atoms: C_19  and  C_20
REMARK    6  A    between atoms: C_20  and  C_21
REMARK    7  A    between atoms: C_21  and  C_22
REMARK                            x       y       z     vdW  Elec       q    Type
REMARK                         _______ _______ _______ _____ _____    ______ ____
ROOT
ATOM      1  C   UNL     1      38.178  -3.589  16.900  0.00  0.00    +0.000 A 
ATOM      2  C   UNL     1      39.371  -3.560  16.224  0.00  0.00    +0.000 A 
ATOM      3  C   UNL     1      39.798  -2.395  15.544  0.00  0.00    +0.000 A 
ATOM      4  C   UNL     1      38.966  -1.304  15.593  0.00  0.00    +0.000 A 
ATOM      5  C   UNL     1      37.765  -1.367  16.286  0.00  0.00    +0.000 A 
ATOM      6  C   UNL     1      37.351  -2.496  16.946  0.00  0.00    +0.000 A 
ATOM      7  C   UNL     1      39.377  -0.098  14.903  0.00  0.00    +0.000 A 
ATOM      8  C   UNL     1      38.742   1.123  14.805  0.00  0.00    +0.000 A 
ATOM      9  C   UNL     1      37.538   1.625  15.295  0.00  0.00    +0.000 A 
ATOM     10  N   UNL     1      37.194   2.896  15.016  0.00  0.00    +0.000 NA
ATOM     11  N   UNL     1      37.957   3.714  14.283  0.00  0.00    +0.000 NA
ATOM     12  C   UNL     1      39.135   3.275  13.783  0.00  0.00    +0.000 A 
ATOM     13  N   UNL     1      39.937   4.155  13.003  0.00  0.00    +0.000 NA
ATOM     14  C   UNL     1      39.511   1.983  14.052  0.00  0.00    +0.000 A 
ATOM     15  C   UNL     1      40.626   1.257  13.696  0.00  0.00    +0.000 A 
ATOM     16  N   UNL     1      40.519  -0.009  14.229  0.00  0.00    +0.000 N 
ATOM     17  C   UNL     1      41.413  -1.127  14.142  0.00  0.00    +0.000 C 
ATOM     18  C   UNL     1      41.055  -2.352  14.835  0.00  0.00    +0.000 C 
ENDROOT
BRANCH   1  20
ATOM     19  C   UNL     1      37.394  -5.925  16.881  0.00  0.00    +0.000 C 
ATOM     20  O   UNL     1      37.807  -4.749  17.548  0.00  0.00    +0.000 OA
ENDBRANCH   1  20
BRANCH   6  21
ATOM     21  O   UNL     1      36.125  -2.529  17.642  0.00  0.00    +0.000 OA
ATOM     22  C   UNL     1      35.121  -1.556  17.334  0.00  0.00    +0.000 C 
ENDBRANCH   6  21
BRANCH  13  23
ATOM     23  C   UNL     1      39.521   5.517  12.725  0.00  0.00    +0.000 C 
BRANCH  23  24
ATOM     24  C   UNL     1      40.450   6.505  13.430  0.00  0.00    +0.000 C 
BRANCH  24  25
ATOM     25  C   UNL     1      40.196   6.473  14.910  0.00  0.00    +0.000 C 
BRANCH  25  26
ATOM     26  C   UNL     1      41.474   6.314  15.706  0.00  0.00    +0.000 C 
BRANCH  26  27
ATOM     27  C   UNL     1      41.163   6.272  17.179  0.00  0.00    +0.000 A 
ATOM     28  C   UNL     1      39.909   5.893  17.607  0.00  0.00    +0.000 A 
ATOM     29  C   UNL     1      39.588   5.849  18.948  0.00  0.00    +0.000 A 
ATOM     30  C   UNL     1      40.570   6.200  19.847  0.00  0.00    +0.000 A 
ATOM     31  C   UNL     1      41.831   6.583  19.467  0.00  0.00    +0.000 A 
ATOM     32  C   UNL     1      42.133   6.620  18.121  0.00  0.00    +0.000 A 
ENDBRANCH  26  27
ENDBRANCH  25  26
ENDBRANCH  24  25
ENDBRANCH  23  24
ENDBRANCH  13  23
TORSDOF 7
ENDMDL
MODEL 6
REMARK VINA RESULT:      -7.4      1.925      2.628
REMARK  Name = 
REMARK  7 active torsions:
REMARK  status: ('A' for Active; 'I' for Inactive)
REMARK    1  A    between atoms: O_2  and  C_3
REMARK    2  A    between atoms: C_8  and  O_9
REMARK    3  A    between atoms: N_17  and  C_18
REMARK    4  A    between atoms: C_18  and  C_19
REMARK    5  A    between atoms: C_19  and  C_20
REMARK    6  A    between atoms: C_20  and  C_21
REMARK    7  A    between atoms: C_21  and  C_22
REMARK                            x       y       z     vdW  Elec       q    Type
REMARK                         _______ _______ _______ _____ _____    ______ ____
ROOT
ATOM      1  C   UNL     1      37.470  -2.459  15.481  0.00  0.00    +0.000 A 
ATOM      2  C   UNL     1      36.383  -1.830  16.031  0.00  0.00    +0.000 A 
ATOM      3  C   UNL     1      36.264  -0.420  16.006  0.00  0.00    +0.000 A 
ATOM      4  C   UNL     1      37.283   0.281  15.410  0.00  0.00    +0.000 A 
ATOM      5  C   UNL     1      38.370  -0.388  14.863  0.00  0.00    +0.000 A 
ATOM      6  C   UNL     1      38.484  -1.753  14.887  0.00  0.00    +0.000 A 
ATOM      7  C   UNL     1      37.189   1.727  15.372  0.00  0.00    +0.000 A 
ATOM      8  C   UNL     1      38.056   2.654  14.833  0.00  0.00    +0.000 A 
ATOM      9  C   UNL     1      39.277   2.559  14.167  0.00  0.00    +0.000 A 
ATOM     10  N   UNL     1      39.889   3.684  13.753  0.00  0.00    +0.000 NA
ATOM     11  N   UNL     1      39.381   4.905  13.948  0.00  0.00    +0.000 NA
ATOM     12  C   UNL     1      38.198   5.052  14.590  0.00  0.00    +0.000 A 
ATOM     13  N   UNL     1      37.668   6.357  14.793  0.00  0.00    +0.000 NA
ATOM     14  C   UNL     1      37.552   3.922  15.023  0.00  0.00    +0.000 A 
ATOM     15  C   UNL     1      36.360   3.743  15.689  0.00  0.00    +0.000 A 
ATOM     16  N   UNL     1      36.163   2.394  15.890  0.00  0.00    +0.000 N 
ATOM     17  C   UNL     1      35.082   1.704  16.532  0.00  0.00    +0.000 C 
ATOM     18  C   UNL     1      35.120   0.252  16.576  0.00  0.00    +0.000 C 
ENDROOT
BRANCH   1  20
ATOM     19  C   UNL     1      36.537  -4.653  16.104  0.00  0.00    +0.000 C 
ATOM     20  O   UNL     1      37.538  -3.836  15.530  0.00  0.00    +0.000 OA
ENDBRANCH   1  20
BRANCH   6  21
ATOM     21  O   UNL     1      39.602  -2.405  14.323  0.00  0.00    +0.000 OA
ATOM     22  C   UNL     1      40.799  -2.533  15.097  0.00  0.00    +0.000 C 
ENDBRANCH   6  21
BRANCH  13  23
ATOM     23  C   UNL     1      38.369   7.542  14.332  0.00  0.00    +0.000 C 
BRANCH  23  24
ATOM     24  C   UNL     1      38.168   8.690  15.320  0.00  0.00    +0.000 C 
BRANCH  24  25
ATOM     25  C   UNL     1      37.222   8.265  16.407  0.00  0.00    +0.000 C 
BRANCH  25  26
ATOM     26  C   UNL     1      37.603   8.839  17.755  0.00  0.00    +0.000 C 
BRANCH  26  27
ATOM     27  C   UNL     1      38.532   7.898  18.474  0.00  0.00    +0.000 A 
ATOM     28  C   UNL     1      38.579   6.568  18.113  0.00  0.00    +0.000 A 
ATOM     29  C   UNL     1      39.413   5.676  18.754  0.00  0.00    +0.000 A 
ATOM     30  C   UNL     1      40.201   6.165  19.772  0.00  0.00    +0.000 A 
ATOM     31  C   UNL     1      40.188   7.479  20.165  0.00  0.00    +0.000 A 
ATOM     32  C   UNL     1      39.347   8.356  19.511  0.00  0.00    +0.000 A 
ENDBRANCH  26  27
ENDBRANCH  25  26
ENDBRANCH  24  25
ENDBRANCH  23  24
ENDBRANCH  13  23
TORSDOF 7
ENDMDL
MODEL 7
REMARK VINA RESULT:      -7.4      9.624     13.806
REMARK  Name = 
REMARK  7 active torsions:
REMARK  status: ('A' for Active; 'I' for Inactive)
REMARK    1  A    between atoms: O_2  and  C_3
REMARK    2  A    between atoms: C_8  and  O_9
REMARK    3  A    between atoms: N_17  and  C_18
REMARK    4  A    between atoms: C_18  and  C_19
REMARK    5  A    between atoms: C_19  and  C_20
REMARK    6  A    between atoms: C_20  and  C_21
REMARK    7  A    between atoms: C_21  and  C_22
REMARK                            x       y       z     vdW  Elec       q    Type
REMARK                         _______ _______ _______ _____ _____    ______ ____
ROOT
ATOM      1  C   UNL     1      42.651   1.931  32.247  0.00  0.00    +0.000 A 
ATOM      2  C   UNL     1      41.617   2.752  31.877  0.00  0.00    +0.000 A 
ATOM      3  C   UNL     1      41.670   3.497  30.675  0.00  0.00    +0.000 A 
ATOM      4  C   UNL     1      42.798   3.358  29.904  0.00  0.00    +0.000 A 
ATOM      5  C   UNL     1      43.826   2.517  30.309  0.00  0.00    +0.000 A 
ATOM      6  C   UNL     1      43.775   1.796  31.473  0.00  0.00    +0.000 A 
ATOM      7  C   UNL     1      42.880   4.111  28.669  0.00  0.00    +0.000 A 
ATOM      8  C   UNL     1      43.882   4.145  27.721  0.00  0.00    +0.000 A 
ATOM      9  C   UNL     1      45.118   3.513  27.602  0.00  0.00    +0.000 A 
ATOM     10  N   UNL     1      45.884   3.763  26.523  0.00  0.00    +0.000 NA
ATOM     11  N   UNL     1      45.515   4.598  25.546  0.00  0.00    +0.000 NA
ATOM     12  C   UNL     1      44.324   5.237  25.613  0.00  0.00    +0.000 A 
ATOM     13  N   UNL     1      43.944   6.124  24.567  0.00  0.00    +0.000 NA
ATOM     14  C   UNL     1      43.524   5.000  26.702  0.00  0.00    +0.000 A 
ATOM     15  C   UNL     1      42.283   5.484  27.053  0.00  0.00    +0.000 A 
ATOM     16  N   UNL     1      41.914   4.925  28.258  0.00  0.00    +0.000 N 
ATOM     17  C   UNL     1      40.723   5.110  29.036  0.00  0.00    +0.000 C 
ATOM     18  C   UNL     1      40.585   4.360  30.272  0.00  0.00    +0.000 C 
ENDROOT
BRANCH   1  20
ATOM     19  C   UNL     1      42.724   1.803  34.708  0.00  0.00    +0.000 C 
ATOM     20  O   UNL     1      42.551   1.225  33.428  0.00  0.00    +0.000 OA
ENDBRANCH   1  20
BRANCH   6  21
ATOM     21  O   UNL     1      44.836   0.949  31.858  0.00  0.00    +0.000 OA
ATOM     22  C   UNL     1      46.171   1.468  31.876  0.00  0.00    +0.000 C 
ENDBRANCH   6  21
BRANCH  13  23
ATOM     23  C   UNL     1      44.807   6.366  23.425  0.00  0.00    +0.000 C 
BRANCH  23  24
ATOM     24  C   UNL     1      44.585   5.291  22.362  0.00  0.00    +0.000 C 
BRANCH  24  25
ATOM     25  C   UNL     1      44.237   5.937  21.051  0.00  0.00    +0.000 C 
BRANCH  25  26
ATOM     26  C   UNL     1      43.034   6.849  21.166  0.00  0.00    +0.000 C 
BRANCH  26  27
ATOM     27  C   UNL     1      42.094   6.612  20.014  0.00  0.00    +0.000 A 
ATOM     28  C   UNL     1      42.578   6.593  18.723  0.00  0.00    +0.000 A 
ATOM     29  C   UNL     1      41.746   6.384  17.644  0.00  0.00    +0.000 A 
ATOM     30  C   UNL     1      40.406   6.196  17.903  0.00  0.00    +0.000 A 
ATOM     31  C   UNL     1      39.880   6.206  19.170  0.00  0.00    +0.000 A 
ATOM     32  C   UNL     1      40.730   6.416  20.237  0.00  0.00    +0.000 A 
ENDBRANCH  26  27
ENDBRANCH  25  26
ENDBRANCH  24  25
ENDBRANCH  23  24
ENDBRANCH  13  23
TORSDOF 7
ENDMDL
MODEL 8
REMARK VINA RESULT:      -7.4      4.161      9.707
REMARK  Name = 
REMARK  7 active torsions:
REMARK  status: ('A' for Active; 'I' for Inactive)
REMARK    1  A    between atoms: O_2  and  C_3
REMARK    2  A    between atoms: C_8  and  O_9
REMARK    3  A    between atoms: N_17  and  C_18
REMARK    4  A    between atoms: C_18  and  C_19
REMARK    5  A    between atoms: C_19  and  C_20
REMARK    6  A    between atoms: C_20  and  C_21
REMARK    7  A    between atoms: C_21  and  C_22
REMARK                            x       y       z     vdW  Elec       q    Type
REMARK                         _______ _______ _______ _____ _____    ______ ____
ROOT
ATOM      1  C   UNL     1      44.506   7.948  17.735  0.00  0.00    +0.000 A 
ATOM      2  C   UNL     1      43.778   7.743  18.879  0.00  0.00    +0.000 A 
ATOM      3  C   UNL     1      42.519   7.099  18.839  0.00  0.00    +0.000 A 
ATOM      4  C   UNL     1      42.065   6.693  17.609  0.00  0.00    +0.000 A 
ATOM      5  C   UNL     1      42.828   6.917  16.470  0.00  0.00    +0.000 A 
ATOM      6  C   UNL     1      44.048   7.540  16.509  0.00  0.00    +0.000 A 
ATOM      7  C   UNL     1      40.777   6.033  17.537  0.00  0.00    +0.000 A 
ATOM      8  C   UNL     1      40.105   5.525  16.445  0.00  0.00    +0.000 A 
ATOM      9  C   UNL     1      40.388   5.464  15.082  0.00  0.00    +0.000 A 
ATOM     10  N   UNL     1      39.501   4.884  14.251  0.00  0.00    +0.000 NA
ATOM     11  N   UNL     1      38.347   4.356  14.671  0.00  0.00    +0.000 NA
ATOM     12  C   UNL     1      38.023   4.391  15.985  0.00  0.00    +0.000 A 
ATOM     13  N   UNL     1      36.791   3.827  16.419  0.00  0.00    +0.000 NA
ATOM     14  C   UNL     1      38.910   4.975  16.854  0.00  0.00    +0.000 A 
ATOM     15  C   UNL     1      38.872   5.161  18.218  0.00  0.00    +0.000 A 
ATOM     16  N   UNL     1      40.025   5.809  18.609  0.00  0.00    +0.000 N 
ATOM     17  C   UNL     1      40.453   6.225  19.913  0.00  0.00    +0.000 C 
ATOM     18  C   UNL     1      41.748   6.873  20.038  0.00  0.00    +0.000 C 
ENDROOT
BRANCH   1  20
ATOM     19  C   UNL     1      46.632   8.392  18.899  0.00  0.00    +0.000 C 
ATOM     20  O   UNL     1      45.729   8.580  17.827  0.00  0.00    +0.000 OA
ENDBRANCH   1  20
BRANCH   6  21
ATOM     21  O   UNL     1      44.800   7.753  15.334  0.00  0.00    +0.000 OA
ATOM     22  C   UNL     1      45.624   6.695  14.832  0.00  0.00    +0.000 C 
ENDBRANCH   6  21
BRANCH  13  23
ATOM     23  C   UNL     1      35.864   3.217  15.484  0.00  0.00    +0.000 C 
BRANCH  23  24
ATOM     24  C   UNL     1      34.916   2.273  16.223  0.00  0.00    +0.000 C 
BRANCH  24  25
ATOM     25  C   UNL     1      35.364   0.851  16.032  0.00  0.00    +0.000 C 
BRANCH  25  26
ATOM     26  C   UNL     1      34.974  -0.033  17.198  0.00  0.00    +0.000 C 
BRANCH  26  27
ATOM     27  C   UNL     1      36.173  -0.804  17.685  0.00  0.00    +0.000 A 
ATOM     28  C   UNL     1      37.106  -1.267  16.783  0.00  0.00    +0.000 A 
ATOM     29  C   UNL     1      38.212  -1.982  17.192  0.00  0.00    +0.000 A 
ATOM     30  C   UNL     1      38.351  -2.217  18.542  0.00  0.00    +0.000 A 
ATOM     31  C   UNL     1      37.449  -1.774  19.476  0.00  0.00    +0.000 A 
ATOM     32  C   UNL     1      36.349  -1.061  19.046  0.00  0.00    +0.000 A 
ENDBRANCH  26  27
ENDBRANCH  25  26
ENDBRANCH  24  25
ENDBRANCH  23  24
ENDBRANCH  13  23
TORSDOF 7
ENDMDL
MODEL 9
REMARK VINA RESULT:      -7.3     26.202     29.079
REMARK  Name = 
REMARK  7 active torsions:
REMARK  status: ('A' for Active; 'I' for Inactive)
REMARK    1  A    between atoms: O_2  and  C_3
REMARK    2  A    between atoms: C_8  and  O_9
REMARK    3  A    between atoms: N_17  and  C_18
REMARK    4  A    between atoms: C_18  and  C_19
REMARK    5  A    between atoms: C_19  and  C_20
REMARK    6  A    between atoms: C_20  and  C_21
REMARK    7  A    between atoms: C_21  and  C_22
REMARK                            x       y       z     vdW  Elec       q    Type
REMARK                         _______ _______ _______ _____ _____    ______ ____
ROOT
ATOM      1  C   UNL     1      23.986  19.835  32.623  0.00  0.00    +0.000 A 
ATOM      2  C   UNL     1      24.258  18.558  32.204  0.00  0.00    +0.000 A 
ATOM      3  C   UNL     1      24.726  17.576  33.109  0.00  0.00    +0.000 A 
ATOM      4  C   UNL     1      24.893  17.961  34.416  0.00  0.00    +0.000 A 
ATOM      5  C   UNL     1      24.607  19.262  34.806  0.00  0.00    +0.000 A 
ATOM      6  C   UNL     1      24.154  20.213  33.930  0.00  0.00    +0.000 A 
ATOM      7  C   UNL     1      25.374  16.976  35.364  0.00  0.00    +0.000 A 
ATOM      8  C   UNL     1      25.614  17.097  36.717  0.00  0.00    +0.000 A 
ATOM      9  C   UNL     1      25.500  18.147  37.626  0.00  0.00    +0.000 A 
ATOM     10  N   UNL     1      25.820  17.938  38.916  0.00  0.00    +0.000 NA
ATOM     11  N   UNL     1      26.248  16.759  39.379  0.00  0.00    +0.000 NA
ATOM     12  C   UNL     1      26.378  15.706  38.537  0.00  0.00    +0.000 A 
ATOM     13  N   UNL     1      26.836  14.457  39.041  0.00  0.00    +0.000 NA
ATOM     14  C   UNL     1      26.057  15.892  37.216  0.00  0.00    +0.000 A 
ATOM     15  C   UNL     1      26.080  15.037  36.136  0.00  0.00    +0.000 A 
ATOM     16  N   UNL     1      25.658  15.725  35.018  0.00  0.00    +0.000 N 
ATOM     17  C   UNL     1      25.509  15.282  33.662  0.00  0.00    +0.000 C 
ATOM     18  C   UNL     1      25.010  16.226  32.679  0.00  0.00    +0.000 C 
ENDROOT
BRANCH   1  20
ATOM     19  C   UNL     1      22.169  21.107  31.547  0.00  0.00    +0.000 C 
ATOM     20  O   UNL     1      23.530  20.755  31.702  0.00  0.00    +0.000 OA
ENDBRANCH   1  20
BRANCH   6  21
ATOM     21  O   UNL     1      23.872  21.528  34.357  0.00  0.00    +0.000 OA
ATOM     22  C   UNL     1      24.186  21.907  35.702  0.00  0.00    +0.000 C 
ENDBRANCH   6  21
BRANCH  13  23
ATOM     23  C   UNL     1      27.174  14.281  40.442  0.00  0.00    +0.000 C 
BRANCH  23  24
ATOM     24  C   UNL     1      26.235  13.261  41.086  0.00  0.00    +0.000 C 
BRANCH  24  25
ATOM     25  C   UNL     1      26.612  11.876  40.644  0.00  0.00    +0.000 C 
BRANCH  25  26
ATOM     26  C   UNL     1      27.927  11.422  41.242  0.00  0.00    +0.000 C 
BRANCH  26  27
ATOM     27  C   UNL     1      27.817   9.994  41.708  0.00  0.00    +0.000 A 
ATOM     28  C   UNL     1      28.815   9.446  42.485  0.00  0.00    +0.000 A 
ATOM     29  C   UNL     1      28.751   8.140  42.925  0.00  0.00    +0.000 A 
ATOM     30  C   UNL     1      27.649   7.401  42.557  0.00  0.00    +0.000 A 
ATOM     31  C   UNL     1      26.632   7.905  41.787  0.00  0.00    +0.000 A 
ATOM     32  C   UNL     1      26.714   9.213  41.357  0.00  0.00    +0.000 A 
ENDBRANCH  26  27
ENDBRANCH  25  26
ENDBRANCH  24  25
ENDBRANCH  23  24
ENDBRANCH  13  23
TORSDOF 7
ENDMDL
MODEL 10
REMARK VINA RESULT:      -7.2      6.916     10.213
REMARK  Name = 
REMARK  7 active torsions:
REMARK  status: ('A' for Active; 'I' for Inactive)
REMARK    1  A    between atoms: O_2  and  C_3
REMARK    2  A    between atoms: C_8  and  O_9
REMARK    3  A    between atoms: N_17  and  C_18
REMARK    4  A    between atoms: C_18  and  C_19
REMARK    5  A    between atoms: C_19  and  C_20
REMARK    6  A    between atoms: C_20  and  C_21
REMARK    7  A    between atoms: C_21  and  C_22
REMARK                            x       y       z     vdW  Elec       q    Type
REMARK                         _______ _______ _______ _____ _____    ______ ____
ROOT
ATOM      1  C   UNL     1      33.952   7.274   7.243  0.00  0.00    +0.000 A 
ATOM      2  C   UNL     1      34.196   6.231   6.386  0.00  0.00    +0.000 A 
ATOM      3  C   UNL     1      34.946   5.105   6.800  0.00  0.00    +0.000 A 
ATOM      4  C   UNL     1      35.415   5.107   8.090  0.00  0.00    +0.000 A 
ATOM      5  C   UNL     1      35.149   6.179   8.931  0.00  0.00    +0.000 A 
ATOM      6  C   UNL     1      34.422   7.270   8.531  0.00  0.00    +0.000 A 
ATOM      7  C   UNL     1      36.188   3.968   8.539  0.00  0.00    +0.000 A 
ATOM      8  C   UNL     1      36.758   3.718   9.771  0.00  0.00    +0.000 A 
ATOM      9  C   UNL     1      36.807   4.425  10.972  0.00  0.00    +0.000 A 
ATOM     10  N   UNL     1      37.460   3.893  12.021  0.00  0.00    +0.000 NA
ATOM     11  N   UNL     1      38.073   2.705  11.973  0.00  0.00    +0.000 NA
ATOM     12  C   UNL     1      38.056   1.979  10.831  0.00  0.00    +0.000 A 
ATOM     13  N   UNL     1      38.712   0.717  10.792  0.00  0.00    +0.000 NA
ATOM     14  C   UNL     1      37.396   2.497   9.745  0.00  0.00    +0.000 A 
ATOM     15  C   UNL     1      37.201   2.013   8.471  0.00  0.00    +0.000 A 
ATOM     16  N   UNL     1      36.461   2.930   7.756  0.00  0.00    +0.000 N 
ATOM     17  C   UNL     1      36.002   2.890   6.398  0.00  0.00    +0.000 C 
ATOM     18  C   UNL     1      35.204   3.999   5.907  0.00  0.00    +0.000 C 
ENDROOT
BRANCH   1  20
ATOM     19  C   UNL     1      32.345   8.294   5.677  0.00  0.00    +0.000 C 
ATOM     20  O   UNL     1      33.214   8.348   6.792  0.00  0.00    +0.000 OA
ENDBRANCH   1  20
BRANCH   6  21
ATOM     21  O   UNL     1      34.168   8.344   9.410  0.00  0.00    +0.000 OA
ATOM     22  C   UNL     1      34.159   8.104  10.821  0.00  0.00    +0.000 C 
ENDBRANCH   6  21
BRANCH  13  23
ATOM     23  C   UNL     1      39.409   0.188  11.950  0.00  0.00    +0.000 C 
BRANCH  23  24
ATOM     24  C   UNL     1      38.708  -1.074  12.453  0.00  0.00    +0.000 C 
BRANCH  24  25
ATOM     25  C   UNL     1      37.364  -0.716  13.020  0.00  0.00    +0.000 C 
BRANCH  25  26
ATOM     26  C   UNL     1      37.086  -1.429  14.326  0.00  0.00    +0.000 C 
BRANCH  26  27
ATOM     27  C   UNL     1      36.258  -0.551  15.227  0.00  0.00    +0.000 A 
ATOM     28  C   UNL     1      36.187   0.805  14.992  0.00  0.00    +0.000 A 
ATOM     29  C   UNL     1      35.445   1.640  15.800  0.00  0.00    +0.000 A 
ATOM     30  C   UNL     1      34.773   1.066  16.856  0.00  0.00    +0.000 A 
ATOM     31  C   UNL     1      34.813  -0.278  17.129  0.00  0.00    +0.000 A 
ATOM     32  C   UNL     1      35.562  -1.096  16.308  0.00  0.00    +0.000 A 
ENDBRANCH  26  27
ENDBRANCH  25  26
ENDBRANCH  24  25
ENDBRANCH  23  24
ENDBRANCH  13  23
TORSDOF 7
ENDMDL
