MODEL 1
REMARK VINA RESULT:      -6.1      0.000      0.000
REMARK  Name = 
REMARK  1 active torsions:
REMARK  status: ('A' for Active; 'I' for Inactive)
REMARK    1  A    between atoms: C_11  and  C_13
REMARK                            x       y       z     vdW  Elec       q    Type
REMARK                         _______ _______ _______ _____ _____    ______ ____
ROOT
ATOM      1  C   UNL     1      26.512  27.691  29.395  0.00  0.00    +0.000 C 
ATOM      2  C   UNL     1      25.795  26.570  28.633  0.00  0.00    +0.000 C 
ATOM      3  C   UNL     1      24.296  26.981  28.729  0.00  0.00    +0.000 C 
ATOM      4  C   UNL     1      26.066  26.562  27.249  0.00  0.00    +0.000 C 
ATOM      5  C   UNL     1      27.211  25.557  26.710  0.00  0.00    +0.000 C 
ATOM      6  C   UNL     1      27.581  24.877  28.151  0.00  0.00    +0.000 C 
ATOM      7  C   UNL     1      26.307  24.242  28.561  0.00  0.00    +0.000 C 
ATOM      8  C   UNL     1      26.489  22.965  29.332  0.00  0.00    +0.000 C 
ATOM      9  C   UNL     1      25.372  24.139  27.406  0.00  0.00    +0.000 C 
ATOM     10  N   UNL     1      26.282  24.397  26.343  0.00  0.00    +0.000 N 
ATOM     11  C   UNL     1      26.289  23.667  25.147  0.00  0.00    +0.000 C 
ATOM     12  O   UNL     1      25.456  22.700  24.936  0.00  0.00    +0.000 OA
ATOM     13  C   UNL     1      25.759  25.329  29.463  0.00  0.00    +0.000 C 
ENDROOT
BRANCH  11  14
ATOM     14  C   UNL     1      27.196  23.897  24.043  0.00  0.00    +0.000 A 
ATOM     15  C   UNL     1      28.514  23.511  24.023  0.00  0.00    +0.000 A 
ATOM     16  C   UNL     1      29.342  23.755  22.943  0.00  0.00    +0.000 A 
ATOM     17  C   UNL     1      28.882  24.404  21.822  0.00  0.00    +0.000 A 
ATOM     18  N   UNL     1      29.735  24.662  20.693  0.00  0.00    +0.000 NA
ATOM     19  C   UNL     1      27.564  24.792  21.841  0.00  0.00    +0.000 A 
ATOM     20  C   UNL     1      26.732  24.548  22.922  0.00  0.00    +0.000 A 
ENDBRANCH  11  14
TORSDOF 1
ENDMDL
MODEL 2
REMARK VINA RESULT:      -6.0      1.090      1.443
REMARK  Name = 
REMARK  1 active torsions:
REMARK  status: ('A' for Active; 'I' for Inactive)
REMARK    1  A    between atoms: C_11  and  C_13
REMARK                            x       y       z     vdW  Elec       q    Type
REMARK                         _______ _______ _______ _____ _____    ______ ____
ROOT
ATOM      1  C   UNL     1      23.809  28.145  27.609  0.00  0.00    +0.000 C 
ATOM      2  C   UNL     1      24.028  26.640  27.414  0.00  0.00    +0.000 C 
ATOM      3  C   UNL     1      22.582  26.065  27.461  0.00  0.00    +0.000 C 
ATOM      4  C   UNL     1      24.499  26.298  26.129  0.00  0.00    +0.000 C 
ATOM      5  C   UNL     1      26.088  26.078  25.941  0.00  0.00    +0.000 C 
ATOM      6  C   UNL     1      26.516  26.337  27.498  0.00  0.00    +0.000 C 
ATOM      7  C   UNL     1      25.799  25.266  28.227  0.00  0.00    +0.000 C 
ATOM      8  C   UNL     1      26.545  24.746  29.424  0.00  0.00    +0.000 C 
ATOM      9  C   UNL     1      25.324  24.212  27.288  0.00  0.00    +0.000 C 
ATOM     10  N   UNL     1      26.090  24.560  26.139  0.00  0.00    +0.000 N 
ATOM     11  C   UNL     1      26.735  23.612  25.333  0.00  0.00    +0.000 C 
ATOM     12  O   UNL     1      26.672  22.346  25.591  0.00  0.00    +0.000 OA
ATOM     13  C   UNL     1      24.570  26.036  28.667  0.00  0.00    +0.000 C 
ENDROOT
BRANCH  11  14
ATOM     14  C   UNL     1      27.521  23.924  24.159  0.00  0.00    +0.000 A 
ATOM     15  C   UNL     1      28.877  24.140  24.163  0.00  0.00    +0.000 A 
ATOM     16  C   UNL     1      29.584  24.436  23.013  0.00  0.00    +0.000 A 
ATOM     17  C   UNL     1      28.958  24.529  21.793  0.00  0.00    +0.000 A 
ATOM     18  N   UNL     1      29.686  24.835  20.590  0.00  0.00    +0.000 NA
ATOM     19  C   UNL     1      27.601  24.313  21.787  0.00  0.00    +0.000 A 
ATOM     20  C   UNL     1      26.890  24.016  22.938  0.00  0.00    +0.000 A 
ENDBRANCH  11  14
TORSDOF 1
ENDMDL
MODEL 3
REMARK VINA RESULT:      -5.9     18.989     22.504
REMARK  Name = 
REMARK  1 active torsions:
REMARK  status: ('A' for Active; 'I' for Inactive)
REMARK    1  A    between atoms: C_11  and  C_13
REMARK                            x       y       z     vdW  Elec       q    Type
REMARK                         _______ _______ _______ _____ _____    ______ ____
ROOT
ATOM      1  C   UNL     1      23.609  10.580  38.991  0.00  0.00    +0.000 C 
ATOM      2  C   UNL     1      22.224  10.564  38.333  0.00  0.00    +0.000 C 
ATOM      3  C   UNL     1      22.527  10.076  36.886  0.00  0.00    +0.000 C 
ATOM      4  C   UNL     1      21.359   9.582  38.858  0.00  0.00    +0.000 C 
ATOM      5  C   UNL     1      20.299  10.037  39.989  0.00  0.00    +0.000 C 
ATOM      6  C   UNL     1      20.699  11.622  40.020  0.00  0.00    +0.000 C 
ATOM      7  C   UNL     1      20.402  12.071  38.640  0.00  0.00    +0.000 C 
ATOM      8  C   UNL     1      19.909  13.488  38.559  0.00  0.00    +0.000 C 
ATOM      9  C   UNL     1      19.547  11.077  37.933  0.00  0.00    +0.000 C 
ATOM     10  N   UNL     1      19.122  10.299  39.046  0.00  0.00    +0.000 N 
ATOM     11  C   UNL     1      17.802   9.857  39.213  0.00  0.00    +0.000 C 
ATOM     12  O   UNL     1      16.879  10.136  38.351  0.00  0.00    +0.000 OA
ATOM     13  C   UNL     1      21.785  11.958  38.031  0.00  0.00    +0.000 C 
ENDROOT
BRANCH  11  14
ATOM     14  C   UNL     1      17.331   9.065  40.328  0.00  0.00    +0.000 A 
ATOM     15  C   UNL     1      17.633   7.740  40.527  0.00  0.00    +0.000 A 
ATOM     16  C   UNL     1      17.157   7.025  41.609  0.00  0.00    +0.000 A 
ATOM     17  C   UNL     1      16.347   7.611  42.553  0.00  0.00    +0.000 A 
ATOM     18  N   UNL     1      15.847   6.875  43.684  0.00  0.00    +0.000 NA
ATOM     19  C   UNL     1      16.043   8.937  42.356  0.00  0.00    +0.000 A 
ATOM     20  C   UNL     1      16.519   9.655  41.272  0.00  0.00    +0.000 A 
ENDBRANCH  11  14
TORSDOF 1
ENDMDL
MODEL 4
REMARK VINA RESULT:      -5.9      3.145      5.000
REMARK  Name = 
REMARK  1 active torsions:
REMARK  status: ('A' for Active; 'I' for Inactive)
REMARK    1  A    between atoms: C_11  and  C_13
REMARK                            x       y       z     vdW  Elec       q    Type
REMARK                         _______ _______ _______ _____ _____    ______ ____
ROOT
ATOM      1  C   UNL     1      28.588  24.217  27.636  0.00  0.00    +0.000 C 
ATOM      2  C   UNL     1      28.798  23.674  26.218  0.00  0.00    +0.000 C 
ATOM      3  C   UNL     1      28.047  22.311  26.248  0.00  0.00    +0.000 C 
ATOM      4  C   UNL     1      28.132  24.418  25.222  0.00  0.00    +0.000 C 
ATOM      5  C   UNL     1      28.982  25.531  24.417  0.00  0.00    +0.000 C 
ATOM      6  C   UNL     1      30.417  25.266  25.153  0.00  0.00    +0.000 C 
ATOM      7  C   UNL     1      30.715  23.856  24.812  0.00  0.00    +0.000 C 
ATOM      8  C   UNL     1      32.181  23.575  24.635  0.00  0.00    +0.000 C 
ATOM      9  C   UNL     1      29.855  23.390  23.690  0.00  0.00    +0.000 C 
ATOM     10  N   UNL     1      29.369  24.646  23.229  0.00  0.00    +0.000 N 
ATOM     11  C   UNL     1      29.276  24.980  21.871  0.00  0.00    +0.000 C 
ATOM     12  O   UNL     1      29.632  24.154  20.942  0.00  0.00    +0.000 OA
ATOM     13  C   UNL     1      30.197  23.176  26.063  0.00  0.00    +0.000 C 
ENDROOT
BRANCH  11  14
ATOM     14  C   UNL     1      28.787  26.244  21.363  0.00  0.00    +0.000 A 
ATOM     15  C   UNL     1      29.585  27.245  20.866  0.00  0.00    +0.000 A 
ATOM     16  C   UNL     1      29.070  28.437  20.392  0.00  0.00    +0.000 A 
ATOM     17  C   UNL     1      27.717  28.682  20.393  0.00  0.00    +0.000 A 
ATOM     18  N   UNL     1      27.172  29.919  19.900  0.00  0.00    +0.000 NA
ATOM     19  C   UNL     1      26.918  27.681  20.890  0.00  0.00    +0.000 A 
ATOM     20  C   UNL     1      27.431  26.486  21.366  0.00  0.00    +0.000 A 
ENDBRANCH  11  14
TORSDOF 1
ENDMDL
MODEL 5
REMARK VINA RESULT:      -5.8     19.643     22.112
REMARK  Name = 
REMARK  1 active torsions:
REMARK  status: ('A' for Active; 'I' for Inactive)
REMARK    1  A    between atoms: C_11  and  C_13
REMARK                            x       y       z     vdW  Elec       q    Type
REMARK                         _______ _______ _______ _____ _____    ______ ____
ROOT
ATOM      1  C   UNL     1      17.779   6.167  42.013  0.00  0.00    +0.000 C 
ATOM      2  C   UNL     1      18.888   6.859  41.212  0.00  0.00    +0.000 C 
ATOM      3  C   UNL     1      20.009   5.780  41.159  0.00  0.00    +0.000 C 
ATOM      4  C   UNL     1      18.555   7.083  39.860  0.00  0.00    +0.000 C 
ATOM      5  C   UNL     1      17.996   8.543  39.453  0.00  0.00    +0.000 C 
ATOM      6  C   UNL     1      18.102   9.224  40.935  0.00  0.00    +0.000 C 
ATOM      7  C   UNL     1      19.550   9.149  41.238  0.00  0.00    +0.000 C 
ATOM      8  C   UNL     1      20.058  10.307  42.050  0.00  0.00    +0.000 C 
ATOM      9  C   UNL     1      20.334   8.868  40.003  0.00  0.00    +0.000 C 
ATOM     10  N   UNL     1      19.337   9.143  39.024  0.00  0.00    +0.000 N 
ATOM     11  C   UNL     1      19.595   9.863  37.850  0.00  0.00    +0.000 C 
ATOM     12  O   UNL     1      20.772  10.329  37.583  0.00  0.00    +0.000 OA
ATOM     13  C   UNL     1      19.574   7.877  42.061  0.00  0.00    +0.000 C 
ENDROOT
BRANCH  11  14
ATOM     14  C   UNL     1      18.611  10.162  36.832  0.00  0.00    +0.000 A 
ATOM     15  C   UNL     1      18.413   9.415  35.697  0.00  0.00    +0.000 A 
ATOM     16  C   UNL     1      17.460   9.743  34.751  0.00  0.00    +0.000 A 
ATOM     17  C   UNL     1      16.652  10.845  34.901  0.00  0.00    +0.000 A 
ATOM     18  N   UNL     1      15.656  11.193  33.924  0.00  0.00    +0.000 NA
ATOM     19  C   UNL     1      16.849  11.593  36.037  0.00  0.00    +0.000 A 
ATOM     20  C   UNL     1      17.804  11.267  36.986  0.00  0.00    +0.000 A 
ENDBRANCH  11  14
TORSDOF 1
ENDMDL
MODEL 6
REMARK VINA RESULT:      -5.8      2.080      6.276
REMARK  Name = 
REMARK  1 active torsions:
REMARK  status: ('A' for Active; 'I' for Inactive)
REMARK    1  A    between atoms: C_11  and  C_13
REMARK                            x       y       z     vdW  Elec       q    Type
REMARK                         _______ _______ _______ _____ _____    ______ ____
ROOT
ATOM      1  C   UNL     1      32.034  25.359  24.892  0.00  0.00    +0.000 C 
ATOM      2  C   UNL     1      30.812  24.449  24.725  0.00  0.00    +0.000 C 
ATOM      3  C   UNL     1      31.446  23.059  24.423  0.00  0.00    +0.000 C 
ATOM      4  C   UNL     1      30.087  24.249  25.919  0.00  0.00    +0.000 C 
ATOM      5  C   UNL     1      28.783  25.168  26.174  0.00  0.00    +0.000 C 
ATOM      6  C   UNL     1      28.843  26.002  24.768  0.00  0.00    +0.000 C 
ATOM      7  C   UNL     1      28.697  24.944  23.742  0.00  0.00    +0.000 C 
ATOM      8  C   UNL     1      27.948  25.390  22.518  0.00  0.00    +0.000 C 
ATOM      9  C   UNL     1      28.192  23.682  24.351  0.00  0.00    +0.000 C 
ATOM     10  N   UNL     1      27.752  24.187  25.608  0.00  0.00    +0.000 N 
ATOM     11  C   UNL     1      26.541  23.811  26.203  0.00  0.00    +0.000 C 
ATOM     12  O   UNL     1      25.738  22.970  25.636  0.00  0.00    +0.000 OA
ATOM     13  C   UNL     1      30.156  24.707  23.410  0.00  0.00    +0.000 C 
ENDROOT
BRANCH  11  14
ATOM     14  C   UNL     1      26.059  24.300  27.477  0.00  0.00    +0.000 A 
ATOM     15  C   UNL     1      26.384  23.755  28.694  0.00  0.00    +0.000 A 
ATOM     16  C   UNL     1      25.896  24.258  29.886  0.00  0.00    +0.000 A 
ATOM     17  C   UNL     1      25.053  25.343  29.912  0.00  0.00    +0.000 A 
ATOM     18  N   UNL     1      24.542  25.875  31.147  0.00  0.00    +0.000 NA
ATOM     19  C   UNL     1      24.728  25.891  28.694  0.00  0.00    +0.000 A 
ATOM     20  C   UNL     1      25.215  25.388  27.499  0.00  0.00    +0.000 A 
ENDBRANCH  11  14
TORSDOF 1
ENDMDL
MODEL 7
REMARK VINA RESULT:      -5.7     23.274     25.708
REMARK  Name = 
REMARK  1 active torsions:
REMARK  status: ('A' for Active; 'I' for Inactive)
REMARK    1  A    between atoms: C_11  and  C_13
REMARK                            x       y       z     vdW  Elec       q    Type
REMARK                         _______ _______ _______ _____ _____    ______ ____
ROOT
ATOM      1  C   UNL     1      35.382   5.991  37.545  0.00  0.00    +0.000 C 
ATOM      2  C   UNL     1      35.321   5.344  36.156  0.00  0.00    +0.000 C 
ATOM      3  C   UNL     1      36.647   5.815  35.490  0.00  0.00    +0.000 C 
ATOM      4  C   UNL     1      35.424   3.937  36.182  0.00  0.00    +0.000 C 
ATOM      5  C   UNL     1      34.056   3.079  36.126  0.00  0.00    +0.000 C 
ATOM      6  C   UNL     1      33.026   4.344  36.012  0.00  0.00    +0.000 C 
ATOM      7  C   UNL     1      33.431   4.996  34.746  0.00  0.00    +0.000 C 
ATOM      8  C   UNL     1      32.287   5.616  33.993  0.00  0.00    +0.000 C 
ATOM      9  C   UNL     1      34.286   4.088  33.933  0.00  0.00    +0.000 C 
ATOM     10  N   UNL     1      34.036   2.861  34.610  0.00  0.00    +0.000 N 
ATOM     11  C   UNL     1      33.810   1.650  33.943  0.00  0.00    +0.000 C 
ATOM     12  O   UNL     1      33.815   1.575  32.651  0.00  0.00    +0.000 OA
ATOM     13  C   UNL     1      34.345   6.073  35.294  0.00  0.00    +0.000 C 
ENDROOT
BRANCH  11  14
ATOM     14  C   UNL     1      33.553   0.383  34.593  0.00  0.00    +0.000 A 
ATOM     15  C   UNL     1      32.303  -0.105  34.883  0.00  0.00    +0.000 A 
ATOM     16  C   UNL     1      32.109  -1.323  35.507  0.00  0.00    +0.000 A 
ATOM     17  C   UNL     1      33.170  -2.116  35.873  0.00  0.00    +0.000 A 
ATOM     18  N   UNL     1      32.978  -3.385  36.522  0.00  0.00    +0.000 NA
ATOM     19  C   UNL     1      34.422  -1.629  35.584  0.00  0.00    +0.000 A 
ATOM     20  C   UNL     1      34.619  -0.408  34.959  0.00  0.00    +0.000 A 
ENDBRANCH  11  14
TORSDOF 1
ENDMDL
MODEL 8
REMARK VINA RESULT:      -5.7     13.185     15.034
REMARK  Name = 
REMARK  1 active torsions:
REMARK  status: ('A' for Active; 'I' for Inactive)
REMARK    1  A    between atoms: C_11  and  C_13
REMARK                            x       y       z     vdW  Elec       q    Type
REMARK                         _______ _______ _______ _____ _____    ______ ____
ROOT
ATOM      1  C   UNL     1      19.467  17.603  40.971  0.00  0.00    +0.000 C 
ATOM      2  C   UNL     1      20.301  18.261  39.865  0.00  0.00    +0.000 C 
ATOM      3  C   UNL     1      21.329  17.153  39.492  0.00  0.00    +0.000 C 
ATOM      4  C   UNL     1      19.583  18.486  38.672  0.00  0.00    +0.000 C 
ATOM      5  C   UNL     1      18.962  19.958  38.432  0.00  0.00    +0.000 C 
ATOM      6  C   UNL     1      19.523  20.644  39.805  0.00  0.00    +0.000 C 
ATOM      7  C   UNL     1      20.993  20.533  39.661  0.00  0.00    +0.000 C 
ATOM      8  C   UNL     1      21.748  21.682  40.269  0.00  0.00    +0.000 C 
ATOM      9  C   UNL     1      21.364  20.225  38.252  0.00  0.00    +0.000 C 
ATOM     10  N   UNL     1      20.127  20.520  37.613  0.00  0.00    +0.000 N 
ATOM     11  C   UNL     1      20.037  21.227  36.406  0.00  0.00    +0.000 C 
ATOM     12  O   UNL     1      21.091  21.660  35.793  0.00  0.00    +0.000 OA
ATOM     13  C   UNL     1      21.233  19.266  40.456  0.00  0.00    +0.000 C 
ENDROOT
BRANCH  11  14
ATOM     14  C   UNL     1      18.801  21.545  35.725  0.00  0.00    +0.000 A 
ATOM     15  C   UNL     1      17.857  22.426  36.194  0.00  0.00    +0.000 A 
ATOM     16  C   UNL     1      16.690  22.697  35.506  0.00  0.00    +0.000 A 
ATOM     17  C   UNL     1      16.411  22.092  34.304  0.00  0.00    +0.000 A 
ATOM     18  N   UNL     1      15.200  22.369  33.579  0.00  0.00    +0.000 NA
ATOM     19  C   UNL     1      17.354  21.211  33.833  0.00  0.00    +0.000 A 
ATOM     20  C   UNL     1      18.525  20.937  34.521  0.00  0.00    +0.000 A 
ENDBRANCH  11  14
TORSDOF 1
ENDMDL
MODEL 9
REMARK VINA RESULT:      -5.7     32.262     34.063
REMARK  Name = 
REMARK  1 active torsions:
REMARK  status: ('A' for Active; 'I' for Inactive)
REMARK    1  A    between atoms: C_11  and  C_13
REMARK                            x       y       z     vdW  Elec       q    Type
REMARK                         _______ _______ _______ _____ _____    ______ ____
ROOT
ATOM      1  C   UNL     1      22.069 -10.647  19.998  0.00  0.00    +0.000 C 
ATOM      2  C   UNL     1      22.704  -9.556  20.868  0.00  0.00    +0.000 C 
ATOM      3  C   UNL     1      23.382  -8.622  19.823  0.00  0.00    +0.000 C 
ATOM      4  C   UNL     1      21.763  -8.729  21.516  0.00  0.00    +0.000 C 
ATOM      5  C   UNL     1      21.383  -9.075  23.048  0.00  0.00    +0.000 C 
ATOM      6  C   UNL     1      22.390 -10.351  23.226  0.00  0.00    +0.000 C 
ATOM      7  C   UNL     1      23.729  -9.757  23.011  0.00  0.00    +0.000 C 
ATOM      8  C   UNL     1      24.811 -10.392  23.838  0.00  0.00    +0.000 C 
ATOM      9  C   UNL     1      23.670  -8.272  23.106  0.00  0.00    +0.000 C 
ATOM     10  N   UNL     1      22.388  -8.125  23.706  0.00  0.00    +0.000 N 
ATOM     11  C   UNL     1      22.129  -7.226  24.750  0.00  0.00    +0.000 C 
ATOM     12  O   UNL     1      23.055  -6.465  25.236  0.00  0.00    +0.000 OA
ATOM     13  C   UNL     1      23.924 -10.087  21.545  0.00  0.00    +0.000 C 
ENDROOT
BRANCH  11  14
ATOM     14  C   UNL     1      20.842  -7.047  25.386  0.00  0.00    +0.000 A 
ATOM     15  C   UNL     1      20.024  -8.072  25.794  0.00  0.00    +0.000 A 
ATOM     16  C   UNL     1      18.801  -7.850  26.397  0.00  0.00    +0.000 A 
ATOM     17  C   UNL     1      18.336  -6.576  26.623  0.00  0.00    +0.000 A 
ATOM     18  N   UNL     1      17.065  -6.335  27.252  0.00  0.00    +0.000 NA
ATOM     19  C   UNL     1      19.152  -5.549  26.215  0.00  0.00    +0.000 A 
ATOM     20  C   UNL     1      20.379  -5.769  25.610  0.00  0.00    +0.000 A 
ENDBRANCH  11  14
TORSDOF 1
ENDMDL
MODEL 10
REMARK VINA RESULT:      -5.6      2.198      6.139
REMARK  Name = 
REMARK  1 active torsions:
REMARK  status: ('A' for Active; 'I' for Inactive)
REMARK    1  A    between atoms: C_11  and  C_13
REMARK                            x       y       z     vdW  Elec       q    Type
REMARK                         _______ _______ _______ _____ _____    ______ ____
ROOT
ATOM      1  C   UNL     1      27.700  27.304  22.734  0.00  0.00    +0.000 C 
ATOM      2  C   UNL     1      28.056  25.909  23.261  0.00  0.00    +0.000 C 
ATOM      3  C   UNL     1      29.429  25.617  22.587  0.00  0.00    +0.000 C 
ATOM      4  C   UNL     1      28.333  25.879  24.644  0.00  0.00    +0.000 C 
ATOM      5  C   UNL     1      27.141  25.439  25.642  0.00  0.00    +0.000 C 
ATOM      6  C   UNL     1      26.011  25.148  24.497  0.00  0.00    +0.000 C 
ATOM      7  C   UNL     1      26.616  24.059  23.696  0.00  0.00    +0.000 C 
ATOM      8  C   UNL     1      25.612  23.085  23.146  0.00  0.00    +0.000 C 
ATOM      9  C   UNL     1      27.751  23.432  24.428  0.00  0.00    +0.000 C 
ATOM     10  N   UNL     1      27.510  23.956  25.729  0.00  0.00    +0.000 N 
ATOM     11  C   UNL     1      27.608  23.185  26.896  0.00  0.00    +0.000 C 
ATOM     12  O   UNL     1      27.929  21.933  26.857  0.00  0.00    +0.000 OA
ATOM     13  C   UNL     1      27.226  24.876  22.575  0.00  0.00    +0.000 C 
ENDROOT
BRANCH  11  14
ATOM     14  C   UNL     1      27.372  23.680  28.235  0.00  0.00    +0.000 A 
ATOM     15  C   UNL     1      28.359  24.055  29.112  0.00  0.00    +0.000 A 
ATOM     16  C   UNL     1      28.083  24.521  30.384  0.00  0.00    +0.000 A 
ATOM     17  C   UNL     1      26.791  24.634  30.839  0.00  0.00    +0.000 A 
ATOM     18  N   UNL     1      26.493  25.119  32.160  0.00  0.00    +0.000 NA
ATOM     19  C   UNL     1      25.802  24.259  29.962  0.00  0.00    +0.000 A 
ATOM     20  C   UNL     1      26.076  23.791  28.687  0.00  0.00    +0.000 A 
ENDBRANCH  11  14
TORSDOF 1
ENDMDL
