MODEL 1
REMARK VINA RESULT:      -6.8      0.000      0.000
REMARK  Name = 
REMARK  2 active torsions:
REMARK  status: ('A' for Active; 'I' for Inactive)
REMARK    1  A    between atoms: O_2  and  C_3
REMARK    2  A    between atoms: C_6  and  C_7
REMARK                            x       y       z     vdW  Elec       q    Type
REMARK                         _______ _______ _______ _____ _____    ______ ____
ROOT
ATOM      1  C   UNL     1      18.413   9.313  38.127  0.00  0.00    +0.000 C 
ATOM      2  C   UNL     1      17.851   9.327  39.523  0.00  0.00    +0.000 C 
ATOM      3  C   UNL     1      18.582   8.711  40.675  0.00  0.00    +0.000 C 
ATOM      4  C   UNL     1      16.719   9.865  39.805  0.00  0.00    +0.000 C 
ATOM      5  O   UNL     1      16.316   9.800  41.179  0.00  0.00    +0.000 OA
ATOM      6  O   UNL     1      15.857  10.497  38.916  0.00  0.00    +0.000 OA
ATOM      7  C   UNL     1      16.303  10.530  37.589  0.00  0.00    +0.000 A 
ATOM      8  C   UNL     1      15.466  11.161  36.641  0.00  0.00    +0.000 A 
ATOM      9  C   UNL     1      15.846  11.228  35.319  0.00  0.00    +0.000 A 
ATOM     10  C   UNL     1      17.040  10.683  34.911  0.00  0.00    +0.000 A 
ATOM     11  C   UNL     1      17.824  10.083  35.847  0.00  0.00    +0.000 A 
ATOM     12  C   UNL     1      17.450  10.006  37.200  0.00  0.00    +0.000 A 
ATOM     13  O   UNL     1      17.168  10.897  33.519  0.00  0.00    +0.000 OA
ATOM     14  C   UNL     1      16.214  11.919  33.198  0.00  0.00    +0.000 C 
ATOM     15  O   UNL     1      15.217  11.784  34.204  0.00  0.00    +0.000 OA
ENDROOT
BRANCH   1  19
ATOM     16  C   UNL     1      21.914  11.798  38.021  0.00  0.00    +0.000 A 
ATOM     17  C   UNL     1      21.971  10.483  37.677  0.00  0.00    +0.000 A 
ATOM     18  C   UNL     1      20.771   9.746  37.742  0.00  0.00    +0.000 A 
ATOM     19  C   UNL     1      19.601  10.347  38.139  0.00  0.00    +0.000 A 
ATOM     20  C   UNL     1      19.608  11.601  38.454  0.00  0.00    +0.000 A 
ATOM     21  C   UNL     1      20.750  12.402  38.418  0.00  0.00    +0.000 A 
BRANCH  16  23
ATOM     22  C   UNL     1      24.314  11.988  37.597  0.00  0.00    +0.000 C 
ATOM     23  O   UNL     1      23.070  12.569  37.973  0.00  0.00    +0.000 OA
ENDBRANCH  16  23
ENDBRANCH   1  19
TORSDOF 2
ENDMDL
MODEL 2
REMARK VINA RESULT:      -6.7     18.789     21.330
REMARK  Name = 
REMARK  2 active torsions:
REMARK  status: ('A' for Active; 'I' for Inactive)
REMARK    1  A    between atoms: O_2  and  C_3
REMARK    2  A    between atoms: C_6  and  C_7
REMARK                            x       y       z     vdW  Elec       q    Type
REMARK                         _______ _______ _______ _____ _____    ______ ____
ROOT
ATOM      1  C   UNL     1      30.755  22.539  26.068  0.00  0.00    +0.000 C 
ATOM      2  C   UNL     1      30.531  22.451  27.554  0.00  0.00    +0.000 C 
ATOM      3  C   UNL     1      31.654  22.181  28.507  0.00  0.00    +0.000 C 
ATOM      4  C   UNL     1      29.371  22.600  28.086  0.00  0.00    +0.000 C 
ATOM      5  O   UNL     1      29.316  22.488  29.514  0.00  0.00    +0.000 OA
ATOM      6  O   UNL     1      28.179  22.857  27.419  0.00  0.00    +0.000 OA
ATOM      7  C   UNL     1      28.296  22.956  26.027  0.00  0.00    +0.000 A 
ATOM      8  C   UNL     1      27.115  23.217  25.296  0.00  0.00    +0.000 A 
ATOM      9  C   UNL     1      27.160  23.327  23.924  0.00  0.00    +0.000 A 
ATOM     10  C   UNL     1      28.352  23.183  23.255  0.00  0.00    +0.000 A 
ATOM     11  C   UNL     1      29.472  22.933  23.986  0.00  0.00    +0.000 A 
ATOM     12  C   UNL     1      29.442  22.818  25.386  0.00  0.00    +0.000 A 
ATOM     13  O   UNL     1      28.101  23.343  21.872  0.00  0.00    +0.000 OA
ATOM     14  C   UNL     1      26.815  23.972  21.785  0.00  0.00    +0.000 C 
ATOM     15  O   UNL     1      26.160  23.575  22.984  0.00  0.00    +0.000 OA
ENDROOT
BRANCH   1  19
ATOM     16  C   UNL     1      33.105  26.033  25.218  0.00  0.00    +0.000 A 
ATOM     17  C   UNL     1      33.507  24.796  24.819  0.00  0.00    +0.000 A 
ATOM     18  C   UNL     1      32.671  23.709  25.142  0.00  0.00    +0.000 A 
ATOM     19  C   UNL     1      31.501  23.907  25.833  0.00  0.00    +0.000 A 
ATOM     20  C   UNL     1      31.170  25.106  26.188  0.00  0.00    +0.000 A 
ATOM     21  C   UNL     1      31.938  26.236  25.908  0.00  0.00    +0.000 A 
BRANCH  16  23
ATOM     22  C   UNL     1      35.313  27.040  24.934  0.00  0.00    +0.000 C 
ATOM     23  O   UNL     1      33.894  27.139  24.923  0.00  0.00    +0.000 OA
ENDBRANCH  16  23
ENDBRANCH   1  19
TORSDOF 2
ENDMDL
MODEL 3
REMARK VINA RESULT:      -6.6      1.517      5.669
REMARK  Name = 
REMARK  2 active torsions:
REMARK  status: ('A' for Active; 'I' for Inactive)
REMARK    1  A    between atoms: O_2  and  C_3
REMARK    2  A    between atoms: C_6  and  C_7
REMARK                            x       y       z     vdW  Elec       q    Type
REMARK                         _______ _______ _______ _____ _____    ______ ____
ROOT
ATOM      1  C   UNL     1      18.346  10.734  38.554  0.00  0.00    +0.000 C 
ATOM      2  C   UNL     1      17.514   9.765  39.351  0.00  0.00    +0.000 C 
ATOM      3  C   UNL     1      16.034   9.933  39.501  0.00  0.00    +0.000 C 
ATOM      4  C   UNL     1      18.023   8.745  39.943  0.00  0.00    +0.000 C 
ATOM      5  O   UNL     1      17.104   7.913  40.664  0.00  0.00    +0.000 OA
ATOM      6  O   UNL     1      19.363   8.375  39.954  0.00  0.00    +0.000 OA
ATOM      7  C   UNL     1      20.212   9.224  39.234  0.00  0.00    +0.000 A 
ATOM      8  C   UNL     1      21.586   8.896  39.209  0.00  0.00    +0.000 A 
ATOM      9  C   UNL     1      22.475   9.690  38.519  0.00  0.00    +0.000 A 
ATOM     10  C   UNL     1      22.035  10.807  37.850  0.00  0.00    +0.000 A 
ATOM     11  C   UNL     1      20.706  11.096  37.891  0.00  0.00    +0.000 A 
ATOM     12  C   UNL     1      19.786  10.296  38.591  0.00  0.00    +0.000 A 
ATOM     13  O   UNL     1      23.151  11.421  37.239  0.00  0.00    +0.000 OA
ATOM     14  C   UNL     1      24.185  10.427  37.237  0.00  0.00    +0.000 C 
ATOM     15  O   UNL     1      23.855   9.591  38.340  0.00  0.00    +0.000 OA
ENDROOT
BRANCH   1  19
ATOM     16  C   UNL     1      17.231  10.382  34.421  0.00  0.00    +0.000 A 
ATOM     17  C   UNL     1      17.021  11.534  35.114  0.00  0.00    +0.000 A 
ATOM     18  C   UNL     1      17.420  11.557  36.465  0.00  0.00    +0.000 A 
ATOM     19  C   UNL     1      17.995  10.452  37.045  0.00  0.00    +0.000 A 
ATOM     20  C   UNL     1      18.170   9.384  36.336  0.00  0.00    +0.000 A 
ATOM     21  C   UNL     1      17.805   9.277  34.994  0.00  0.00    +0.000 A 
BRANCH  16  23
ATOM     22  C   UNL     1      16.009  11.299  32.514  0.00  0.00    +0.000 C 
ATOM     23  O   UNL     1      16.856  10.308  33.085  0.00  0.00    +0.000 OA
ENDBRANCH  16  23
ENDBRANCH   1  19
TORSDOF 2
ENDMDL
MODEL 4
REMARK VINA RESULT:      -6.6     30.040     33.020
REMARK  Name = 
REMARK  2 active torsions:
REMARK  status: ('A' for Active; 'I' for Inactive)
REMARK    1  A    between atoms: O_2  and  C_3
REMARK    2  A    between atoms: C_6  and  C_7
REMARK                            x       y       z     vdW  Elec       q    Type
REMARK                         _______ _______ _______ _____ _____    ______ ____
ROOT
ATOM      1  C   UNL     1      32.147  22.529  10.381  0.00  0.00    +0.000 C 
ATOM      2  C   UNL     1      31.058  22.576  11.419  0.00  0.00    +0.000 C 
ATOM      3  C   UNL     1      29.863  23.464  11.271  0.00  0.00    +0.000 C 
ATOM      4  C   UNL     1      31.093  21.860  12.486  0.00  0.00    +0.000 C 
ATOM      5  O   UNL     1      29.984  22.014  13.382  0.00  0.00    +0.000 OA
ATOM      6  O   UNL     1      32.090  20.964  12.852  0.00  0.00    +0.000 OA
ATOM      7  C   UNL     1      33.146  20.856  11.939  0.00  0.00    +0.000 A 
ATOM      8  C   UNL     1      34.189  19.958  12.259  0.00  0.00    +0.000 A 
ATOM      9  C   UNL     1      35.258  19.805  11.404  0.00  0.00    +0.000 A 
ATOM     10  C   UNL     1      35.320  20.524  10.234  0.00  0.00    +0.000 A 
ATOM     11  C   UNL     1      34.300  21.380   9.953  0.00  0.00    +0.000 A 
ATOM     12  C   UNL     1      33.203  21.547  10.816  0.00  0.00    +0.000 A 
ATOM     13  O   UNL     1      36.512  20.169   9.563  0.00  0.00    +0.000 OA
ATOM     14  C   UNL     1      36.946  18.944  10.171  0.00  0.00    +0.000 C 
ATOM     15  O   UNL     1      36.395  19.001  11.482  0.00  0.00    +0.000 OA
ENDROOT
BRANCH   1  19
ATOM     16  C   UNL     1      30.609  20.775   6.775  0.00  0.00    +0.000 A 
ATOM     17  C   UNL     1      31.285  21.956   6.754  0.00  0.00    +0.000 A 
ATOM     18  C   UNL     1      31.753  22.454   7.986  0.00  0.00    +0.000 A 
ATOM     19  C   UNL     1      31.527  21.763   9.152  0.00  0.00    +0.000 A 
ATOM     20  C   UNL     1      30.877  20.646   9.110  0.00  0.00    +0.000 A 
ATOM     21  C   UNL     1      30.380  20.083   7.935  0.00  0.00    +0.000 A 
BRANCH  16  23
ATOM     22  C   UNL     1      29.425  19.002   5.580  0.00  0.00    +0.000 C 
ATOM     23  O   UNL     1      30.127  20.240   5.585  0.00  0.00    +0.000 OA
ENDBRANCH  16  23
ENDBRANCH   1  19
TORSDOF 2
ENDMDL
MODEL 5
REMARK VINA RESULT:      -6.6     16.767     19.487
REMARK  Name = 
REMARK  2 active torsions:
REMARK  status: ('A' for Active; 'I' for Inactive)
REMARK    1  A    between atoms: O_2  and  C_3
REMARK    2  A    between atoms: C_6  and  C_7
REMARK                            x       y       z     vdW  Elec       q    Type
REMARK                         _______ _______ _______ _____ _____    ______ ____
ROOT
ATOM      1  C   UNL     1      28.282  22.309  27.822  0.00  0.00    +0.000 C 
ATOM      2  C   UNL     1      27.459  22.666  29.031  0.00  0.00    +0.000 C 
ATOM      3  C   UNL     1      27.856  22.243  30.410  0.00  0.00    +0.000 C 
ATOM      4  C   UNL     1      26.374  23.350  28.947  0.00  0.00    +0.000 C 
ATOM      5  O   UNL     1      25.699  23.610  30.185  0.00  0.00    +0.000 OA
ATOM      6  O   UNL     1      25.799  23.855  27.787  0.00  0.00    +0.000 OA
ATOM      7  C   UNL     1      26.503  23.569  26.611  0.00  0.00    +0.000 A 
ATOM      8  C   UNL     1      25.964  24.058  25.399  0.00  0.00    +0.000 A 
ATOM      9  C   UNL     1      26.607  23.812  24.206  0.00  0.00    +0.000 A 
ATOM     10  C   UNL     1      27.776  23.089  24.184  0.00  0.00    +0.000 A 
ATOM     11  C   UNL     1      28.270  22.631  25.366  0.00  0.00    +0.000 A 
ATOM     12  C   UNL     1      27.626  22.874  26.591  0.00  0.00    +0.000 A 
ATOM     13  O   UNL     1      28.207  22.993  22.841  0.00  0.00    +0.000 OA
ATOM     14  C   UNL     1      27.481  24.006  22.131  0.00  0.00    +0.000 C 
ATOM     15  O   UNL     1      26.293  24.174  22.896  0.00  0.00    +0.000 OA
ENDROOT
BRANCH   1  19
ATOM     16  C   UNL     1      32.031  24.394  28.046  0.00  0.00    +0.000 A 
ATOM     17  C   UNL     1      31.980  23.035  27.991  0.00  0.00    +0.000 A 
ATOM     18  C   UNL     1      30.706  22.439  27.918  0.00  0.00    +0.000 A 
ATOM     19  C   UNL     1      29.570  23.212  27.906  0.00  0.00    +0.000 A 
ATOM     20  C   UNL     1      29.680  24.499  27.961  0.00  0.00    +0.000 A 
ATOM     21  C   UNL     1      30.901  25.170  28.034  0.00  0.00    +0.000 A 
BRANCH  16  23
ATOM     22  C   UNL     1      34.470  24.297  27.942  0.00  0.00    +0.000 C 
ATOM     23  O   UNL     1      33.264  25.032  28.118  0.00  0.00    +0.000 OA
ENDBRANCH  16  23
ENDBRANCH   1  19
TORSDOF 2
ENDMDL
MODEL 6
REMARK VINA RESULT:      -6.5     18.821     21.516
REMARK  Name = 
REMARK  2 active torsions:
REMARK  status: ('A' for Active; 'I' for Inactive)
REMARK    1  A    between atoms: O_2  and  C_3
REMARK    2  A    between atoms: C_6  and  C_7
REMARK                            x       y       z     vdW  Elec       q    Type
REMARK                         _______ _______ _______ _____ _____    ______ ____
ROOT
ATOM      1  C   UNL     1      27.260  23.443  24.044  0.00  0.00    +0.000 C 
ATOM      2  C   UNL     1      27.801  23.759  22.675  0.00  0.00    +0.000 C 
ATOM      3  C   UNL     1      26.898  24.032  21.513  0.00  0.00    +0.000 C 
ATOM      4  C   UNL     1      29.060  23.813  22.428  0.00  0.00    +0.000 C 
ATOM      5  O   UNL     1      29.423  24.125  21.077  0.00  0.00    +0.000 OA
ATOM      6  O   UNL     1      30.093  23.598  23.333  0.00  0.00    +0.000 OA
ATOM      7  C   UNL     1      29.679  23.298  24.636  0.00  0.00    +0.000 A 
ATOM      8  C   UNL     1      30.687  23.071  25.600  0.00  0.00    +0.000 A 
ATOM      9  C   UNL     1      30.347  22.770  26.901  0.00  0.00    +0.000 A 
ATOM     10  C   UNL     1      29.026  22.688  27.271  0.00  0.00    +0.000 A 
ATOM     11  C   UNL     1      28.078  22.913  26.322  0.00  0.00    +0.000 A 
ATOM     12  C   UNL     1      28.409  23.220  24.990  0.00  0.00    +0.000 A 
ATOM     13  O   UNL     1      28.975  22.370  28.648  0.00  0.00    +0.000 OA
ATOM     14  C   UNL     1      30.285  22.655  29.157  0.00  0.00    +0.000 C 
ATOM     15  O   UNL     1      31.132  22.507  28.023  0.00  0.00    +0.000 OA
ENDROOT
BRANCH   1  19
ATOM     16  C   UNL     1      25.303  26.946  25.577  0.00  0.00    +0.000 A 
ATOM     17  C   UNL     1      24.619  25.788  25.371  0.00  0.00    +0.000 A 
ATOM     18  C   UNL     1      25.345  24.691  24.866  0.00  0.00    +0.000 A 
ATOM     19  C   UNL     1      26.688  24.803  24.597  0.00  0.00    +0.000 A 
ATOM     20  C   UNL     1      27.284  25.930  24.812  0.00  0.00    +0.000 A 
ATOM     21  C   UNL     1      26.642  27.063  25.310  0.00  0.00    +0.000 A 
BRANCH  16  23
ATOM     22  C   UNL     1      23.666  27.919  27.109  0.00  0.00    +0.000 C 
ATOM     23  O   UNL     1      24.633  28.059  26.074  0.00  0.00    +0.000 OA
ENDBRANCH  16  23
ENDBRANCH   1  19
TORSDOF 2
ENDMDL
MODEL 7
REMARK VINA RESULT:      -6.4     30.565     33.673
REMARK  Name = 
REMARK  2 active torsions:
REMARK  status: ('A' for Active; 'I' for Inactive)
REMARK    1  A    between atoms: O_2  and  C_3
REMARK    2  A    between atoms: C_6  and  C_7
REMARK                            x       y       z     vdW  Elec       q    Type
REMARK                         _______ _______ _______ _____ _____    ______ ____
ROOT
ATOM      1  C   UNL     1      32.223  21.127   9.132  0.00  0.00    +0.000 C 
ATOM      2  C   UNL     1      31.349  21.029   7.911  0.00  0.00    +0.000 C 
ATOM      3  C   UNL     1      30.279  19.990   7.786  0.00  0.00    +0.000 C 
ATOM      4  C   UNL     1      31.470  21.827   6.911  0.00  0.00    +0.000 C 
ATOM      5  O   UNL     1      30.565  21.610   5.820  0.00  0.00    +0.000 OA
ATOM      6  O   UNL     1      32.382  22.868   6.786  0.00  0.00    +0.000 OA
ATOM      7  C   UNL     1      33.239  23.033   7.882  0.00  0.00    +0.000 A 
ATOM      8  C   UNL     1      34.188  24.077   7.811  0.00  0.00    +0.000 A 
ATOM      9  C   UNL     1      35.060  24.293   8.854  0.00  0.00    +0.000 A 
ATOM     10  C   UNL     1      35.015  23.494   9.972  0.00  0.00    +0.000 A 
ATOM     11  C   UNL     1      34.090  22.497  10.012  0.00  0.00    +0.000 A 
ATOM     12  C   UNL     1      33.193  22.265   8.955  0.00  0.00    +0.000 A 
ATOM     13  O   UNL     1      36.013  23.940  10.870  0.00  0.00    +0.000 OA
ATOM     14  C   UNL     1      36.373  25.254  10.423  0.00  0.00    +0.000 C 
ATOM     15  O   UNL     1      36.072  25.236   9.032  0.00  0.00    +0.000 OA
ENDROOT
BRANCH   1  19
ATOM     16  C   UNL     1      29.865  22.385  12.494  0.00  0.00    +0.000 A 
ATOM     17  C   UNL     1      30.708  21.320  12.581  0.00  0.00    +0.000 A 
ATOM     18  C   UNL     1      31.442  20.982  11.426  0.00  0.00    +0.000 A 
ATOM     19  C   UNL     1      31.300  21.707  10.268  0.00  0.00    +0.000 A 
ATOM     20  C   UNL     1      30.482  22.709  10.245  0.00  0.00    +0.000 A 
ATOM     21  C   UNL     1      29.719  23.111  11.341  0.00  0.00    +0.000 A 
BRANCH  16  23
ATOM     22  C   UNL     1      27.879  23.443  13.448  0.00  0.00    +0.000 C 
ATOM     23  O   UNL     1      29.118  22.760  13.605  0.00  0.00    +0.000 OA
ENDBRANCH  16  23
ENDBRANCH   1  19
TORSDOF 2
ENDMDL
MODEL 8
REMARK VINA RESULT:      -6.4     21.425     22.995
REMARK  Name = 
REMARK  2 active torsions:
REMARK  status: ('A' for Active; 'I' for Inactive)
REMARK    1  A    between atoms: O_2  and  C_3
REMARK    2  A    between atoms: C_6  and  C_7
REMARK                            x       y       z     vdW  Elec       q    Type
REMARK                         _______ _______ _______ _____ _____    ______ ____
ROOT
ATOM      1  C   UNL     1      18.798  -8.452  25.664  0.00  0.00    +0.000 C 
ATOM      2  C   UNL     1      18.088  -7.237  26.196  0.00  0.00    +0.000 C 
ATOM      3  C   UNL     1      16.666  -7.292  26.659  0.00  0.00    +0.000 C 
ATOM      4  C   UNL     1      18.658  -6.089  26.284  0.00  0.00    +0.000 C 
ATOM      5  O   UNL     1      17.854  -5.025  26.811  0.00  0.00    +0.000 OA
ATOM      6  O   UNL     1      19.965  -5.782  25.921  0.00  0.00    +0.000 OA
ATOM      7  C   UNL     1      20.701  -6.859  25.414  0.00  0.00    +0.000 A 
ATOM      8  C   UNL     1      22.037  -6.606  25.029  0.00  0.00    +0.000 A 
ATOM      9  C   UNL     1      22.817  -7.622  24.522  0.00  0.00    +0.000 A 
ATOM     10  C   UNL     1      22.303  -8.889  24.386  0.00  0.00    +0.000 A 
ATOM     11  C   UNL     1      21.014  -9.103  24.766  0.00  0.00    +0.000 A 
ATOM     12  C   UNL     1      20.206  -8.076  25.285  0.00  0.00    +0.000 A 
ATOM     13  O   UNL     1      23.314  -9.717  23.847  0.00  0.00    +0.000 OA
ATOM     14  C   UNL     1      24.541  -9.001  24.041  0.00  0.00    +0.000 C 
ATOM     15  O   UNL     1      24.138  -7.637  24.076  0.00  0.00    +0.000 OA
ENDROOT
BRANCH   1  19
ATOM     16  C   UNL     1      19.284 -11.255  28.882  0.00  0.00    +0.000 A 
ATOM     17  C   UNL     1      18.539 -11.561  27.785  0.00  0.00    +0.000 A 
ATOM     18  C   UNL     1      18.437 -10.579  26.780  0.00  0.00    +0.000 A 
ATOM     19  C   UNL     1      19.069  -9.367  26.917  0.00  0.00    +0.000 A 
ATOM     20  C   UNL     1      19.764  -9.133  27.983  0.00  0.00    +0.000 A 
ATOM     21  C   UNL     1      19.916 -10.048  29.024  0.00  0.00    +0.000 A 
BRANCH  16  23
ATOM     22  C   UNL     1      20.697 -12.703  30.253  0.00  0.00    +0.000 C 
ATOM     23  O   UNL     1      19.417 -12.190  29.902  0.00  0.00    +0.000 OA
ENDBRANCH  16  23
ENDBRANCH   1  19
TORSDOF 2
ENDMDL
MODEL 9
REMARK VINA RESULT:      -6.3     20.295     22.942
REMARK  Name = 
REMARK  2 active torsions:
REMARK  status: ('A' for Active; 'I' for Inactive)
REMARK    1  A    between atoms: O_2  and  C_3
REMARK    2  A    between atoms: C_6  and  C_7
REMARK                            x       y       z     vdW  Elec       q    Type
REMARK                         _______ _______ _______ _____ _____    ______ ____
ROOT
ATOM      1  C   UNL     1      28.607  23.763  23.595  0.00  0.00    +0.000 C 
ATOM      2  C   UNL     1      27.539  23.839  24.653  0.00  0.00    +0.000 C 
ATOM      3  C   UNL     1      27.443  22.828  25.752  0.00  0.00    +0.000 C 
ATOM      4  C   UNL     1      26.653  24.770  24.672  0.00  0.00    +0.000 C 
ATOM      5  O   UNL     1      25.701  24.709  25.741  0.00  0.00    +0.000 OA
ATOM      6  O   UNL     1      26.532  25.817  23.766  0.00  0.00    +0.000 OA
ATOM      7  C   UNL     1      27.489  25.824  22.744  0.00  0.00    +0.000 A 
ATOM      8  C   UNL     1      27.414  26.867  21.794  0.00  0.00    +0.000 A 
ATOM      9  C   UNL     1      28.325  26.932  20.764  0.00  0.00    +0.000 A 
ATOM     10  C   UNL     1      29.314  25.985  20.651  0.00  0.00    +0.000 A 
ATOM     11  C   UNL     1      29.361  24.993  21.581  0.00  0.00    +0.000 A 
ATOM     12  C   UNL     1      28.438  24.913  22.638  0.00  0.00    +0.000 A 
ATOM     13  O   UNL     1      30.094  26.298  19.514  0.00  0.00    +0.000 OA
ATOM     14  C   UNL     1      29.783  27.662  19.198  0.00  0.00    +0.000 C 
ATOM     15  O   UNL     1      28.469  27.840  19.715  0.00  0.00    +0.000 OA
ENDROOT
BRANCH   1  19
ATOM     16  C   UNL     1      32.411  24.486  25.454  0.00  0.00    +0.000 A 
ATOM     17  C   UNL     1      32.134  23.299  24.849  0.00  0.00    +0.000 A 
ATOM     18  C   UNL     1      30.860  23.153  24.265  0.00  0.00    +0.000 A 
ATOM     19  C   UNL     1      29.945  24.177  24.314  0.00  0.00    +0.000 A 
ATOM     20  C   UNL     1      30.265  25.283  24.904  0.00  0.00    +0.000 A 
ATOM     21  C   UNL     1      31.502  25.510  25.506  0.00  0.00    +0.000 A 
BRANCH  16  23
ATOM     22  C   UNL     1      33.856  24.385  27.422  0.00  0.00    +0.000 C 
ATOM     23  O   UNL     1      33.654  24.681  26.045  0.00  0.00    +0.000 OA
ENDBRANCH  16  23
ENDBRANCH   1  19
TORSDOF 2
ENDMDL
MODEL 10
REMARK VINA RESULT:      -6.2     17.712     20.502
REMARK  Name = 
REMARK  2 active torsions:
REMARK  status: ('A' for Active; 'I' for Inactive)
REMARK    1  A    between atoms: O_2  and  C_3
REMARK    2  A    between atoms: C_6  and  C_7
REMARK                            x       y       z     vdW  Elec       q    Type
REMARK                         _______ _______ _______ _____ _____    ______ ____
ROOT
ATOM      1  C   UNL     1      28.178  22.716  26.522  0.00  0.00    +0.000 C 
ATOM      2  C   UNL     1      27.149  23.120  27.543  0.00  0.00    +0.000 C 
ATOM      3  C   UNL     1      27.090  22.487  28.898  0.00  0.00    +0.000 C 
ATOM      4  C   UNL     1      26.267  24.026  27.312  0.00  0.00    +0.000 C 
ATOM      5  O   UNL     1      25.354  24.302  28.381  0.00  0.00    +0.000 OA
ATOM      6  O   UNL     1      26.116  24.755  26.138  0.00  0.00    +0.000 OA
ATOM      7  C   UNL     1      27.036  24.442  25.130  0.00  0.00    +0.000 A 
ATOM      8  C   UNL     1      26.930  25.153  23.914  0.00  0.00    +0.000 A 
ATOM      9  C   UNL     1      27.804  24.894  22.881  0.00  0.00    +0.000 A 
ATOM     10  C   UNL     1      28.785  23.943  23.025  0.00  0.00    +0.000 A 
ATOM     11  C   UNL     1      28.863  23.275  24.208  0.00  0.00    +0.000 A 
ATOM     12  C   UNL     1      27.978  23.528  25.271  0.00  0.00    +0.000 A 
ATOM     13  O   UNL     1      29.525  23.890  21.821  0.00  0.00    +0.000 OA
ATOM     14  C   UNL     1      29.206  25.101  21.121  0.00  0.00    +0.000 C 
ATOM     15  O   UNL     1      27.913  25.443  21.604  0.00  0.00    +0.000 OA
ENDROOT
BRANCH   1  19
ATOM     16  C   UNL     1      32.030  23.911  27.999  0.00  0.00    +0.000 A 
ATOM     17  C   UNL     1      31.684  22.598  27.908  0.00  0.00    +0.000 A 
ATOM     18  C   UNL     1      30.400  22.301  27.411  0.00  0.00    +0.000 A 
ATOM     19  C   UNL     1      29.543  23.309  27.039  0.00  0.00    +0.000 A 
ATOM     20  C   UNL     1      29.926  24.539  27.148  0.00  0.00    +0.000 A 
ATOM     21  C   UNL     1      31.179  24.919  27.629  0.00  0.00    +0.000 A 
BRANCH  16  23
ATOM     22  C   UNL     1      34.201  23.253  28.908  0.00  0.00    +0.000 C 
ATOM     23  O   UNL     1      33.287  24.257  28.483  0.00  0.00    +0.000 OA
ENDBRANCH  16  23
ENDBRANCH   1  19
TORSDOF 2
ENDMDL
