MODEL 1
REMARK VINA RESULT:      -8.6      0.000      0.000
REMARK  Name = 
REMARK  8 active torsions:
REMARK  status: ('A' for Active; 'I' for Inactive)
REMARK    1  A    between atoms: C_3  and  C_4
REMARK    2  A    between atoms: C_4  and  C_5
REMARK    3  A    between atoms: C_5  and  C_7
REMARK    4  A    between atoms: N_15  and  C_16
REMARK    5  A    between atoms: C_16  and  C_17
REMARK    6  A    between atoms: C_17  and  C_18
REMARK    7  A    between atoms: C_18  and  C_19
REMARK    8  A    between atoms: C_25  and  N_26
REMARK                            x       y       z     vdW  Elec       q    Type
REMARK                         _______ _______ _______ _____ _____    ______ ____
ROOT
ATOM      1  C   UNL     1      38.078   3.794  14.380  0.00  0.00    +0.000 C 
ENDROOT
BRANCH   1   7
ATOM      2  C   UNL     1      39.378   7.941  15.371  0.00  0.00    +0.000 C 
ATOM      3  C   UNL     1      38.678   6.733  15.944  0.00  0.00    +0.000 C 
ATOM      4  C   UNL     1      38.978   6.410  17.187  0.00  0.00    +0.000 C 
ATOM      5  C   UNL     1      38.263   5.200  17.731  0.00  0.00    +0.000 C 
ATOM      6  C   UNL     1      38.092   4.155  16.684  0.00  0.00    +0.000 C 
ATOM      7  N   UNL     1      37.549   4.607  15.456  0.00  0.00    +0.000 NA
ATOM      8  C   UNL     1      37.707   5.972  15.122  0.00  0.00    +0.000 C 
BRANCH   4   9
ATOM      9  C   UNL     1      39.910   7.087  18.090  0.00  0.00    +0.000 C 
BRANCH   9  10
ATOM     10  C   UNL     1      40.135   6.156  19.397  0.00  0.00    +0.000 C 
ATOM     11  C   UNL     1      39.836   7.416  20.452  0.00  0.00    +0.000 C 
BRANCH  10  12
ATOM     12  C   UNL     1      41.738   6.402  19.453  0.00  0.00    +0.000 A 
ATOM     13  C   UNL     1      42.401   6.671  18.307  0.00  0.00    +0.000 A 
ATOM     14  C   UNL     1      43.779   6.886  18.426  0.00  0.00    +0.000 A 
ATOM     15  C   UNL     1      44.423   6.826  19.641  0.00  0.00    +0.000 A 
ATOM     16  C   UNL     1      43.691   6.547  20.779  0.00  0.00    +0.000 A 
ATOM     17  C   UNL     1      42.336   6.335  20.665  0.00  0.00    +0.000 A 
ENDBRANCH  10  12
ENDBRANCH   9  10
ENDBRANCH   4   9
ENDBRANCH   1   7
BRANCH   1  18
ATOM     18  C   UNL     1      36.966   3.402  13.458  0.00  0.00    +0.000 C 
BRANCH  18  19
ATOM     19  C   UNL     1      36.624   1.938  13.608  0.00  0.00    +0.000 C 
BRANCH  19  20
ATOM     20  C   UNL     1      35.857   1.765  14.850  0.00  0.00    +0.000 A 
ATOM     21  C   UNL     1      34.792   2.499  15.330  0.00  0.00    +0.000 A 
ATOM     22  N   UNL     1      34.381   2.000  16.499  0.00  0.00    +0.000 NA
ATOM     23  C   UNL     1      35.168   0.946  16.790  0.00  0.00    +0.000 A 
ATOM     24  C   UNL     1      35.154   0.095  17.887  0.00  0.00    +0.000 A 
ATOM     25  C   UNL     1      36.079  -0.916  17.951  0.00  0.00    +0.000 A 
ATOM     26  C   UNL     1      37.026  -1.126  16.970  0.00  0.00    +0.000 A 
ATOM     27  C   UNL     1      36.991  -0.249  15.902  0.00  0.00    +0.000 A 
ATOM     28  C   UNL     1      36.096   0.768  15.790  0.00  0.00    +0.000 A 
BRANCH  26  29
ATOM     29  N   UNL     1      37.987  -2.178  17.041  0.00  0.00    +0.000 N 
ATOM     30  C   UNL     1      38.242  -2.942  18.118  0.00  0.00    +0.000 A 
ATOM     31  N   UNL     1      39.218  -3.812  17.770  0.00  0.00    +0.000 NA
ATOM     32  N   UNL     1      39.570  -3.603  16.508  0.00  0.00    +0.000 NA
ATOM     33  C   UNL     1      38.788  -2.573  16.061  0.00  0.00    +0.000 A 
ENDBRANCH  26  29
ENDBRANCH  19  20
ENDBRANCH  18  19
ENDBRANCH   1  18
TORSDOF 8
ENDMDL
MODEL 2
REMARK VINA RESULT:      -8.1      1.617      2.872
REMARK  Name = 
REMARK  8 active torsions:
REMARK  status: ('A' for Active; 'I' for Inactive)
REMARK    1  A    between atoms: C_3  and  C_4
REMARK    2  A    between atoms: C_4  and  C_5
REMARK    3  A    between atoms: C_5  and  C_7
REMARK    4  A    between atoms: N_15  and  C_16
REMARK    5  A    between atoms: C_16  and  C_17
REMARK    6  A    between atoms: C_17  and  C_18
REMARK    7  A    between atoms: C_18  and  C_19
REMARK    8  A    between atoms: C_25  and  N_26
REMARK                            x       y       z     vdW  Elec       q    Type
REMARK                         _______ _______ _______ _____ _____    ______ ____
ROOT
ATOM      1  C   UNL     1      38.730   5.013  13.415  0.00  0.00    +0.000 C 
ENDROOT
BRANCH   1   7
ATOM      2  C   UNL     1      37.820   3.978  17.654  0.00  0.00    +0.000 C 
ATOM      3  C   UNL     1      38.894   4.551  16.762  0.00  0.00    +0.000 C 
ATOM      4  C   UNL     1      39.552   5.595  17.226  0.00  0.00    +0.000 C 
ATOM      5  C   UNL     1      40.619   6.145  16.313  0.00  0.00    +0.000 C 
ATOM      6  C   UNL     1      40.202   6.068  14.885  0.00  0.00    +0.000 C 
ATOM      7  N   UNL     1      39.712   4.808  14.461  0.00  0.00    +0.000 NA
ATOM      8  C   UNL     1      39.169   3.943  15.439  0.00  0.00    +0.000 C 
BRANCH   4   9
ATOM      9  C   UNL     1      39.372   6.272  18.511  0.00  0.00    +0.000 C 
BRANCH   9  10
ATOM     10  C   UNL     1      40.705   7.135  18.834  0.00  0.00    +0.000 C 
ATOM     11  C   UNL     1      41.044   6.257  20.214  0.00  0.00    +0.000 C 
BRANCH  10  12
ATOM     12  C   UNL     1      39.914   8.276  19.677  0.00  0.00    +0.000 A 
ATOM     13  C   UNL     1      38.607   8.091  19.964  0.00  0.00    +0.000 A 
ATOM     14  C   UNL     1      37.987   9.105  20.703  0.00  0.00    +0.000 A 
ATOM     15  C   UNL     1      38.670  10.227  21.114  0.00  0.00    +0.000 A 
ATOM     16  C   UNL     1      40.006  10.360  20.791  0.00  0.00    +0.000 A 
ATOM     17  C   UNL     1      40.618   9.364  20.063  0.00  0.00    +0.000 A 
ENDBRANCH  10  12
ENDBRANCH   9  10
ENDBRANCH   4   9
ENDBRANCH   1   7
BRANCH   1  18
ATOM     18  C   UNL     1      37.356   4.987  14.009  0.00  0.00    +0.000 C 
BRANCH  18  19
ATOM     19  C   UNL     1      36.524   3.879  13.408  0.00  0.00    +0.000 C 
BRANCH  19  20
ATOM     20  C   UNL     1      35.666   3.318  14.462  0.00  0.00    +0.000 A 
ATOM     21  C   UNL     1      34.479   3.801  14.973  0.00  0.00    +0.000 A 
ATOM     22  N   UNL     1      34.019   2.979  15.920  0.00  0.00    +0.000 NA
ATOM     23  C   UNL     1      34.895   1.962  16.035  0.00  0.00    +0.000 A 
ATOM     24  C   UNL     1      34.877   0.857  16.875  0.00  0.00    +0.000 A 
ATOM     25  C   UNL     1      35.906  -0.047  16.800  0.00  0.00    +0.000 A 
ATOM     26  C   UNL     1      36.963   0.093  15.925  0.00  0.00    +0.000 A 
ATOM     27  C   UNL     1      36.926   1.212  15.113  0.00  0.00    +0.000 A 
ATOM     28  C   UNL     1      35.931   2.137  15.147  0.00  0.00    +0.000 A 
BRANCH  26  29
ATOM     29  N   UNL     1      38.031  -0.849  15.851  0.00  0.00    +0.000 N 
ATOM     30  C   UNL     1      38.239  -1.874  16.695  0.00  0.00    +0.000 A 
ATOM     31  N   UNL     1      39.353  -2.517  16.279  0.00  0.00    +0.000 NA
ATOM     32  N   UNL     1      39.838  -1.914  15.201  0.00  0.00    +0.000 NA
ATOM     33  C   UNL     1      38.996  -0.866  14.942  0.00  0.00    +0.000 A 
ENDBRANCH  26  29
ENDBRANCH  19  20
ENDBRANCH  18  19
ENDBRANCH   1  18
TORSDOF 8
ENDMDL
MODEL 3
REMARK VINA RESULT:      -8.0      3.315      9.312
REMARK  Name = 
REMARK  8 active torsions:
REMARK  status: ('A' for Active; 'I' for Inactive)
REMARK    1  A    between atoms: C_3  and  C_4
REMARK    2  A    between atoms: C_4  and  C_5
REMARK    3  A    between atoms: C_5  and  C_7
REMARK    4  A    between atoms: N_15  and  C_16
REMARK    5  A    between atoms: C_16  and  C_17
REMARK    6  A    between atoms: C_17  and  C_18
REMARK    7  A    between atoms: C_18  and  C_19
REMARK    8  A    between atoms: C_25  and  N_26
REMARK                            x       y       z     vdW  Elec       q    Type
REMARK                         _______ _______ _______ _____ _____    ______ ____
ROOT
ATOM      1  C   UNL     1      37.046   3.346  17.343  0.00  0.00    +0.000 C 
ENDROOT
BRANCH   1   7
ATOM      2  C   UNL     1      35.200  -0.610  16.442  0.00  0.00    +0.000 C 
ATOM      3  C   UNL     1      35.782   0.620  15.789  0.00  0.00    +0.000 C 
ATOM      4  C   UNL     1      36.563   0.422  14.745  0.00  0.00    +0.000 C 
ATOM      5  C   UNL     1      37.129   1.669  14.115  0.00  0.00    +0.000 C 
ATOM      6  C   UNL     1      37.464   2.692  15.144  0.00  0.00    +0.000 C 
ATOM      7  N   UNL     1      36.439   2.968  16.083  0.00  0.00    +0.000 NA
ATOM      8  C   UNL     1      35.469   1.968  16.321  0.00  0.00    +0.000 C 
BRANCH   4   9
ATOM      9  C   UNL     1      36.935  -0.854  14.132  0.00  0.00    +0.000 C 
BRANCH   9  10
ATOM     10  C   UNL     1      38.520  -1.098  14.364  0.00  0.00    +0.000 C 
ATOM     11  C   UNL     1      38.639  -2.137  13.061  0.00  0.00    +0.000 C 
BRANCH  10  12
ATOM     12  C   UNL     1      38.306  -2.325  15.406  0.00  0.00    +0.000 A 
ATOM     13  C   UNL     1      37.440  -3.311  15.088  0.00  0.00    +0.000 A 
ATOM     14  C   UNL     1      37.311  -4.346  16.023  0.00  0.00    +0.000 A 
ATOM     15  C   UNL     1      38.026  -4.357  17.198  0.00  0.00    +0.000 A 
ATOM     16  C   UNL     1      38.899  -3.320  17.468  0.00  0.00    +0.000 A 
ATOM     17  C   UNL     1      39.027  -2.301  16.551  0.00  0.00    +0.000 A 
ENDBRANCH  10  12
ENDBRANCH   9  10
ENDBRANCH   4   9
ENDBRANCH   1   7
BRANCH   1  18
ATOM     18  C   UNL     1      38.066   4.415  17.105  0.00  0.00    +0.000 C 
BRANCH  18  19
ATOM     19  C   UNL     1      38.805   4.757  18.377  0.00  0.00    +0.000 C 
BRANCH  19  20
ATOM     20  C   UNL     1      38.956   6.218  18.449  0.00  0.00    +0.000 A 
ATOM     21  C   UNL     1      38.173   7.206  17.888  0.00  0.00    +0.000 A 
ATOM     22  N   UNL     1      38.659   8.411  18.203  0.00  0.00    +0.000 NA
ATOM     23  C   UNL     1      39.754   8.219  18.965  0.00  0.00    +0.000 A 
ATOM     24  C   UNL     1      40.615   9.144  19.541  0.00  0.00    +0.000 A 
ATOM     25  C   UNL     1      41.677   8.687  20.280  0.00  0.00    +0.000 A 
ATOM     26  C   UNL     1      41.928   7.344  20.477  0.00  0.00    +0.000 A 
ATOM     27  C   UNL     1      41.037   6.472  19.881  0.00  0.00    +0.000 A 
ATOM     28  C   UNL     1      39.970   6.872  19.140  0.00  0.00    +0.000 A 
BRANCH  26  29
ATOM     29  N   UNL     1      43.034   6.874  21.245  0.00  0.00    +0.000 N 
ATOM     30  C   UNL     1      43.864   7.633  21.980  0.00  0.00    +0.000 A 
ATOM     31  N   UNL     1      44.773   6.805  22.543  0.00  0.00    +0.000 NA
ATOM     32  N   UNL     1      44.525   5.555  22.172  0.00  0.00    +0.000 NA
ATOM     33  C   UNL     1      43.428   5.612  21.356  0.00  0.00    +0.000 A 
ENDBRANCH  26  29
ENDBRANCH  19  20
ENDBRANCH  18  19
ENDBRANCH   1  18
TORSDOF 8
ENDMDL
MODEL 4
REMARK VINA RESULT:      -8.0      1.419      2.377
REMARK  Name = 
REMARK  8 active torsions:
REMARK  status: ('A' for Active; 'I' for Inactive)
REMARK    1  A    between atoms: C_3  and  C_4
REMARK    2  A    between atoms: C_4  and  C_5
REMARK    3  A    between atoms: C_5  and  C_7
REMARK    4  A    between atoms: N_15  and  C_16
REMARK    5  A    between atoms: C_16  and  C_17
REMARK    6  A    between atoms: C_17  and  C_18
REMARK    7  A    between atoms: C_18  and  C_19
REMARK    8  A    between atoms: C_25  and  N_26
REMARK                            x       y       z     vdW  Elec       q    Type
REMARK                         _______ _______ _______ _____ _____    ______ ____
ROOT
ATOM      1  C   UNL     1      38.973   4.694  15.821  0.00  0.00    +0.000 C 
ENDROOT
BRANCH   1   7
ATOM      2  C   UNL     1      42.730   6.969  16.580  0.00  0.00    +0.000 C 
ATOM      3  C   UNL     1      41.381   6.646  17.174  0.00  0.00    +0.000 C 
ATOM      4  C   UNL     1      41.351   6.388  18.467  0.00  0.00    +0.000 C 
ATOM      5  C   UNL     1      39.991   6.069  19.033  0.00  0.00    +0.000 C 
ATOM      6  C   UNL     1      39.177   5.276  18.070  0.00  0.00    +0.000 C 
ATOM      7  N   UNL     1      39.116   5.794  16.752  0.00  0.00    +0.000 NA
ATOM      8  C   UNL     1      40.171   6.630  16.318  0.00  0.00    +0.000 C 
BRANCH   4   9
ATOM      9  C   UNL     1      42.474   6.381  19.407  0.00  0.00    +0.000 C 
BRANCH   9  10
ATOM     10  C   UNL     1      42.147   7.411  20.614  0.00  0.00    +0.000 C 
ATOM     11  C   UNL     1      43.136   8.600  19.982  0.00  0.00    +0.000 C 
BRANCH  10  12
ATOM     12  C   UNL     1      43.327   6.852  21.579  0.00  0.00    +0.000 A 
ATOM     13  C   UNL     1      43.680   5.551  21.497  0.00  0.00    +0.000 A 
ATOM     14  C   UNL     1      44.712   5.136  22.347  0.00  0.00    +0.000 A 
ATOM     15  C   UNL     1      45.331   6.003  23.218  0.00  0.00    +0.000 A 
ATOM     16  C   UNL     1      44.926   7.323  23.257  0.00  0.00    +0.000 A 
ATOM     17  C   UNL     1      43.910   7.734  22.422  0.00  0.00    +0.000 A 
ENDBRANCH  10  12
ENDBRANCH   9  10
ENDBRANCH   4   9
ENDBRANCH   1   7
BRANCH   1  18
ATOM     18  C   UNL     1      37.604   4.102  15.956  0.00  0.00    +0.000 C 
BRANCH  18  19
ATOM     19  C   UNL     1      37.577   2.675  15.462  0.00  0.00    +0.000 C 
BRANCH  19  20
ATOM     20  C   UNL     1      36.381   2.017  16.007  0.00  0.00    +0.000 A 
ATOM     21  C   UNL     1      35.124   2.537  16.234  0.00  0.00    +0.000 A 
ATOM     22  N   UNL     1      34.320   1.595  16.736  0.00  0.00    +0.000 NA
ATOM     23  C   UNL     1      35.042   0.461  16.841  0.00  0.00    +0.000 A 
ATOM     24  C   UNL     1      34.672  -0.794  17.306  0.00  0.00    +0.000 A 
ATOM     25  C   UNL     1      35.608  -1.797  17.315  0.00  0.00    +0.000 A 
ATOM     26  C   UNL     1      36.905  -1.614  16.881  0.00  0.00    +0.000 A 
ATOM     27  C   UNL     1      37.213  -0.345  16.429  0.00  0.00    +0.000 A 
ATOM     28  C   UNL     1      36.325   0.683  16.398  0.00  0.00    +0.000 A 
BRANCH  26  29
ATOM     29  N   UNL     1      37.874  -2.659  16.894  0.00  0.00    +0.000 N 
ATOM     30  C   UNL     1      39.086  -2.620  16.313  0.00  0.00    +0.000 A 
ATOM     31  N   UNL     1      39.686  -3.807  16.556  0.00  0.00    +0.000 NA
ATOM     32  N   UNL     1      38.876  -4.577  17.271  0.00  0.00    +0.000 NA
ATOM     33  C   UNL     1      37.740  -3.843  17.478  0.00  0.00    +0.000 A 
ENDBRANCH  26  29
ENDBRANCH  19  20
ENDBRANCH  18  19
ENDBRANCH   1  18
TORSDOF 8
ENDMDL
MODEL 5
REMARK VINA RESULT:      -7.9      1.661      2.417
REMARK  Name = 
REMARK  8 active torsions:
REMARK  status: ('A' for Active; 'I' for Inactive)
REMARK    1  A    between atoms: C_3  and  C_4
REMARK    2  A    between atoms: C_4  and  C_5
REMARK    3  A    between atoms: C_5  and  C_7
REMARK    4  A    between atoms: N_15  and  C_16
REMARK    5  A    between atoms: C_16  and  C_17
REMARK    6  A    between atoms: C_17  and  C_18
REMARK    7  A    between atoms: C_18  and  C_19
REMARK    8  A    between atoms: C_25  and  N_26
REMARK                            x       y       z     vdW  Elec       q    Type
REMARK                         _______ _______ _______ _____ _____    ______ ____
ROOT
ATOM      1  C   UNL     1      36.819   3.755  13.397  0.00  0.00    +0.000 C 
ENDROOT
BRANCH   1   7
ATOM      2  C   UNL     1      40.857   5.319  14.454  0.00  0.00    +0.000 C 
ATOM      3  C   UNL     1      39.399   5.705  14.387  0.00  0.00    +0.000 C 
ATOM      4  C   UNL     1      38.930   6.420  15.391  0.00  0.00    +0.000 C 
ATOM      5  C   UNL     1      37.471   6.790  15.295  0.00  0.00    +0.000 C 
ATOM      6  C   UNL     1      36.671   5.688  14.693  0.00  0.00    +0.000 C 
ATOM      7  N   UNL     1      37.183   5.155  13.484  0.00  0.00    +0.000 NA
ATOM      8  C   UNL     1      38.568   5.287  13.233  0.00  0.00    +0.000 C 
BRANCH   4   9
ATOM      9  C   UNL     1      39.654   6.893  16.572  0.00  0.00    +0.000 C 
BRANCH   9  10
ATOM     10  C   UNL     1      39.378   5.866  17.795  0.00  0.00    +0.000 C 
ATOM     11  C   UNL     1      38.526   7.004  18.672  0.00  0.00    +0.000 C 
BRANCH  10  12
ATOM     12  C   UNL     1      40.764   6.215  18.566  0.00  0.00    +0.000 A 
ATOM     13  C   UNL     1      40.778   6.230  19.916  0.00  0.00    +0.000 A 
ATOM     14  C   UNL     1      42.006   6.525  20.519  0.00  0.00    +0.000 A 
ATOM     15  C   UNL     1      43.136   6.786  19.778  0.00  0.00    +0.000 A 
ATOM     16  C   UNL     1      43.061   6.755  18.399  0.00  0.00    +0.000 A 
ATOM     17  C   UNL     1      41.853   6.466  17.803  0.00  0.00    +0.000 A 
ENDBRANCH  10  12
ENDBRANCH   9  10
ENDBRANCH   4   9
ENDBRANCH   1   7
BRANCH   1  18
ATOM     18  C   UNL     1      36.277   3.298  14.715  0.00  0.00    +0.000 C 
BRANCH  18  19
ATOM     19  C   UNL     1      35.451   2.043  14.559  0.00  0.00    +0.000 C 
BRANCH  19  20
ATOM     20  C   UNL     1      35.614   1.226  15.770  0.00  0.00    +0.000 A 
ATOM     21  C   UNL     1      34.914   1.275  16.958  0.00  0.00    +0.000 A 
ATOM     22  N   UNL     1      35.378   0.349  17.803  0.00  0.00    +0.000 NA
ATOM     23  C   UNL     1      36.376  -0.306  17.178  0.00  0.00    +0.000 A 
ATOM     24  C   UNL     1      37.179  -1.346  17.624  0.00  0.00    +0.000 A 
ATOM     25  C   UNL     1      38.144  -1.843  16.785  0.00  0.00    +0.000 A 
ATOM     26  C   UNL     1      38.353  -1.352  15.513  0.00  0.00    +0.000 A 
ATOM     27  C   UNL     1      37.523  -0.318  15.124  0.00  0.00    +0.000 A 
ATOM     28  C   UNL     1      36.553   0.210  15.915  0.00  0.00    +0.000 A 
BRANCH  26  29
ATOM     29  N   UNL     1      39.359  -1.871  14.644  0.00  0.00    +0.000 N 
ATOM     30  C   UNL     1      40.687  -1.786  14.835  0.00  0.00    +0.000 A 
ATOM     31  N   UNL     1      41.282  -2.397  13.785  0.00  0.00    +0.000 NA
ATOM     32  N   UNL     1      40.356  -2.855  12.953  0.00  0.00    +0.000 NA
ATOM     33  C   UNL     1      39.150  -2.518  13.506  0.00  0.00    +0.000 A 
ENDBRANCH  26  29
ENDBRANCH  19  20
ENDBRANCH  18  19
ENDBRANCH   1  18
TORSDOF 8
ENDMDL
MODEL 6
REMARK VINA RESULT:      -7.9      2.241      3.111
REMARK  Name = 
REMARK  8 active torsions:
REMARK  status: ('A' for Active; 'I' for Inactive)
REMARK    1  A    between atoms: C_3  and  C_4
REMARK    2  A    between atoms: C_4  and  C_5
REMARK    3  A    between atoms: C_5  and  C_7
REMARK    4  A    between atoms: N_15  and  C_16
REMARK    5  A    between atoms: C_16  and  C_17
REMARK    6  A    between atoms: C_17  and  C_18
REMARK    7  A    between atoms: C_18  and  C_19
REMARK    8  A    between atoms: C_25  and  N_26
REMARK                            x       y       z     vdW  Elec       q    Type
REMARK                         _______ _______ _______ _____ _____    ______ ____
ROOT
ATOM      1  C   UNL     1      38.382   4.147  16.321  0.00  0.00    +0.000 C 
ENDROOT
BRANCH   1   7
ATOM      2  C   UNL     1      42.090   6.620  16.294  0.00  0.00    +0.000 C 
ATOM      3  C   UNL     1      40.832   6.351  17.083  0.00  0.00    +0.000 C 
ATOM      4  C   UNL     1      40.957   6.291  18.394  0.00  0.00    +0.000 C 
ATOM      5  C   UNL     1      39.684   6.021  19.155  0.00  0.00    +0.000 C 
ATOM      6  C   UNL     1      38.806   5.068  18.420  0.00  0.00    +0.000 C 
ATOM      7  N   UNL     1      38.577   5.379  17.057  0.00  0.00    +0.000 NA
ATOM      8  C   UNL     1      39.537   6.170  16.385  0.00  0.00    +0.000 C 
BRANCH   4   9
ATOM      9  C   UNL     1      42.176   6.459  19.188  0.00  0.00    +0.000 C 
BRANCH   9  10
ATOM     10  C   UNL     1      41.900   7.569  20.335  0.00  0.00    +0.000 C 
ATOM     11  C   UNL     1      42.833   8.721  19.566  0.00  0.00    +0.000 C 
BRANCH  10  12
ATOM     12  C   UNL     1      43.139   7.095  21.270  0.00  0.00    +0.000 A 
ATOM     13  C   UNL     1      43.838   8.027  21.955  0.00  0.00    +0.000 A 
ATOM     14  C   UNL     1      44.886   7.551  22.752  0.00  0.00    +0.000 A 
ATOM     15  C   UNL     1      45.188   6.211  22.832  0.00  0.00    +0.000 A 
ATOM     16  C   UNL     1      44.438   5.305  22.108  0.00  0.00    +0.000 A 
ATOM     17  C   UNL     1      43.407   5.770  21.323  0.00  0.00    +0.000 A 
ENDBRANCH  10  12
ENDBRANCH   9  10
ENDBRANCH   4   9
ENDBRANCH   1   7
BRANCH   1  18
ATOM     18  C   UNL     1      37.133   3.473  16.798  0.00  0.00    +0.000 C 
BRANCH  18  19
ATOM     19  C   UNL     1      36.340   2.914  15.640  0.00  0.00    +0.000 C 
BRANCH  19  20
ATOM     20  C   UNL     1      35.817   1.596  16.029  0.00  0.00    +0.000 A 
ATOM     21  C   UNL     1      34.868   1.277  16.979  0.00  0.00    +0.000 A 
ATOM     22  N   UNL     1      34.678  -0.045  17.011  0.00  0.00    +0.000 NA
ATOM     23  C   UNL     1      35.495  -0.596  16.091  0.00  0.00    +0.000 A 
ATOM     24  C   UNL     1      35.677  -1.926  15.739  0.00  0.00    +0.000 A 
ATOM     25  C   UNL     1      36.587  -2.231  14.759  0.00  0.00    +0.000 A 
ATOM     26  C   UNL     1      37.332  -1.271  14.105  0.00  0.00    +0.000 A 
ATOM     27  C   UNL     1      37.106   0.035  14.496  0.00  0.00    +0.000 A 
ATOM     28  C   UNL     1      36.217   0.391  15.461  0.00  0.00    +0.000 A 
BRANCH  26  29
ATOM     29  N   UNL     1      38.278  -1.594  13.087  0.00  0.00    +0.000 N 
ATOM     30  C   UNL     1      38.911  -2.771  12.942  0.00  0.00    +0.000 A 
ATOM     31  N   UNL     1      39.719  -2.661  11.863  0.00  0.00    +0.000 NA
ATOM     32  N   UNL     1      39.602  -1.447  11.341  0.00  0.00    +0.000 NA
ATOM     33  C   UNL     1      38.691  -0.785  12.120  0.00  0.00    +0.000 A 
ENDBRANCH  26  29
ENDBRANCH  19  20
ENDBRANCH  18  19
ENDBRANCH   1  18
TORSDOF 8
ENDMDL
MODEL 7
REMARK VINA RESULT:      -7.9      2.845      8.217
REMARK  Name = 
REMARK  8 active torsions:
REMARK  status: ('A' for Active; 'I' for Inactive)
REMARK    1  A    between atoms: C_3  and  C_4
REMARK    2  A    between atoms: C_4  and  C_5
REMARK    3  A    between atoms: C_5  and  C_7
REMARK    4  A    between atoms: N_15  and  C_16
REMARK    5  A    between atoms: C_16  and  C_17
REMARK    6  A    between atoms: C_17  and  C_18
REMARK    7  A    between atoms: C_18  and  C_19
REMARK    8  A    between atoms: C_25  and  N_26
REMARK                            x       y       z     vdW  Elec       q    Type
REMARK                         _______ _______ _______ _____ _____    ______ ____
ROOT
ATOM      1  C   UNL     1      41.925  -0.201  12.577  0.00  0.00    +0.000 C 
ENDROOT
BRANCH   1   7
ATOM      2  C   UNL     1      37.845  -1.956  12.948  0.00  0.00    +0.000 C 
ATOM      3  C   UNL     1      39.284  -2.169  13.347  0.00  0.00    +0.000 C 
ATOM      4  C   UNL     1      39.502  -2.574  14.583  0.00  0.00    +0.000 C 
ATOM      5  C   UNL     1      40.949  -2.779  14.951  0.00  0.00    +0.000 C 
ATOM      6  C   UNL     1      41.821  -1.755  14.311  0.00  0.00    +0.000 C 
ATOM      7  N   UNL     1      41.629  -1.577  12.919  0.00  0.00    +0.000 NA
ATOM      8  C   UNL     1      40.374  -1.928  12.371  0.00  0.00    +0.000 C 
BRANCH   4   9
ATOM      9  C   UNL     1      38.511  -2.849  15.625  0.00  0.00    +0.000 C 
BRANCH   9  10
ATOM     10  C   UNL     1      38.803  -1.877  16.888  0.00  0.00    +0.000 C 
ATOM     11  C   UNL     1      38.491  -3.085  17.999  0.00  0.00    +0.000 C 
BRANCH  10  12
ATOM     12  C   UNL     1      37.281  -1.318  16.970  0.00  0.00    +0.000 A 
ATOM     13  C   UNL     1      36.485  -1.730  17.982  0.00  0.00    +0.000 A 
ATOM     14  C   UNL     1      35.189  -1.201  18.002  0.00  0.00    +0.000 A 
ATOM     15  C   UNL     1      34.750  -0.314  17.047  0.00  0.00    +0.000 A 
ATOM     16  C   UNL     1      35.609   0.070  16.036  0.00  0.00    +0.000 A 
ATOM     17  C   UNL     1      36.885  -0.449  16.013  0.00  0.00    +0.000 A 
ENDBRANCH  10  12
ENDBRANCH   9  10
ENDBRANCH   4   9
ENDBRANCH   1   7
BRANCH   1  18
ATOM     18  C   UNL     1      41.257   0.712  13.557  0.00  0.00    +0.000 C 
BRANCH  18  19
ATOM     19  C   UNL     1      40.772   1.974  12.883  0.00  0.00    +0.000 C 
BRANCH  19  20
ATOM     20  C   UNL     1      39.332   2.116  13.144  0.00  0.00    +0.000 A 
ATOM     21  C   UNL     1      38.262   1.583  12.455  0.00  0.00    +0.000 A 
ATOM     22  N   UNL     1      37.114   1.954  13.031  0.00  0.00    +0.000 NA
ATOM     23  C   UNL     1      37.424   2.727  14.091  0.00  0.00    +0.000 A 
ATOM     24  C   UNL     1      36.596   3.360  15.008  0.00  0.00    +0.000 A 
ATOM     25  C   UNL     1      37.166   4.106  16.008  0.00  0.00    +0.000 A 
ATOM     26  C   UNL     1      38.531   4.255  16.144  0.00  0.00    +0.000 A 
ATOM     27  C   UNL     1      39.304   3.601  15.203  0.00  0.00    +0.000 A 
ATOM     28  C   UNL     1      38.790   2.851  14.194  0.00  0.00    +0.000 A 
BRANCH  26  29
ATOM     29  N   UNL     1      39.120   5.033  17.185  0.00  0.00    +0.000 N 
ATOM     30  C   UNL     1      40.133   5.904  17.043  0.00  0.00    +0.000 A 
ATOM     31  N   UNL     1      40.390   6.423  18.266  0.00  0.00    +0.000 NA
ATOM     32  N   UNL     1      39.561   5.894  19.156  0.00  0.00    +0.000 NA
ATOM     33  C   UNL     1      38.767   5.021  18.464  0.00  0.00    +0.000 A 
ENDBRANCH  26  29
ENDBRANCH  19  20
ENDBRANCH  18  19
ENDBRANCH   1  18
TORSDOF 8
ENDMDL
MODEL 8
REMARK VINA RESULT:      -7.9      4.148      8.331
REMARK  Name = 
REMARK  8 active torsions:
REMARK  status: ('A' for Active; 'I' for Inactive)
REMARK    1  A    between atoms: C_3  and  C_4
REMARK    2  A    between atoms: C_4  and  C_5
REMARK    3  A    between atoms: C_5  and  C_7
REMARK    4  A    between atoms: N_15  and  C_16
REMARK    5  A    between atoms: C_16  and  C_17
REMARK    6  A    between atoms: C_17  and  C_18
REMARK    7  A    between atoms: C_18  and  C_19
REMARK    8  A    between atoms: C_25  and  N_26
REMARK                            x       y       z     vdW  Elec       q    Type
REMARK                         _______ _______ _______ _____ _____    ______ ____
ROOT
ATOM      1  C   UNL     1      43.026   0.358  12.284  0.00  0.00    +0.000 C 
ENDROOT
BRANCH   1   7
ATOM      2  C   UNL     1      39.762  -2.551  11.415  0.00  0.00    +0.000 C 
ATOM      3  C   UNL     1      40.568  -1.951  12.542  0.00  0.00    +0.000 C 
ATOM      4  C   UNL     1      39.907  -1.634  13.638  0.00  0.00    +0.000 C 
ATOM      5  C   UNL     1      40.738  -1.037  14.745  0.00  0.00    +0.000 C 
ATOM      6  C   UNL     1      41.804  -0.149  14.203  0.00  0.00    +0.000 C 
ATOM      7  N   UNL     1      42.591  -0.706  13.165  0.00  0.00    +0.000 NA
ATOM      8  C   UNL     1      42.028  -1.745  12.389  0.00  0.00    +0.000 C 
BRANCH   4   9
ATOM      9  C   UNL     1      38.476  -1.796  13.902  0.00  0.00    +0.000 C 
BRANCH   9  10
ATOM     10  C   UNL     1      38.274  -3.042  14.918  0.00  0.00    +0.000 C 
ATOM     11  C   UNL     1      37.012  -3.677  14.026  0.00  0.00    +0.000 C 
BRANCH  10  12
ATOM     12  C   UNL     1      37.261  -2.239  15.900  0.00  0.00    +0.000 A 
ATOM     13  C   UNL     1      35.973  -2.077  15.525  0.00  0.00    +0.000 A 
ATOM     14  C   UNL     1      35.150  -1.387  16.422  0.00  0.00    +0.000 A 
ATOM     15  C   UNL     1      35.624  -0.900  17.619  0.00  0.00    +0.000 A 
ATOM     16  C   UNL     1      36.951  -1.097  17.949  0.00  0.00    +0.000 A 
ATOM     17  C   UNL     1      37.764  -1.775  17.068  0.00  0.00    +0.000 A 
ENDBRANCH  10  12
ENDBRANCH   9  10
ENDBRANCH   4   9
ENDBRANCH   1   7
BRANCH   1  18
ATOM     18  C   UNL     1      42.393   1.647  12.707  0.00  0.00    +0.000 C 
BRANCH  18  19
ATOM     19  C   UNL     1      41.802   2.377  11.524  0.00  0.00    +0.000 C 
BRANCH  19  20
ATOM     20  C   UNL     1      40.528   1.733  11.170  0.00  0.00    +0.000 A 
ATOM     21  C   UNL     1      40.181   1.058  10.018  0.00  0.00    +0.000 A 
ATOM     22  N   UNL     1      38.921   0.621  10.105  0.00  0.00    +0.000 NA
ATOM     23  C   UNL     1      38.440   1.005  11.304  0.00  0.00    +0.000 A 
ATOM     24  C   UNL     1      37.190   0.803  11.872  0.00  0.00    +0.000 A 
ATOM     25  C   UNL     1      36.943   1.306  13.124  0.00  0.00    +0.000 A 
ATOM     26  C   UNL     1      37.887   2.008  13.846  0.00  0.00    +0.000 A 
ATOM     27  C   UNL     1      39.112   2.176  13.231  0.00  0.00    +0.000 A 
ATOM     28  C   UNL     1      39.408   1.698  11.994  0.00  0.00    +0.000 A 
BRANCH  26  29
ATOM     29  N   UNL     1      37.625   2.530  15.148  0.00  0.00    +0.000 N 
ATOM     30  C   UNL     1      38.308   3.518  15.753  0.00  0.00    +0.000 A 
ATOM     31  N   UNL     1      37.746   3.706  16.969  0.00  0.00    +0.000 NA
ATOM     32  N   UNL     1      36.736   2.861  17.128  0.00  0.00    +0.000 NA
ATOM     33  C   UNL     1      36.671   2.126  15.975  0.00  0.00    +0.000 A 
ENDBRANCH  26  29
ENDBRANCH  19  20
ENDBRANCH  18  19
ENDBRANCH   1  18
TORSDOF 8
ENDMDL
MODEL 9
REMARK VINA RESULT:      -7.7     25.092     29.473
REMARK  Name = 
REMARK  8 active torsions:
REMARK  status: ('A' for Active; 'I' for Inactive)
REMARK    1  A    between atoms: C_3  and  C_4
REMARK    2  A    between atoms: C_4  and  C_5
REMARK    3  A    between atoms: C_5  and  C_7
REMARK    4  A    between atoms: N_15  and  C_16
REMARK    5  A    between atoms: C_16  and  C_17
REMARK    6  A    between atoms: C_17  and  C_18
REMARK    7  A    between atoms: C_18  and  C_19
REMARK    8  A    between atoms: C_25  and  N_26
REMARK                            x       y       z     vdW  Elec       q    Type
REMARK                         _______ _______ _______ _____ _____    ______ ____
ROOT
ATOM      1  C   UNL     1      10.680   1.442   8.004  0.00  0.00    +0.000 C 
ENDROOT
BRANCH   1   7
ATOM      2  C   UNL     1       7.701   2.466  11.158  0.00  0.00    +0.000 C 
ATOM      3  C   UNL     1       9.023   2.895  10.570  0.00  0.00    +0.000 C 
ATOM      4  C   UNL     1       9.207   4.192  10.413  0.00  0.00    +0.000 C 
ATOM      5  C   UNL     1      10.536   4.590   9.824  0.00  0.00    +0.000 C 
ATOM      6  C   UNL     1      10.983   3.617   8.789  0.00  0.00    +0.000 C 
ATOM      7  N   UNL     1      10.940   2.254   9.175  0.00  0.00    +0.000 NA
ATOM      8  C   UNL     1      10.041   1.883  10.202  0.00  0.00    +0.000 C 
BRANCH   4   9
ATOM      9  C   UNL     1       8.281   5.276  10.744  0.00  0.00    +0.000 C 
BRANCH   9  10
ATOM     10  C   UNL     1       7.490   5.713   9.399  0.00  0.00    +0.000 C 
ATOM     11  C   UNL     1       8.091   7.271   9.448  0.00  0.00    +0.000 C 
BRANCH  10  12
ATOM     12  C   UNL     1       6.135   6.141  10.184  0.00  0.00    +0.000 A 
ATOM     13  C   UNL     1       5.065   6.552   9.469  0.00  0.00    +0.000 A 
ATOM     14  C   UNL     1       3.925   6.895  10.205  0.00  0.00    +0.000 A 
ATOM     15  C   UNL     1       3.895   6.818  11.578  0.00  0.00    +0.000 A 
ATOM     16  C   UNL     1       5.021   6.389  12.255  0.00  0.00    +0.000 A 
ATOM     17  C   UNL     1       6.144   6.052  11.533  0.00  0.00    +0.000 A 
ENDBRANCH  10  12
ENDBRANCH   9  10
ENDBRANCH   4   9
ENDBRANCH   1   7
BRANCH   1  18
ATOM     18  C   UNL     1      11.518   0.203   8.061  0.00  0.00    +0.000 C 
BRANCH  18  19
ATOM     19  C   UNL     1      12.683   0.290   7.104  0.00  0.00    +0.000 C 
BRANCH  19  20
ATOM     20  C   UNL     1      13.348  -1.021   7.061  0.00  0.00    +0.000 A 
ATOM     21  C   UNL     1      12.938  -2.227   7.592  0.00  0.00    +0.000 A 
ATOM     22  N   UNL     1      13.837  -3.177   7.320  0.00  0.00    +0.000 NA
ATOM     23  C   UNL     1      14.833  -2.604   6.616  0.00  0.00    +0.000 A 
ATOM     24  C   UNL     1      15.997  -3.158   6.101  0.00  0.00    +0.000 A 
ATOM     25  C   UNL     1      16.867  -2.348   5.415  0.00  0.00    +0.000 A 
ATOM     26  C   UNL     1      16.635  -1.003   5.214  0.00  0.00    +0.000 A 
ATOM     27  C   UNL     1      15.460  -0.509   5.748  0.00  0.00    +0.000 A 
ATOM     28  C   UNL     1      14.565  -1.267   6.435  0.00  0.00    +0.000 A 
BRANCH  26  29
ATOM     29  N   UNL     1      17.542  -0.164   4.501  0.00  0.00    +0.000 N 
ATOM     30  C   UNL     1      17.206   0.858   3.696  0.00  0.00    +0.000 A 
ATOM     31  N   UNL     1      18.356   1.386   3.216  0.00  0.00    +0.000 NA
ATOM     32  N   UNL     1      19.390   0.715   3.704  0.00  0.00    +0.000 NA
ATOM     33  C   UNL     1      18.865  -0.258   4.512  0.00  0.00    +0.000 A 
ENDBRANCH  26  29
ENDBRANCH  19  20
ENDBRANCH  18  19
ENDBRANCH   1  18
TORSDOF 8
ENDMDL
MODEL 10
REMARK VINA RESULT:      -7.5      3.680      8.035
REMARK  Name = 
REMARK  8 active torsions:
REMARK  status: ('A' for Active; 'I' for Inactive)
REMARK    1  A    between atoms: C_3  and  C_4
REMARK    2  A    between atoms: C_4  and  C_5
REMARK    3  A    between atoms: C_5  and  C_7
REMARK    4  A    between atoms: N_15  and  C_16
REMARK    5  A    between atoms: C_16  and  C_17
REMARK    6  A    between atoms: C_17  and  C_18
REMARK    7  A    between atoms: C_18  and  C_19
REMARK    8  A    between atoms: C_25  and  N_26
REMARK                            x       y       z     vdW  Elec       q    Type
REMARK                         _______ _______ _______ _____ _____    ______ ____
ROOT
ATOM      1  C   UNL     1      42.583  -0.424  12.345  0.00  0.00    +0.000 C 
ENDROOT
BRANCH   1   7
ATOM      2  C   UNL     1      38.213  -1.217  12.727  0.00  0.00    +0.000 C 
ATOM      3  C   UNL     1      39.563  -1.665  13.231  0.00  0.00    +0.000 C 
ATOM      4  C   UNL     1      39.657  -1.921  14.521  0.00  0.00    +0.000 C 
ATOM      5  C   UNL     1      41.017  -2.367  14.994  0.00  0.00    +0.000 C 
ATOM      6  C   UNL     1      42.104  -1.652  14.269  0.00  0.00    +0.000 C 
ATOM      7  N   UNL     1      41.990  -1.643  12.857  0.00  0.00    +0.000 NA
ATOM      8  C   UNL     1      40.703  -1.802  12.293  0.00  0.00    +0.000 C 
BRANCH   4   9
ATOM      9  C   UNL     1      38.604  -1.828  15.534  0.00  0.00    +0.000 C 
BRANCH   9  10
ATOM     10  C   UNL     1      38.093  -3.324  15.889  0.00  0.00    +0.000 C 
ATOM     11  C   UNL     1      36.488  -2.924  15.656  0.00  0.00    +0.000 C 
BRANCH  10  12
ATOM     12  C   UNL     1      37.997  -3.047  17.486  0.00  0.00    +0.000 A 
ATOM     13  C   UNL     1      38.700  -3.833  18.331  0.00  0.00    +0.000 A 
ATOM     14  C   UNL     1      38.583  -3.533  19.694  0.00  0.00    +0.000 A 
ATOM     15  C   UNL     1      37.798  -2.498  20.147  0.00  0.00    +0.000 A 
ATOM     16  C   UNL     1      37.102  -1.729  19.234  0.00  0.00    +0.000 A 
ATOM     17  C   UNL     1      37.215  -2.022  17.893  0.00  0.00    +0.000 A 
ENDBRANCH  10  12
ENDBRANCH   9  10
ENDBRANCH   4   9
ENDBRANCH   1   7
BRANCH   1  18
ATOM     18  C   UNL     1      42.088   0.743  13.142  0.00  0.00    +0.000 C 
BRANCH  18  19
ATOM     19  C   UNL     1      41.072   1.542  12.362  0.00  0.00    +0.000 C 
BRANCH  19  20
ATOM     20  C   UNL     1      40.848   2.817  13.061  0.00  0.00    +0.000 A 
ATOM     21  C   UNL     1      41.571   3.990  12.993  0.00  0.00    +0.000 A 
ATOM     22  N   UNL     1      41.022   4.914  13.787  0.00  0.00    +0.000 NA
ATOM     23  C   UNL     1      39.945   4.355  14.375  0.00  0.00    +0.000 A 
ATOM     24  C   UNL     1      39.044   4.893  15.283  0.00  0.00    +0.000 A 
ATOM     25  C   UNL     1      38.020   4.104  15.743  0.00  0.00    +0.000 A 
ATOM     26  C   UNL     1      37.845   2.795  15.342  0.00  0.00    +0.000 A 
ATOM     27  C   UNL     1      38.773   2.316  14.436  0.00  0.00    +0.000 A 
ATOM     28  C   UNL     1      39.805   3.054  13.949  0.00  0.00    +0.000 A 
BRANCH  26  29
ATOM     29  N   UNL     1      36.780   1.979  15.824  0.00  0.00    +0.000 N 
ATOM     30  C   UNL     1      36.154   2.114  17.006  0.00  0.00    +0.000 A 
ATOM     31  N   UNL     1      35.214   1.144  17.075  0.00  0.00    +0.000 NA
ATOM     32  N   UNL     1      35.245   0.414  15.967  0.00  0.00    +0.000 NA
ATOM     33  C   UNL     1      36.235   0.950  15.188  0.00  0.00    +0.000 A 
ENDBRANCH  26  29
ENDBRANCH  19  20
ENDBRANCH  18  19
ENDBRANCH   1  18
TORSDOF 8
ENDMDL
