MODEL 1
REMARK VINA RESULT:      -8.2      0.000      0.000
REMARK  Name = 
REMARK  8 active torsions:
REMARK  status: ('A' for Active; 'I' for Inactive)
REMARK    1  A    between atoms: C_2  and  O_3
REMARK    2  A    between atoms: O_3  and  C_4
REMARK    3  A    between atoms: C_7  and  N_8
REMARK    4  A    between atoms: N_8  and  C_9
REMARK    5  A    between atoms: C_10  and  S_11
REMARK    6  A    between atoms: S_11  and  C_12
REMARK    7  A    between atoms: N_21  and  C_22
REMARK    8  A    between atoms: C_22  and  C_23
REMARK                            x       y       z     vdW  Elec       q    Type
REMARK                         _______ _______ _______ _____ _____    ______ ____
ROOT
ATOM      1  C   UNL     1      36.519   4.220  14.955  0.00  0.00    +0.000 C 
ATOM      2  C   UNL     1      37.809   3.810  14.953  0.00  0.00    +0.000 C 
ATOM      3  C   UNL     1      37.816   2.357  15.020  0.00  0.00    +0.000 C 
ATOM      4  O   UNL     1      38.774   1.564  15.041  0.00  0.00    +0.000 OA
ATOM      5  N   UNL     1      36.444   1.915  15.062  0.00  0.00    +0.000 N 
ATOM      6  C   UNL     1      35.646   3.066  15.022  0.00  0.00    +0.000 C 
ATOM      7  O   UNL     1      34.374   3.144  15.040  0.00  0.00    +0.000 OA
ENDROOT
BRANCH   1   8
ATOM      8  N   UNL     1      36.087   5.585  14.899  0.00  0.00    +0.000 NA
BRANCH   8  12
ATOM      9  C   UNL     1      34.223   6.911  11.367  0.00  0.00    +0.000 A 
ATOM     10  C   UNL     1      33.588   7.109  12.587  0.00  0.00    +0.000 A 
ATOM     11  C   UNL     1      34.223   6.665  13.729  0.00  0.00    +0.000 A 
ATOM     12  C   UNL     1      35.448   6.040  13.688  0.00  0.00    +0.000 A 
ATOM     13  C   UNL     1      36.035   5.866  12.459  0.00  0.00    +0.000 A 
ATOM     14  C   UNL     1      35.449   6.289  11.285  0.00  0.00    +0.000 A 
BRANCH   9  15
ATOM     15  O   UNL     1      33.548   7.373  10.247  0.00  0.00    +0.000 OA
BRANCH  15  17
ATOM     16  C   UNL     1      34.597   8.678   8.497  0.00  0.00    +0.000 C 
ATOM     17  C   UNL     1      34.216   7.315   9.004  0.00  0.00    +0.000 C 
ENDBRANCH  15  17
ENDBRANCH   9  15
ENDBRANCH   8  12
ENDBRANCH   1   8
BRANCH   2  18
ATOM     18  S   UNL     1      39.139   4.977  14.878  0.00  0.00    +0.000 S 
BRANCH  18  19
ATOM     19  C   UNL     1      39.741   5.481  16.452  0.00  0.00    +0.000 A 
ATOM     20  C   UNL     1      38.950   5.179  17.569  0.00  0.00    +0.000 A 
ATOM     21  C   UNL     1      39.378   5.551  18.811  0.00  0.00    +0.000 A 
ATOM     22  C   UNL     1      40.551   6.212  19.050  0.00  0.00    +0.000 A 
ATOM     23  C   UNL     1      41.056   6.635  20.371  0.00  0.00    +0.000 C 
ATOM     24  C   UNL     1      41.313   6.497  17.920  0.00  0.00    +0.000 A 
ATOM     25  C   UNL     1      40.907   6.136  16.678  0.00  0.00    +0.000 A 
ENDBRANCH  18  19
ENDBRANCH   2  18
BRANCH   5  26
ATOM     26  C   UNL     1      35.958   0.556  15.133  0.00  0.00    +0.000 C 
BRANCH  26  27
ATOM     27  C   UNL     1      36.196   0.044  16.523  0.00  0.00    +0.000 A 
ATOM     28  C   UNL     1      35.521   0.579  17.602  0.00  0.00    +0.000 A 
ATOM     29  C   UNL     1      35.736   0.112  18.880  0.00  0.00    +0.000 A 
ATOM     30  C   UNL     1      36.645  -0.906  19.045  0.00  0.00    +0.000 A 
ATOM     31  C   UNL     1      37.326  -1.453  17.987  0.00  0.00    +0.000 A 
ATOM     32  C   UNL     1      37.097  -0.973  16.725  0.00  0.00    +0.000 A 
ENDBRANCH  26  27
ENDBRANCH   5  26
TORSDOF 8
ENDMDL
MODEL 2
REMARK VINA RESULT:      -7.8      1.655      6.750
REMARK  Name = 
REMARK  8 active torsions:
REMARK  status: ('A' for Active; 'I' for Inactive)
REMARK    1  A    between atoms: C_2  and  O_3
REMARK    2  A    between atoms: O_3  and  C_4
REMARK    3  A    between atoms: C_7  and  N_8
REMARK    4  A    between atoms: N_8  and  C_9
REMARK    5  A    between atoms: C_10  and  S_11
REMARK    6  A    between atoms: S_11  and  C_12
REMARK    7  A    between atoms: N_21  and  C_22
REMARK    8  A    between atoms: C_22  and  C_23
REMARK                            x       y       z     vdW  Elec       q    Type
REMARK                         _______ _______ _______ _____ _____    ______ ____
ROOT
ATOM      1  C   UNL     1      37.816   3.620  14.844  0.00  0.00    +0.000 C 
ATOM      2  C   UNL     1      36.513   3.942  14.662  0.00  0.00    +0.000 C 
ATOM      3  C   UNL     1      35.743   2.709  14.674  0.00  0.00    +0.000 C 
ATOM      4  O   UNL     1      34.519   2.531  14.543  0.00  0.00    +0.000 OA
ATOM      5  N   UNL     1      36.665   1.619  14.876  0.00  0.00    +0.000 N 
ATOM      6  C   UNL     1      37.943   2.184  14.980  0.00  0.00    +0.000 C 
ATOM      7  O   UNL     1      39.055   1.589  15.163  0.00  0.00    +0.000 OA
ENDROOT
BRANCH   1   8
ATOM      8  N   UNL     1      38.898   4.558  14.894  0.00  0.00    +0.000 NA
BRANCH   8  12
ATOM      9  C   UNL     1      40.090   5.979  18.672  0.00  0.00    +0.000 A 
ATOM     10  C   UNL     1      38.989   5.135  18.578  0.00  0.00    +0.000 A 
ATOM     11  C   UNL     1      38.622   4.684  17.327  0.00  0.00    +0.000 A 
ATOM     12  C   UNL     1      39.307   5.045  16.189  0.00  0.00    +0.000 A 
ATOM     13  C   UNL     1      40.387   5.881  16.332  0.00  0.00    +0.000 A 
ATOM     14  C   UNL     1      40.801   6.363  17.556  0.00  0.00    +0.000 A 
BRANCH   9  15
ATOM     15  O   UNL     1      40.422   6.407  19.948  0.00  0.00    +0.000 OA
BRANCH  15  17
ATOM     16  C   UNL     1      38.858   8.134  20.607  0.00  0.00    +0.000 C 
ATOM     17  C   UNL     1      40.273   7.780  20.242  0.00  0.00    +0.000 C 
ENDBRANCH  15  17
ENDBRANCH   9  15
ENDBRANCH   8  12
ENDBRANCH   1   8
BRANCH   2  18
ATOM     18  S   UNL     1      36.008   5.627  14.460  0.00  0.00    +0.000 S 
BRANCH  18  19
ATOM     19  C   UNL     1      35.537   6.042  12.816  0.00  0.00    +0.000 A 
ATOM     20  C   UNL     1      34.397   6.842  12.657  0.00  0.00    +0.000 A 
ATOM     21  C   UNL     1      33.994   7.189  11.400  0.00  0.00    +0.000 A 
ATOM     22  C   UNL     1      34.637   6.804  10.257  0.00  0.00    +0.000 A 
ATOM     23  C   UNL     1      34.242   7.152   8.878  0.00  0.00    +0.000 C 
ATOM     24  C   UNL     1      35.765   6.010  10.448  0.00  0.00    +0.000 A 
ATOM     25  C   UNL     1      36.183   5.654  11.688  0.00  0.00    +0.000 A 
ENDBRANCH  18  19
ENDBRANCH   2  18
BRANCH   5  26
ATOM     26  C   UNL     1      36.360   0.210  14.958  0.00  0.00    +0.000 C 
BRANCH  26  27
ATOM     27  C   UNL     1      36.429  -0.203  16.399  0.00  0.00    +0.000 A 
ATOM     28  C   UNL     1      35.604   0.373  17.343  0.00  0.00    +0.000 A 
ATOM     29  C   UNL     1      35.664  -0.002  18.667  0.00  0.00    +0.000 A 
ATOM     30  C   UNL     1      36.575  -0.971  19.017  0.00  0.00    +0.000 A 
ATOM     31  C   UNL     1      37.405  -1.558  18.095  0.00  0.00    +0.000 A 
ATOM     32  C   UNL     1      37.327  -1.168  16.783  0.00  0.00    +0.000 A 
ENDBRANCH  26  27
ENDBRANCH   5  26
TORSDOF 8
ENDMDL
MODEL 3
REMARK VINA RESULT:      -7.7      2.335      2.944
REMARK  Name = 
REMARK  8 active torsions:
REMARK  status: ('A' for Active; 'I' for Inactive)
REMARK    1  A    between atoms: C_2  and  O_3
REMARK    2  A    between atoms: O_3  and  C_4
REMARK    3  A    between atoms: C_7  and  N_8
REMARK    4  A    between atoms: N_8  and  C_9
REMARK    5  A    between atoms: C_10  and  S_11
REMARK    6  A    between atoms: S_11  and  C_12
REMARK    7  A    between atoms: N_21  and  C_22
REMARK    8  A    between atoms: C_22  and  C_23
REMARK                            x       y       z     vdW  Elec       q    Type
REMARK                         _______ _______ _______ _____ _____    ______ ____
ROOT
ATOM      1  C   UNL     1      36.366   3.910  15.182  0.00  0.00    +0.000 C 
ATOM      2  C   UNL     1      37.256   3.809  16.198  0.00  0.00    +0.000 C 
ATOM      3  C   UNL     1      36.781   2.778  17.107  0.00  0.00    +0.000 C 
ATOM      4  O   UNL     1      37.279   2.355  18.164  0.00  0.00    +0.000 OA
ATOM      5  N   UNL     1      35.544   2.262  16.574  0.00  0.00    +0.000 N 
ATOM      6  C   UNL     1      35.290   2.962  15.387  0.00  0.00    +0.000 C 
ATOM      7  O   UNL     1      34.305   2.830  14.590  0.00  0.00    +0.000 OA
ENDROOT
BRANCH   1   8
ATOM      8  N   UNL     1      36.475   4.816  14.077  0.00  0.00    +0.000 NA
BRANCH   8  12
ATOM      9  C   UNL     1      34.394   8.466  14.320  0.00  0.00    +0.000 A 
ATOM     10  C   UNL     1      35.775   8.459  14.474  0.00  0.00    +0.000 A 
ATOM     11  C   UNL     1      36.431   7.248  14.389  0.00  0.00    +0.000 A 
ATOM     12  C   UNL     1      35.761   6.068  14.160  0.00  0.00    +0.000 A 
ATOM     13  C   UNL     1      34.397   6.125  14.016  0.00  0.00    +0.000 A 
ATOM     14  C   UNL     1      33.687   7.306  14.090  0.00  0.00    +0.000 A 
BRANCH   9  15
ATOM     15  O   UNL     1      33.777   9.704  14.414  0.00  0.00    +0.000 OA
BRANCH  15  17
ATOM     16  C   UNL     1      33.617  12.072  13.931  0.00  0.00    +0.000 C 
ATOM     17  C   UNL     1      34.334  10.775  13.680  0.00  0.00    +0.000 C 
ENDBRANCH  15  17
ENDBRANCH   9  15
ENDBRANCH   8  12
ENDBRANCH   1   8
BRANCH   2  18
ATOM     18  S   UNL     1      38.699   4.833  16.253  0.00  0.00    +0.000 S 
BRANCH  18  19
ATOM     19  C   UNL     1      38.702   5.997  17.573  0.00  0.00    +0.000 A 
ATOM     20  C   UNL     1      39.496   5.700  18.689  0.00  0.00    +0.000 A 
ATOM     21  C   UNL     1      39.530   6.575  19.737  0.00  0.00    +0.000 A 
ATOM     22  C   UNL     1      38.827   7.747  19.777  0.00  0.00    +0.000 A 
ATOM     23  C   UNL     1      38.829   8.724  20.884  0.00  0.00    +0.000 C 
ATOM     24  C   UNL     1      38.047   8.013  18.654  0.00  0.00    +0.000 A 
ATOM     25  C   UNL     1      38.001   7.158  17.603  0.00  0.00    +0.000 A 
ENDBRANCH  18  19
ENDBRANCH   2  18
BRANCH   5  26
ATOM     26  C   UNL     1      34.708   1.225  17.134  0.00  0.00    +0.000 C 
BRANCH  26  27
ATOM     27  C   UNL     1      35.135  -0.089  16.551  0.00  0.00    +0.000 A 
ATOM     28  C   UNL     1      36.073  -0.147  15.541  0.00  0.00    +0.000 A 
ATOM     29  C   UNL     1      36.468  -1.352  15.002  0.00  0.00    +0.000 A 
ATOM     30  C   UNL     1      35.896  -2.497  15.505  0.00  0.00    +0.000 A 
ATOM     31  C   UNL     1      34.962  -2.463  16.510  0.00  0.00    +0.000 A 
ATOM     32  C   UNL     1      34.584  -1.253  17.030  0.00  0.00    +0.000 A 
ENDBRANCH  26  27
ENDBRANCH   5  26
TORSDOF 8
ENDMDL
MODEL 4
REMARK VINA RESULT:      -7.6      1.635      2.068
REMARK  Name = 
REMARK  8 active torsions:
REMARK  status: ('A' for Active; 'I' for Inactive)
REMARK    1  A    between atoms: C_2  and  O_3
REMARK    2  A    between atoms: O_3  and  C_4
REMARK    3  A    between atoms: C_7  and  N_8
REMARK    4  A    between atoms: N_8  and  C_9
REMARK    5  A    between atoms: C_10  and  S_11
REMARK    6  A    between atoms: S_11  and  C_12
REMARK    7  A    between atoms: N_21  and  C_22
REMARK    8  A    between atoms: C_22  and  C_23
REMARK                            x       y       z     vdW  Elec       q    Type
REMARK                         _______ _______ _______ _____ _____    ______ ____
ROOT
ATOM      1  C   UNL     1      36.971   3.288  14.681  0.00  0.00    +0.000 C 
ATOM      2  C   UNL     1      37.578   3.675  15.828  0.00  0.00    +0.000 C 
ATOM      3  C   UNL     1      37.017   2.891  16.917  0.00  0.00    +0.000 C 
ATOM      4  O   UNL     1      37.278   2.913  18.132  0.00  0.00    +0.000 OA
ATOM      5  N   UNL     1      36.030   2.004  16.353  0.00  0.00    +0.000 N 
ATOM      6  C   UNL     1      36.003   2.251  14.974  0.00  0.00    +0.000 C 
ATOM      7  O   UNL     1      35.278   1.693  14.087  0.00  0.00    +0.000 OA
ENDROOT
BRANCH   1   8
ATOM      8  N   UNL     1      37.245   3.824  13.381  0.00  0.00    +0.000 NA
BRANCH   8  12
ATOM      9  C   UNL     1      34.673   6.810  11.906  0.00  0.00    +0.000 A 
ATOM     10  C   UNL     1      34.574   6.423  13.237  0.00  0.00    +0.000 A 
ATOM     11  C   UNL     1      35.431   5.442  13.693  0.00  0.00    +0.000 A 
ATOM     12  C   UNL     1      36.363   4.848  12.874  0.00  0.00    +0.000 A 
ATOM     13  C   UNL     1      36.423   5.263  11.567  0.00  0.00    +0.000 A 
ATOM     14  C   UNL     1      35.593   6.238  11.055  0.00  0.00    +0.000 A 
BRANCH   9  15
ATOM     15  O   UNL     1      33.792   7.798  11.492  0.00  0.00    +0.000 OA
BRANCH  15  17
ATOM     16  C   UNL     1      34.771   9.938  12.065  0.00  0.00    +0.000 C 
ATOM     17  C   UNL     1      34.339   8.994  10.977  0.00  0.00    +0.000 C 
ENDBRANCH  15  17
ENDBRANCH   9  15
ENDBRANCH   8  12
ENDBRANCH   1   8
BRANCH   2  18
ATOM     18  S   UNL     1      38.822   4.934  15.822  0.00  0.00    +0.000 S 
BRANCH  18  19
ATOM     19  C   UNL     1      38.856   5.916  17.283  0.00  0.00    +0.000 A 
ATOM     20  C   UNL     1      38.156   7.129  17.257  0.00  0.00    +0.000 A 
ATOM     21  C   UNL     1      38.154   7.924  18.368  0.00  0.00    +0.000 A 
ATOM     22  C   UNL     1      38.801   7.613  19.531  0.00  0.00    +0.000 A 
ATOM     23  C   UNL     1      38.830   8.436  20.756  0.00  0.00    +0.000 C 
ATOM     24  C   UNL     1      39.487   6.401  19.525  0.00  0.00    +0.000 A 
ATOM     25  C   UNL     1      39.501   5.598  18.433  0.00  0.00    +0.000 A 
ENDBRANCH  18  19
ENDBRANCH   2  18
BRANCH   5  26
ATOM     26  C   UNL     1      35.213   1.038  17.051  0.00  0.00    +0.000 C 
BRANCH  26  27
ATOM     27  C   UNL     1      36.105  -0.060  17.549  0.00  0.00    +0.000 A 
ATOM     28  C   UNL     1      36.894  -0.784  16.678  0.00  0.00    +0.000 A 
ATOM     29  C   UNL     1      37.714  -1.794  17.130  0.00  0.00    +0.000 A 
ATOM     30  C   UNL     1      37.721  -2.057  18.480  0.00  0.00    +0.000 A 
ATOM     31  C   UNL     1      36.945  -1.350  19.364  0.00  0.00    +0.000 A 
ATOM     32  C   UNL     1      36.137  -0.350  18.891  0.00  0.00    +0.000 A 
ENDBRANCH  26  27
ENDBRANCH   5  26
TORSDOF 8
ENDMDL
MODEL 5
REMARK VINA RESULT:      -7.6      3.804      6.300
REMARK  Name = 
REMARK  8 active torsions:
REMARK  status: ('A' for Active; 'I' for Inactive)
REMARK    1  A    between atoms: C_2  and  O_3
REMARK    2  A    between atoms: O_3  and  C_4
REMARK    3  A    between atoms: C_7  and  N_8
REMARK    4  A    between atoms: N_8  and  C_9
REMARK    5  A    between atoms: C_10  and  S_11
REMARK    6  A    between atoms: S_11  and  C_12
REMARK    7  A    between atoms: N_21  and  C_22
REMARK    8  A    between atoms: C_22  and  C_23
REMARK                            x       y       z     vdW  Elec       q    Type
REMARK                         _______ _______ _______ _____ _____    ______ ____
ROOT
ATOM      1  C   UNL     1      38.075   1.710  13.949  0.00  0.00    +0.000 C 
ATOM      2  C   UNL     1      37.730   2.681  14.827  0.00  0.00    +0.000 C 
ATOM      3  C   UNL     1      36.746   2.126  15.744  0.00  0.00    +0.000 C 
ATOM      4  O   UNL     1      36.160   2.657  16.702  0.00  0.00    +0.000 OA
ATOM      5  N   UNL     1      36.520   0.754  15.362  0.00  0.00    +0.000 N 
ATOM      6  C   UNL     1      37.340   0.500  14.255  0.00  0.00    +0.000 C 
ATOM      7  O   UNL     1      37.460  -0.584  13.595  0.00  0.00    +0.000 OA
ENDROOT
BRANCH   1   8
ATOM      8  N   UNL     1      39.022   1.859  12.884  0.00  0.00    +0.000 NA
BRANCH   8  12
ATOM      9  C   UNL     1      42.994   0.675  13.609  0.00  0.00    +0.000 A 
ATOM     10  C   UNL     1      41.952  -0.087  14.123  0.00  0.00    +0.000 A 
ATOM     11  C   UNL     1      40.660   0.325  13.869  0.00  0.00    +0.000 A 
ATOM     12  C   UNL     1      40.384   1.454  13.132  0.00  0.00    +0.000 A 
ATOM     13  C   UNL     1      41.446   2.174  12.646  0.00  0.00    +0.000 A 
ATOM     14  C   UNL     1      42.758   1.812  12.867  0.00  0.00    +0.000 A 
BRANCH   9  15
ATOM     15  O   UNL     1      44.275   0.224  13.889  0.00  0.00    +0.000 OA
BRANCH  15  17
ATOM     16  C   UNL     1      45.252  -0.208  16.063  0.00  0.00    +0.000 C 
ATOM     17  C   UNL     1      44.427  -0.730  14.919  0.00  0.00    +0.000 C 
ENDBRANCH  15  17
ENDBRANCH   9  15
ENDBRANCH   8  12
ENDBRANCH   1   8
BRANCH   2  18
ATOM     18  S   UNL     1      38.450   4.296  14.733  0.00  0.00    +0.000 S 
BRANCH  18  19
ATOM     19  C   UNL     1      39.042   4.908  16.273  0.00  0.00    +0.000 A 
ATOM     20  C   UNL     1      40.214   5.676  16.250  0.00  0.00    +0.000 A 
ATOM     21  C   UNL     1      40.711   6.172  17.421  0.00  0.00    +0.000 A 
ATOM     22  C   UNL     1      40.133   5.969  18.644  0.00  0.00    +0.000 A 
ATOM     23  C   UNL     1      40.630   6.482  19.935  0.00  0.00    +0.000 C 
ATOM     24  C   UNL     1      38.971   5.202  18.632  0.00  0.00    +0.000 A 
ATOM     25  C   UNL     1      38.461   4.700  17.481  0.00  0.00    +0.000 A 
ENDBRANCH  18  19
ENDBRANCH   2  18
BRANCH   5  26
ATOM     26  C   UNL     1      35.626  -0.197  15.982  0.00  0.00    +0.000 C 
BRANCH  26  27
ATOM     27  C   UNL     1      36.316  -0.777  17.182  0.00  0.00    +0.000 A 
ATOM     28  C   UNL     1      37.386  -1.636  17.040  0.00  0.00    +0.000 A 
ATOM     29  C   UNL     1      38.022  -2.171  18.138  0.00  0.00    +0.000 A 
ATOM     30  C   UNL     1      37.554  -1.819  19.383  0.00  0.00    +0.000 A 
ATOM     31  C   UNL     1      36.492  -0.966  19.548  0.00  0.00    +0.000 A 
ATOM     32  C   UNL     1      35.875  -0.446  18.440  0.00  0.00    +0.000 A 
ENDBRANCH  26  27
ENDBRANCH   5  26
TORSDOF 8
ENDMDL
MODEL 6
REMARK VINA RESULT:      -7.5      3.431      8.225
REMARK  Name = 
REMARK  8 active torsions:
REMARK  status: ('A' for Active; 'I' for Inactive)
REMARK    1  A    between atoms: C_2  and  O_3
REMARK    2  A    between atoms: O_3  and  C_4
REMARK    3  A    between atoms: C_7  and  N_8
REMARK    4  A    between atoms: N_8  and  C_9
REMARK    5  A    between atoms: C_10  and  S_11
REMARK    6  A    between atoms: S_11  and  C_12
REMARK    7  A    between atoms: N_21  and  C_22
REMARK    8  A    between atoms: C_22  and  C_23
REMARK                            x       y       z     vdW  Elec       q    Type
REMARK                         _______ _______ _______ _____ _____    ______ ____
ROOT
ATOM      1  C   UNL     1      38.154   1.838  14.041  0.00  0.00    +0.000 C 
ATOM      2  C   UNL     1      37.203   1.515  14.950  0.00  0.00    +0.000 C 
ATOM      3  C   UNL     1      36.810   2.734  15.638  0.00  0.00    +0.000 C 
ATOM      4  O   UNL     1      35.974   2.905  16.542  0.00  0.00    +0.000 OA
ATOM      5  N   UNL     1      37.585   3.817  15.085  0.00  0.00    +0.000 N 
ATOM      6  C   UNL     1      38.413   3.262  14.100  0.00  0.00    +0.000 C 
ATOM      7  O   UNL     1      39.262   3.856  13.359  0.00  0.00    +0.000 OA
ENDROOT
BRANCH   1   8
ATOM      8  N   UNL     1      38.800   0.913  13.158  0.00  0.00    +0.000 NA
BRANCH   8  12
ATOM      9  C   UNL     1      42.475  -0.730  14.384  0.00  0.00    +0.000 A 
ATOM     10  C   UNL     1      42.462   0.499  13.735  0.00  0.00    +0.000 A 
ATOM     11  C   UNL     1      41.243   1.013  13.345  0.00  0.00    +0.000 A 
ATOM     12  C   UNL     1      40.060   0.349  13.579  0.00  0.00    +0.000 A 
ATOM     13  C   UNL     1      40.124  -0.861  14.222  0.00  0.00    +0.000 A 
ATOM     14  C   UNL     1      41.313  -1.425  14.636  0.00  0.00    +0.000 A 
BRANCH   9  15
ATOM     15  O   UNL     1      43.722  -1.208  14.757  0.00  0.00    +0.000 OA
BRANCH  15  17
ATOM     16  C   UNL     1      45.328  -0.335  16.346  0.00  0.00    +0.000 C 
ATOM     17  C   UNL     1      44.756  -0.268  14.957  0.00  0.00    +0.000 C 
ENDBRANCH  15  17
ENDBRANCH   9  15
ENDBRANCH   8  12
ENDBRANCH   1   8
BRANCH   2  18
ATOM     18  S   UNL     1      36.650  -0.156  15.137  0.00  0.00    +0.000 S 
BRANCH  18  19
ATOM     19  C   UNL     1      36.914  -0.824  16.743  0.00  0.00    +0.000 A 
ATOM     20  C   UNL     1      37.875  -1.836  16.868  0.00  0.00    +0.000 A 
ATOM     21  C   UNL     1      38.114  -2.384  18.096  0.00  0.00    +0.000 A 
ATOM     22  C   UNL     1      37.467  -2.006  19.240  0.00  0.00    +0.000 A 
ATOM     23  C   UNL     1      37.688  -2.566  20.588  0.00  0.00    +0.000 C 
ATOM     24  C   UNL     1      36.518  -0.999  19.083  0.00  0.00    +0.000 A 
ATOM     25  C   UNL     1      36.267  -0.442  17.873  0.00  0.00    +0.000 A 
ENDBRANCH  18  19
ENDBRANCH   2  18
BRANCH   5  26
ATOM     26  C   UNL     1      37.538   5.213  15.456  0.00  0.00    +0.000 C 
BRANCH  26  27
ATOM     27  C   UNL     1      38.623   5.468  16.461  0.00  0.00    +0.000 A 
ATOM     28  C   UNL     1      38.439   5.168  17.795  0.00  0.00    +0.000 A 
ATOM     29  C   UNL     1      39.432   5.401  18.722  0.00  0.00    +0.000 A 
ATOM     30  C   UNL     1      40.613   5.944  18.272  0.00  0.00    +0.000 A 
ATOM     31  C   UNL     1      40.817   6.250  16.950  0.00  0.00    +0.000 A 
ATOM     32  C   UNL     1      39.815   6.009  16.046  0.00  0.00    +0.000 A 
ENDBRANCH  26  27
ENDBRANCH   5  26
TORSDOF 8
ENDMDL
MODEL 7
REMARK VINA RESULT:      -7.5      2.713      3.530
REMARK  Name = 
REMARK  8 active torsions:
REMARK  status: ('A' for Active; 'I' for Inactive)
REMARK    1  A    between atoms: C_2  and  O_3
REMARK    2  A    between atoms: O_3  and  C_4
REMARK    3  A    between atoms: C_7  and  N_8
REMARK    4  A    between atoms: N_8  and  C_9
REMARK    5  A    between atoms: C_10  and  S_11
REMARK    6  A    between atoms: S_11  and  C_12
REMARK    7  A    between atoms: N_21  and  C_22
REMARK    8  A    between atoms: C_22  and  C_23
REMARK                            x       y       z     vdW  Elec       q    Type
REMARK                         _______ _______ _______ _____ _____    ______ ____
ROOT
ATOM      1  C   UNL     1      37.679   1.861  13.952  0.00  0.00    +0.000 C 
ATOM      2  C   UNL     1      37.286   2.741  14.904  0.00  0.00    +0.000 C 
ATOM      3  C   UNL     1      36.454   2.024  15.857  0.00  0.00    +0.000 C 
ATOM      4  O   UNL     1      35.882   2.433  16.883  0.00  0.00    +0.000 OA
ATOM      5  N   UNL     1      36.369   0.653  15.420  0.00  0.00    +0.000 N 
ATOM      6  C   UNL     1      37.126   0.555  14.244  0.00  0.00    +0.000 C 
ATOM      7  O   UNL     1      37.326  -0.474  13.520  0.00  0.00    +0.000 OA
ENDROOT
BRANCH   1   8
ATOM      8  N   UNL     1      38.513   2.177  12.831  0.00  0.00    +0.000 NA
BRANCH   8  12
ATOM      9  C   UNL     1      36.632   3.056   9.170  0.00  0.00    +0.000 A 
ATOM     10  C   UNL     1      36.888   4.086  10.068  0.00  0.00    +0.000 A 
ATOM     11  C   UNL     1      37.507   3.768  11.260  0.00  0.00    +0.000 A 
ATOM     12  C   UNL     1      37.869   2.478  11.575  0.00  0.00    +0.000 A 
ATOM     13  C   UNL     1      37.594   1.496  10.657  0.00  0.00    +0.000 A 
ATOM     14  C   UNL     1      36.979   1.752   9.450  0.00  0.00    +0.000 A 
BRANCH   9  15
ATOM     15  O   UNL     1      36.009   3.421   7.987  0.00  0.00    +0.000 OA
BRANCH  15  17
ATOM     16  C   UNL     1      35.519   3.136   5.632  0.00  0.00    +0.000 C 
ATOM     17  C   UNL     1      36.258   2.634   6.841  0.00  0.00    +0.000 C 
ENDBRANCH  15  17
ENDBRANCH   9  15
ENDBRANCH   8  12
ENDBRANCH   1   8
BRANCH   2  18
ATOM     18  S   UNL     1      37.791   4.437  14.845  0.00  0.00    +0.000 S 
BRANCH  18  19
ATOM     19  C   UNL     1      38.666   4.974  16.274  0.00  0.00    +0.000 A 
ATOM     20  C   UNL     1      39.836   5.718  16.068  0.00  0.00    +0.000 A 
ATOM     21  C   UNL     1      40.548   6.156  17.148  0.00  0.00    +0.000 A 
ATOM     22  C   UNL     1      40.194   5.916  18.446  0.00  0.00    +0.000 A 
ATOM     23  C   UNL     1      40.928   6.366  19.644  0.00  0.00    +0.000 C 
ATOM     24  C   UNL     1      39.027   5.174  18.617  0.00  0.00    +0.000 A 
ATOM     25  C   UNL     1      38.306   4.730  17.559  0.00  0.00    +0.000 A 
ENDBRANCH  18  19
ENDBRANCH   2  18
BRANCH   5  26
ATOM     26  C   UNL     1      35.651  -0.430  16.050  0.00  0.00    +0.000 C 
BRANCH  26  27
ATOM     27  C   UNL     1      36.551  -1.057  17.075  0.00  0.00    +0.000 A 
ATOM     28  C   UNL     1      37.580  -1.896  16.698  0.00  0.00    +0.000 A 
ATOM     29  C   UNL     1      38.408  -2.473  17.635  0.00  0.00    +0.000 A 
ATOM     30  C   UNL     1      38.176  -2.186  18.959  0.00  0.00    +0.000 A 
ATOM     31  C   UNL     1      37.158  -1.355  19.356  0.00  0.00    +0.000 A 
ATOM     32  C   UNL     1      36.347  -0.792  18.407  0.00  0.00    +0.000 A 
ENDBRANCH  26  27
ENDBRANCH   5  26
TORSDOF 8
ENDMDL
MODEL 8
REMARK VINA RESULT:      -7.5      2.475      8.107
REMARK  Name = 
REMARK  8 active torsions:
REMARK  status: ('A' for Active; 'I' for Inactive)
REMARK    1  A    between atoms: C_2  and  O_3
REMARK    2  A    between atoms: O_3  and  C_4
REMARK    3  A    between atoms: C_7  and  N_8
REMARK    4  A    between atoms: N_8  and  C_9
REMARK    5  A    between atoms: C_10  and  S_11
REMARK    6  A    between atoms: S_11  and  C_12
REMARK    7  A    between atoms: N_21  and  C_22
REMARK    8  A    between atoms: C_22  and  C_23
REMARK                            x       y       z     vdW  Elec       q    Type
REMARK                         _______ _______ _______ _____ _____    ______ ____
ROOT
ATOM      1  C   UNL     1      37.541   4.065  15.467  0.00  0.00    +0.000 C 
ATOM      2  C   UNL     1      36.404   3.409  15.801  0.00  0.00    +0.000 C 
ATOM      3  C   UNL     1      35.340   3.890  14.934  0.00  0.00    +0.000 C 
ATOM      4  O   UNL     1      34.140   3.566  14.888  0.00  0.00    +0.000 OA
ATOM      5  N   UNL     1      35.908   4.880  14.053  0.00  0.00    +0.000 N 
ATOM      6  C   UNL     1      37.266   4.986  14.384  0.00  0.00    +0.000 C 
ATOM      7  O   UNL     1      38.148   5.741  13.860  0.00  0.00    +0.000 OA
ENDROOT
BRANCH   1   8
ATOM      8  N   UNL     1      38.816   3.874  16.091  0.00  0.00    +0.000 NA
BRANCH   8  12
ATOM      9  C   UNL     1      40.201   6.883  18.687  0.00  0.00    +0.000 A 
ATOM     10  C   UNL     1      39.255   5.972  19.144  0.00  0.00    +0.000 A 
ATOM     11  C   UNL     1      38.820   4.996  18.271  0.00  0.00    +0.000 A 
ATOM     12  C   UNL     1      39.292   4.906  16.981  0.00  0.00    +0.000 A 
ATOM     13  C   UNL     1      40.224   5.828  16.576  0.00  0.00    +0.000 A 
ATOM     14  C   UNL     1      40.697   6.825  17.403  0.00  0.00    +0.000 A 
BRANCH   9  15
ATOM     15  O   UNL     1      40.609   7.846  19.598  0.00  0.00    +0.000 OA
BRANCH  15  17
ATOM     16  C   UNL     1      39.051   9.301  20.747  0.00  0.00    +0.000 C 
ATOM     17  C   UNL     1      39.959   9.099  19.566  0.00  0.00    +0.000 C 
ENDBRANCH  15  17
ENDBRANCH   9  15
ENDBRANCH   8  12
ENDBRANCH   1   8
BRANCH   2  18
ATOM     18  S   UNL     1      36.392   2.202  17.097  0.00  0.00    +0.000 S 
BRANCH  18  19
ATOM     19  C   UNL     1      36.043   0.566  16.550  0.00  0.00    +0.000 A 
ATOM     20  C   UNL     1      36.730   0.107  15.418  0.00  0.00    +0.000 A 
ATOM     21  C   UNL     1      36.491  -1.156  14.958  0.00  0.00    +0.000 A 
ATOM     22  C   UNL     1      35.609  -2.026  15.536  0.00  0.00    +0.000 A 
ATOM     23  C   UNL     1      35.316  -3.398  15.078  0.00  0.00    +0.000 C 
ATOM     24  C   UNL     1      34.942  -1.540  16.659  0.00  0.00    +0.000 A 
ATOM     25  C   UNL     1      35.165  -0.289  17.131  0.00  0.00    +0.000 A 
ENDBRANCH  18  19
ENDBRANCH   2  18
BRANCH   5  26
ATOM     26  C   UNL     1      35.233   5.632  13.021  0.00  0.00    +0.000 C 
BRANCH  26  27
ATOM     27  C   UNL     1      34.916   6.995  13.564  0.00  0.00    +0.000 A 
ATOM     28  C   UNL     1      35.678   8.092  13.219  0.00  0.00    +0.000 A 
ATOM     29  C   UNL     1      35.391   9.344  13.715  0.00  0.00    +0.000 A 
ATOM     30  C   UNL     1      34.318   9.465  14.567  0.00  0.00    +0.000 A 
ATOM     31  C   UNL     1      33.546   8.388  14.923  0.00  0.00    +0.000 A 
ATOM     32  C   UNL     1      33.851   7.151  14.417  0.00  0.00    +0.000 A 
ENDBRANCH  26  27
ENDBRANCH   5  26
TORSDOF 8
ENDMDL
MODEL 9
REMARK VINA RESULT:      -7.4      2.205      6.039
REMARK  Name = 
REMARK  8 active torsions:
REMARK  status: ('A' for Active; 'I' for Inactive)
REMARK    1  A    between atoms: C_2  and  O_3
REMARK    2  A    between atoms: O_3  and  C_4
REMARK    3  A    between atoms: C_7  and  N_8
REMARK    4  A    between atoms: N_8  and  C_9
REMARK    5  A    between atoms: C_10  and  S_11
REMARK    6  A    between atoms: S_11  and  C_12
REMARK    7  A    between atoms: N_21  and  C_22
REMARK    8  A    between atoms: C_22  and  C_23
REMARK                            x       y       z     vdW  Elec       q    Type
REMARK                         _______ _______ _______ _____ _____    ______ ____
ROOT
ATOM      1  C   UNL     1      37.051   4.023  15.034  0.00  0.00    +0.000 C 
ATOM      2  C   UNL     1      36.745   3.425  16.210  0.00  0.00    +0.000 C 
ATOM      3  C   UNL     1      37.739   3.834  17.190  0.00  0.00    +0.000 C 
ATOM      4  O   UNL     1      37.848   3.530  18.391  0.00  0.00    +0.000 OA
ATOM      5  N   UNL     1      38.666   4.719  16.529  0.00  0.00    +0.000 N 
ATOM      6  C   UNL     1      38.240   4.833  15.199  0.00  0.00    +0.000 C 
ATOM      7  O   UNL     1      38.765   5.514  14.259  0.00  0.00    +0.000 OA
ENDROOT
BRANCH   1   8
ATOM      8  N   UNL     1      36.310   3.874  13.816  0.00  0.00    +0.000 NA
BRANCH   8  12
ATOM      9  C   UNL     1      34.499   7.307  12.189  0.00  0.00    +0.000 A 
ATOM     10  C   UNL     1      34.134   6.883  13.461  0.00  0.00    +0.000 A 
ATOM     11  C   UNL     1      34.745   5.755  13.969  0.00  0.00    +0.000 A 
ATOM     12  C   UNL     1      35.690   5.051  13.258  0.00  0.00    +0.000 A 
ATOM     13  C   UNL     1      36.016   5.508  12.005  0.00  0.00    +0.000 A 
ATOM     14  C   UNL     1      35.440   6.629  11.445  0.00  0.00    +0.000 A 
BRANCH   9  15
ATOM     15  O   UNL     1      33.860   8.444  11.719  0.00  0.00    +0.000 OA
BRANCH  15  17
ATOM     16  C   UNL     1      35.375  10.333  11.744  0.00  0.00    +0.000 C 
ATOM     17  C   UNL     1      34.607   9.337  10.920  0.00  0.00    +0.000 C 
ENDBRANCH  15  17
ENDBRANCH   9  15
ENDBRANCH   8  12
ENDBRANCH   1   8
BRANCH   2  18
ATOM     18  S   UNL     1      35.339   2.359  16.355  0.00  0.00    +0.000 S 
BRANCH  18  19
ATOM     19  C   UNL     1      35.655   0.690  15.896  0.00  0.00    +0.000 A 
ATOM     20  C   UNL     1      35.055  -0.313  16.670  0.00  0.00    +0.000 A 
ATOM     21  C   UNL     1      35.272  -1.623  16.351  0.00  0.00    +0.000 A 
ATOM     22  C   UNL     1      36.051  -2.036  15.306  0.00  0.00    +0.000 A 
ATOM     23  C   UNL     1      36.316  -3.436  14.921  0.00  0.00    +0.000 C 
ATOM     24  C   UNL     1      36.633  -1.016  14.557  0.00  0.00    +0.000 A 
ATOM     25  C   UNL     1      36.430   0.290  14.857  0.00  0.00    +0.000 A 
ENDBRANCH  18  19
ENDBRANCH   2  18
BRANCH   5  26
ATOM     26  C   UNL     1      39.820   5.373  17.101  0.00  0.00    +0.000 C 
BRANCH  26  27
ATOM     27  C   UNL     1      39.340   6.371  18.114  0.00  0.00    +0.000 A 
ATOM     28  C   UNL     1      39.839   6.372  19.401  0.00  0.00    +0.000 A 
ATOM     29  C   UNL     1      39.401   7.286  20.334  0.00  0.00    +0.000 A 
ATOM     30  C   UNL     1      38.449   8.198  19.940  0.00  0.00    +0.000 A 
ATOM     31  C   UNL     1      37.940   8.214  18.666  0.00  0.00    +0.000 A 
ATOM     32  C   UNL     1      38.391   7.296  17.755  0.00  0.00    +0.000 A 
ENDBRANCH  26  27
ENDBRANCH   5  26
TORSDOF 8
ENDMDL
MODEL 10
REMARK VINA RESULT:      -7.4      2.337      7.535
REMARK  Name = 
REMARK  8 active torsions:
REMARK  status: ('A' for Active; 'I' for Inactive)
REMARK    1  A    between atoms: C_2  and  O_3
REMARK    2  A    between atoms: O_3  and  C_4
REMARK    3  A    between atoms: C_7  and  N_8
REMARK    4  A    between atoms: N_8  and  C_9
REMARK    5  A    between atoms: C_10  and  S_11
REMARK    6  A    between atoms: S_11  and  C_12
REMARK    7  A    between atoms: N_21  and  C_22
REMARK    8  A    between atoms: C_22  and  C_23
REMARK                            x       y       z     vdW  Elec       q    Type
REMARK                         _______ _______ _______ _____ _____    ______ ____
ROOT
ATOM      1  C   UNL     1      36.936   4.276  14.175  0.00  0.00    +0.000 C 
ATOM      2  C   UNL     1      36.516   5.561  14.250  0.00  0.00    +0.000 C 
ATOM      3  C   UNL     1      37.648   6.376  14.662  0.00  0.00    +0.000 C 
ATOM      4  O   UNL     1      37.720   7.602  14.856  0.00  0.00    +0.000 OA
ATOM      5  N   UNL     1      38.780   5.499  14.831  0.00  0.00    +0.000 N 
ATOM      6  C   UNL     1      38.338   4.204  14.530  0.00  0.00    +0.000 C 
ATOM      7  O   UNL     1      39.006   3.119  14.548  0.00  0.00    +0.000 OA
ENDROOT
BRANCH   1   8
ATOM      8  N   UNL     1      36.116   3.161  13.801  0.00  0.00    +0.000 NA
BRANCH   8  12
ATOM      9  C   UNL     1      35.289   0.260  16.735  0.00  0.00    +0.000 A 
ATOM     10  C   UNL     1      36.023  -0.099  15.610  0.00  0.00    +0.000 A 
ATOM     11  C   UNL     1      36.279   0.873  14.665  0.00  0.00    +0.000 A 
ATOM     12  C   UNL     1      35.832   2.167  14.807  0.00  0.00    +0.000 A 
ATOM     13  C   UNL     1      35.111   2.473  15.934  0.00  0.00    +0.000 A 
ATOM     14  C   UNL     1      34.823   1.545  16.912  0.00  0.00    +0.000 A 
BRANCH   9  15
ATOM     15  O   UNL     1      35.055  -0.749  17.657  0.00  0.00    +0.000 OA
BRANCH  15  17
ATOM     16  C   UNL     1      36.871  -1.273  19.170  0.00  0.00    +0.000 C 
ATOM     17  C   UNL     1      36.108  -1.649  17.931  0.00  0.00    +0.000 C 
ENDBRANCH  15  17
ENDBRANCH   9  15
ENDBRANCH   8  12
ENDBRANCH   1   8
BRANCH   2  18
ATOM     18  S   UNL     1      34.842   6.000  13.876  0.00  0.00    +0.000 S 
BRANCH  18  19
ATOM     19  C   UNL     1      34.534   7.732  13.891  0.00  0.00    +0.000 A 
ATOM     20  C   UNL     1      34.818   8.445  12.719  0.00  0.00    +0.000 A 
ATOM     21  C   UNL     1      34.594   9.792  12.685  0.00  0.00    +0.000 A 
ATOM     22  C   UNL     1      34.102  10.512  13.737  0.00  0.00    +0.000 A 
ATOM     23  C   UNL     1      33.843  11.965  13.751  0.00  0.00    +0.000 C 
ATOM     24  C   UNL     1      33.831   9.775  14.887  0.00  0.00    +0.000 A 
ATOM     25  C   UNL     1      34.045   8.437  14.942  0.00  0.00    +0.000 A 
ENDBRANCH  18  19
ENDBRANCH   2  18
BRANCH   5  26
ATOM     26  C   UNL     1      40.121   5.858  15.232  0.00  0.00    +0.000 C 
BRANCH  26  27
ATOM     27  C   UNL     1      40.160   5.928  16.731  0.00  0.00    +0.000 A 
ATOM     28  C   UNL     1      39.085   5.511  17.489  0.00  0.00    +0.000 A 
ATOM     29  C   UNL     1      39.116   5.573  18.865  0.00  0.00    +0.000 A 
ATOM     30  C   UNL     1      40.256   6.066  19.458  0.00  0.00    +0.000 A 
ATOM     31  C   UNL     1      41.336   6.485  18.723  0.00  0.00    +0.000 A 
ATOM     32  C   UNL     1      41.282   6.414  17.356  0.00  0.00    +0.000 A 
ENDBRANCH  26  27
ENDBRANCH   5  26
TORSDOF 8
ENDMDL
