MODEL 1
REMARK VINA RESULT:      -8.1      0.000      0.000
REMARK  Name = 
REMARK  6 active torsions:
REMARK  status: ('A' for Active; 'I' for Inactive)
REMARK    1  A    between atoms: O_2  and  C_3
REMARK    2  A    between atoms: C_7  and  C_8
REMARK    3  A    between atoms: C_18  and  O_19
REMARK    4  A    between atoms: O_19  and  C_20
REMARK    5  A    between atoms: C_20  and  C_21
REMARK    6  A    between atoms: C_29  and  O_30
REMARK                            x       y       z     vdW  Elec       q    Type
REMARK                         _______ _______ _______ _____ _____    ______ ____
ROOT
ATOM      1  C   UNL     1      12.077  -0.235  27.352  0.00  0.00    +0.000 C 
ATOM      2  N   UNL     1      12.354  -1.427  28.340  0.00  0.00    +0.000 NA
ATOM      3  C   UNL     1      12.547  -2.518  27.377  0.00  0.00    +0.000 C 
ATOM      4  C   UNL     1      13.475  -2.114  26.249  0.00  0.00    +0.000 C 
ATOM      5  C   UNL     1      14.245  -0.888  26.590  0.00  0.00    +0.000 A 
ATOM      6  C   UNL     1      13.598   0.168  27.179  0.00  0.00    +0.000 A 
ATOM      7  N   UNL     1      14.397   1.146  27.409  0.00  0.00    +0.000 NA
ATOM      8  C   UNL     1      15.635   0.817  26.991  0.00  0.00    +0.000 A 
ATOM      9  C   UNL     1      16.882   1.402  26.955  0.00  0.00    +0.000 A 
ATOM     10  C   UNL     1      17.976   0.728  26.426  0.00  0.00    +0.000 A 
ATOM     11  C   UNL     1      17.854  -0.548  25.919  0.00  0.00    +0.000 A 
ATOM     12  C   UNL     1      16.615  -1.154  25.944  0.00  0.00    +0.000 A 
ATOM     13  C   UNL     1      15.550  -0.461  26.475  0.00  0.00    +0.000 A 
ENDROOT
BRANCH   1  18
ATOM     14  C   UNL     1      10.640   2.966  28.781  0.00  0.00    +0.000 A 
ATOM     15  C   UNL     1      10.890   2.768  30.124  0.00  0.00    +0.000 A 
ATOM     16  C   UNL     1      11.506   1.652  30.646  0.00  0.00    +0.000 A 
ATOM     17  C   UNL     1      11.901   0.664  29.766  0.00  0.00    +0.000 A 
ATOM     18  C   UNL     1      11.683   0.809  28.478  0.00  0.00    +0.000 A 
ATOM     19  C   UNL     1      11.069   1.920  27.945  0.00  0.00    +0.000 A 
BRANCH  14  21
ATOM     20  C   UNL     1       8.649   4.260  28.589  0.00  0.00    +0.000 C 
ATOM     21  O   UNL     1      10.018   4.098  28.271  0.00  0.00    +0.000 OA
ENDBRANCH  14  21
BRANCH  19  22
ATOM     22  O   UNL     1      10.835   2.084  26.599  0.00  0.00    +0.000 OA
ATOM     23  C   UNL     1       9.619   1.763  25.964  0.00  0.00    +0.000 C 
ENDBRANCH  19  22
ENDBRANCH   1  18
BRANCH  11  24
ATOM     24  O   UNL     1      18.929  -1.244  25.385  0.00  0.00    +0.000 OA
BRANCH  24  25
ATOM     25  C   UNL     1      20.129  -0.666  24.992  0.00  0.00    +0.000 C 
BRANCH  25  26
ATOM     26  C   UNL     1      20.180  -0.427  23.517  0.00  0.00    +0.000 A 
ATOM     27  C   UNL     1      19.872   0.835  23.029  0.00  0.00    +0.000 A 
ATOM     28  C   UNL     1      19.900   1.110  21.677  0.00  0.00    +0.000 A 
ATOM     29  C   UNL     1      20.235   0.141  20.754  0.00  0.00    +0.000 A 
ATOM     30  C   UNL     1      20.538  -1.109  21.253  0.00  0.00    +0.000 A 
ATOM     31  C   UNL     1      20.513  -1.390  22.603  0.00  0.00    +0.000 A 
ENDBRANCH  25  26
ENDBRANCH  24  25
ENDBRANCH  11  24
TORSDOF 6
ENDMDL
MODEL 2
REMARK VINA RESULT:      -7.9     23.093     25.669
REMARK  Name = 
REMARK  6 active torsions:
REMARK  status: ('A' for Active; 'I' for Inactive)
REMARK    1  A    between atoms: O_2  and  C_3
REMARK    2  A    between atoms: C_7  and  C_8
REMARK    3  A    between atoms: C_18  and  O_19
REMARK    4  A    between atoms: O_19  and  C_20
REMARK    5  A    between atoms: C_20  and  C_21
REMARK    6  A    between atoms: C_29  and  O_30
REMARK                            x       y       z     vdW  Elec       q    Type
REMARK                         _______ _______ _______ _____ _____    ______ ____
ROOT
ATOM      1  C   UNL     1      37.543  -2.133  14.024  0.00  0.00    +0.000 C 
ATOM      2  N   UNL     1      38.923  -1.380  13.957  0.00  0.00    +0.000 NA
ATOM      3  C   UNL     1      38.779  -0.697  12.665  0.00  0.00    +0.000 C 
ATOM      4  C   UNL     1      37.433  -0.015  12.538  0.00  0.00    +0.000 C 
ATOM      5  C   UNL     1      36.763   0.119  13.858  0.00  0.00    +0.000 A 
ATOM      6  C   UNL     1      36.764  -0.946  14.723  0.00  0.00    +0.000 A 
ATOM      7  N   UNL     1      36.148  -0.672  15.816  0.00  0.00    +0.000 NA
ATOM      8  C   UNL     1      35.690   0.594  15.763  0.00  0.00    +0.000 A 
ATOM      9  C   UNL     1      34.982   1.452  16.577  0.00  0.00    +0.000 A 
ATOM     10  C   UNL     1      34.680   2.745  16.168  0.00  0.00    +0.000 A 
ATOM     11  C   UNL     1      35.078   3.217  14.934  0.00  0.00    +0.000 A 
ATOM     12  C   UNL     1      35.788   2.377  14.102  0.00  0.00    +0.000 A 
ATOM     13  C   UNL     1      36.072   1.101  14.536  0.00  0.00    +0.000 A 
ENDROOT
BRANCH   1  18
ATOM     14  C   UNL     1      37.209  -4.951  16.533  0.00  0.00    +0.000 A 
ATOM     15  C   UNL     1      38.225  -4.622  17.407  0.00  0.00    +0.000 A 
ATOM     16  C   UNL     1      39.051  -3.528  17.266  0.00  0.00    +0.000 A 
ATOM     17  C   UNL     1      38.849  -2.705  16.176  0.00  0.00    +0.000 A 
ATOM     18  C   UNL     1      37.893  -2.980  15.317  0.00  0.00    +0.000 A 
ATOM     19  C   UNL     1      37.061  -4.069  15.448  0.00  0.00    +0.000 A 
BRANCH  14  21
ATOM     20  C   UNL     1      36.960  -7.185  17.323  0.00  0.00    +0.000 C 
ATOM     21  O   UNL     1      36.385  -6.057  16.690  0.00  0.00    +0.000 OA
ENDBRANCH  14  21
BRANCH  19  22
ATOM     22  O   UNL     1      36.057  -4.368  14.556  0.00  0.00    +0.000 OA
ATOM     23  C   UNL     1      34.700  -4.049  14.758  0.00  0.00    +0.000 C 
ENDBRANCH  19  22
ENDBRANCH   1  18
BRANCH  11  24
ATOM     24  O   UNL     1      34.791   4.503  14.501  0.00  0.00    +0.000 OA
BRANCH  24  25
ATOM     25  C   UNL     1      35.731   5.402  14.016  0.00  0.00    +0.000 C 
BRANCH  25  26
ATOM     26  C   UNL     1      35.325   5.983  12.700  0.00  0.00    +0.000 A 
ATOM     27  C   UNL     1      34.193   6.784  12.638  0.00  0.00    +0.000 A 
ATOM     28  C   UNL     1      33.771   7.342  11.449  0.00  0.00    +0.000 A 
ATOM     29  C   UNL     1      34.457   7.128  10.271  0.00  0.00    +0.000 A 
ATOM     30  C   UNL     1      35.580   6.330  10.347  0.00  0.00    +0.000 A 
ATOM     31  C   UNL     1      36.006   5.770  11.532  0.00  0.00    +0.000 A 
ENDBRANCH  25  26
ENDBRANCH  24  25
ENDBRANCH  11  24
TORSDOF 6
ENDMDL
MODEL 3
REMARK VINA RESULT:      -7.6     20.539     22.783
REMARK  Name = 
REMARK  6 active torsions:
REMARK  status: ('A' for Active; 'I' for Inactive)
REMARK    1  A    between atoms: O_2  and  C_3
REMARK    2  A    between atoms: C_7  and  C_8
REMARK    3  A    between atoms: C_18  and  O_19
REMARK    4  A    between atoms: O_19  and  C_20
REMARK    5  A    between atoms: C_20  and  C_21
REMARK    6  A    between atoms: C_29  and  O_30
REMARK                            x       y       z     vdW  Elec       q    Type
REMARK                         _______ _______ _______ _____ _____    ______ ____
ROOT
ATOM      1  C   UNL     1      27.708  16.522  35.166  0.00  0.00    +0.000 C 
ATOM      2  N   UNL     1      28.604  15.270  34.847  0.00  0.00    +0.000 NA
ATOM      3  C   UNL     1      29.792  15.594  35.648  0.00  0.00    +0.000 C 
ATOM      4  C   UNL     1      29.420  16.039  37.047  0.00  0.00    +0.000 C 
ATOM      5  C   UNL     1      28.017  15.678  37.380  0.00  0.00    +0.000 A 
ATOM      6  C   UNL     1      27.031  15.893  36.451  0.00  0.00    +0.000 A 
ATOM      7  N   UNL     1      25.879  15.530  36.887  0.00  0.00    +0.000 NA
ATOM      8  C   UNL     1      26.010  15.047  38.138  0.00  0.00    +0.000 A 
ATOM      9  C   UNL     1      25.190  14.520  39.113  0.00  0.00    +0.000 A 
ATOM     10  C   UNL     1      25.702  14.109  40.337  0.00  0.00    +0.000 A 
ATOM     11  C   UNL     1      27.048  14.212  40.621  0.00  0.00    +0.000 A 
ATOM     12  C   UNL     1      27.888  14.736  39.661  0.00  0.00    +0.000 A 
ATOM     13  C   UNL     1      27.350  15.134  38.457  0.00  0.00    +0.000 A 
ENDROOT
BRANCH   1  18
ATOM     14  C   UNL     1      24.685  17.152  32.973  0.00  0.00    +0.000 A 
ATOM     15  C   UNL     1      24.560  15.917  32.368  0.00  0.00    +0.000 A 
ATOM     16  C   UNL     1      25.392  14.846  32.606  0.00  0.00    +0.000 A 
ATOM     17  C   UNL     1      26.421  15.017  33.510  0.00  0.00    +0.000 A 
ATOM     18  C   UNL     1      26.578  16.176  34.110  0.00  0.00    +0.000 A 
ATOM     19  C   UNL     1      25.753  17.254  33.881  0.00  0.00    +0.000 A 
BRANCH  14  21
ATOM     20  C   UNL     1      24.111  18.984  31.561  0.00  0.00    +0.000 C 
ATOM     21  O   UNL     1      23.837  18.222  32.722  0.00  0.00    +0.000 OA
ENDBRANCH  14  21
BRANCH  19  22
ATOM     22  O   UNL     1      25.907  18.472  34.502  0.00  0.00    +0.000 OA
ATOM     23  C   UNL     1      25.072  18.943  35.536  0.00  0.00    +0.000 C 
ENDBRANCH  19  22
ENDBRANCH   1  18
BRANCH  11  24
ATOM     24  O   UNL     1      27.587  13.808  41.834  0.00  0.00    +0.000 OA
BRANCH  24  25
ATOM     25  C   UNL     1      27.511  12.519  42.343  0.00  0.00    +0.000 C 
BRANCH  25  26
ATOM     26  C   UNL     1      28.515  11.607  41.715  0.00  0.00    +0.000 A 
ATOM     27  C   UNL     1      29.860  11.946  41.771  0.00  0.00    +0.000 A 
ATOM     28  C   UNL     1      30.828  11.144  41.205  0.00  0.00    +0.000 A 
ATOM     29  C   UNL     1      30.500   9.969  40.559  0.00  0.00    +0.000 A 
ATOM     30  C   UNL     1      29.160   9.645  40.511  0.00  0.00    +0.000 A 
ATOM     31  C   UNL     1      28.188  10.443  41.075  0.00  0.00    +0.000 A 
ENDBRANCH  25  26
ENDBRANCH  24  25
ENDBRANCH  11  24
TORSDOF 6
ENDMDL
MODEL 4
REMARK VINA RESULT:      -7.4     20.491     22.421
REMARK  Name = 
REMARK  6 active torsions:
REMARK  status: ('A' for Active; 'I' for Inactive)
REMARK    1  A    between atoms: O_2  and  C_3
REMARK    2  A    between atoms: C_7  and  C_8
REMARK    3  A    between atoms: C_18  and  O_19
REMARK    4  A    between atoms: O_19  and  C_20
REMARK    5  A    between atoms: C_20  and  C_21
REMARK    6  A    between atoms: C_29  and  O_30
REMARK                            x       y       z     vdW  Elec       q    Type
REMARK                         _______ _______ _______ _____ _____    ______ ____
ROOT
ATOM      1  C   UNL     1      27.551  12.498  41.561  0.00  0.00    +0.000 C 
ATOM      2  N   UNL     1      28.167  13.692  42.378  0.00  0.00    +0.000 NA
ATOM      3  C   UNL     1      29.354  13.976  41.562  0.00  0.00    +0.000 C 
ATOM      4  C   UNL     1      29.018  14.040  40.086  0.00  0.00    +0.000 C 
ATOM      5  C   UNL     1      27.554  14.182  39.866  0.00  0.00    +0.000 A 
ATOM      6  C   UNL     1      26.688  13.410  40.598  0.00  0.00    +0.000 A 
ATOM      7  N   UNL     1      25.464  13.649  40.293  0.00  0.00    +0.000 NA
ATOM      8  C   UNL     1      25.421  14.597  39.336  0.00  0.00    +0.000 A 
ATOM      9  C   UNL     1      24.457  15.265  38.613  0.00  0.00    +0.000 A 
ATOM     10  C   UNL     1      24.804  16.223  37.667  0.00  0.00    +0.000 A 
ATOM     11  C   UNL     1      26.123  16.538  37.419  0.00  0.00    +0.000 A 
ATOM     12  C   UNL     1      27.106  15.883  38.130  0.00  0.00    +0.000 A 
ATOM     13  C   UNL     1      26.731  14.939  39.061  0.00  0.00    +0.000 A 
ENDROOT
BRANCH   1  18
ATOM     14  C   UNL     1      24.813  10.441  43.178  0.00  0.00    +0.000 A 
ATOM     15  C   UNL     1      24.485  11.261  44.240  0.00  0.00    +0.000 A 
ATOM     16  C   UNL     1      25.086  12.472  44.502  0.00  0.00    +0.000 A 
ATOM     17  C   UNL     1      26.084  12.895  43.647  0.00  0.00    +0.000 A 
ATOM     18  C   UNL     1      26.429  12.147  42.623  0.00  0.00    +0.000 A 
ATOM     19  C   UNL     1      25.835  10.935  42.351  0.00  0.00    +0.000 A 
BRANCH  14  21
ATOM     20  C   UNL     1      23.482   8.645  44.004  0.00  0.00    +0.000 C 
ATOM     21  O   UNL     1      24.196   9.222  42.927  0.00  0.00    +0.000 OA
ENDBRANCH  14  21
BRANCH  19  22
ATOM     22  O   UNL     1      26.188  10.142  41.283  0.00  0.00    +0.000 OA
ATOM     23  C   UNL     1      26.974   8.977  41.389  0.00  0.00    +0.000 C 
ENDBRANCH  19  22
ENDBRANCH   1  18
BRANCH  11  24
ATOM     24  O   UNL     1      26.498  17.490  36.481  0.00  0.00    +0.000 OA
BRANCH  24  25
ATOM     25  C   UNL     1      27.199  17.217  35.315  0.00  0.00    +0.000 C 
BRANCH  25  26
ATOM     26  C   UNL     1      26.390  16.414  34.348  0.00  0.00    +0.000 A 
ATOM     27  C   UNL     1      26.588  15.042  34.281  0.00  0.00    +0.000 A 
ATOM     28  C   UNL     1      25.871  14.254  33.405  0.00  0.00    +0.000 A 
ATOM     29  C   UNL     1      24.926  14.797  32.558  0.00  0.00    +0.000 A 
ATOM     30  C   UNL     1      24.740  16.162  32.635  0.00  0.00    +0.000 A 
ATOM     31  C   UNL     1      25.453  16.954  33.509  0.00  0.00    +0.000 A 
ENDBRANCH  25  26
ENDBRANCH  24  25
ENDBRANCH  11  24
TORSDOF 6
ENDMDL
MODEL 5
REMARK VINA RESULT:      -7.4     22.977     25.013
REMARK  Name = 
REMARK  6 active torsions:
REMARK  status: ('A' for Active; 'I' for Inactive)
REMARK    1  A    between atoms: O_2  and  C_3
REMARK    2  A    between atoms: C_7  and  C_8
REMARK    3  A    between atoms: C_18  and  O_19
REMARK    4  A    between atoms: O_19  and  C_20
REMARK    5  A    between atoms: C_20  and  C_21
REMARK    6  A    between atoms: C_29  and  O_30
REMARK                            x       y       z     vdW  Elec       q    Type
REMARK                         _______ _______ _______ _____ _____    ______ ____
ROOT
ATOM      1  C   UNL     1      37.768  -1.493  16.175  0.00  0.00    +0.000 C 
ATOM      2  N   UNL     1      38.833  -2.186  15.248  0.00  0.00    +0.000 NA
ATOM      3  C   UNL     1      39.384  -3.173  16.184  0.00  0.00    +0.000 C 
ATOM      4  C   UNL     1      38.291  -3.915  16.925  0.00  0.00    +0.000 C 
ATOM      5  C   UNL     1      36.970  -3.743  16.264  0.00  0.00    +0.000 A 
ATOM      6  C   UNL     1      36.596  -2.497  15.828  0.00  0.00    +0.000 A 
ATOM      7  N   UNL     1      35.434  -2.515  15.280  0.00  0.00    +0.000 NA
ATOM      8  C   UNL     1      34.947  -3.771  15.311  0.00  0.00    +0.000 A 
ATOM      9  C   UNL     1      33.804  -4.426  14.905  0.00  0.00    +0.000 A 
ATOM     10  C   UNL     1      33.647  -5.791  15.113  0.00  0.00    +0.000 A 
ATOM     11  C   UNL     1      34.626  -6.538  15.733  0.00  0.00    +0.000 A 
ATOM     12  C   UNL     1      35.778  -5.905  16.148  0.00  0.00    +0.000 A 
ATOM     13  C   UNL     1      35.906  -4.551  15.927  0.00  0.00    +0.000 A 
ENDROOT
BRANCH   1  18
ATOM     14  C   UNL     1      36.443   1.876  15.059  0.00  0.00    +0.000 A 
ATOM     15  C   UNL     1      36.666   1.789  13.699  0.00  0.00    +0.000 A 
ATOM     16  C   UNL     1      37.229   0.699  13.071  0.00  0.00    +0.000 A 
ATOM     17  C   UNL     1      37.595  -0.378  13.853  0.00  0.00    +0.000 A 
ATOM     18  C   UNL     1      37.401  -0.339  15.153  0.00  0.00    +0.000 A 
ATOM     19  C   UNL     1      36.839   0.744  15.792  0.00  0.00    +0.000 A 
BRANCH  14  21
ATOM     20  C   UNL     1      34.489   3.179  15.461  0.00  0.00    +0.000 C 
ATOM     21  O   UNL     1      35.874   2.981  15.677  0.00  0.00    +0.000 OA
ENDBRANCH  14  21
BRANCH  19  22
ATOM     22  O   UNL     1      36.631   0.797  17.151  0.00  0.00    +0.000 OA
ATOM     23  C   UNL     1      35.417   0.450  17.778  0.00  0.00    +0.000 C 
ENDBRANCH  19  22
ENDBRANCH   1  18
BRANCH  11  24
ATOM     24  O   UNL     1      34.495  -7.902  15.953  0.00  0.00    +0.000 OA
BRANCH  24  25
ATOM     25  C   UNL     1      33.464  -8.688  15.456  0.00  0.00    +0.000 C 
BRANCH  25  26
ATOM     26  C   UNL     1      33.779  -9.235  14.101  0.00  0.00    +0.000 A 
ATOM     27  C   UNL     1      32.949  -8.915  13.036  0.00  0.00    +0.000 A 
ATOM     28  C   UNL     1      33.190  -9.395  11.766  0.00  0.00    +0.000 A 
ATOM     29  C   UNL     1      34.269 -10.214  11.501  0.00  0.00    +0.000 A 
ATOM     30  C   UNL     1      35.085 -10.524  12.568  0.00  0.00    +0.000 A 
ATOM     31  C   UNL     1      34.849 -10.047  13.840  0.00  0.00    +0.000 A 
ENDBRANCH  25  26
ENDBRANCH  24  25
ENDBRANCH  11  24
TORSDOF 6
ENDMDL
MODEL 6
REMARK VINA RESULT:      -7.4     23.224     29.029
REMARK  Name = 
REMARK  6 active torsions:
REMARK  status: ('A' for Active; 'I' for Inactive)
REMARK    1  A    between atoms: O_2  and  C_3
REMARK    2  A    between atoms: C_7  and  C_8
REMARK    3  A    between atoms: C_18  and  O_19
REMARK    4  A    between atoms: O_19  and  C_20
REMARK    5  A    between atoms: C_20  and  C_21
REMARK    6  A    between atoms: C_29  and  O_30
REMARK                            x       y       z     vdW  Elec       q    Type
REMARK                         _______ _______ _______ _____ _____    ______ ____
ROOT
ATOM      1  C   UNL     1      41.478  -1.830  12.834  0.00  0.00    +0.000 C 
ATOM      2  N   UNL     1      40.896  -0.369  12.868  0.00  0.00    +0.000 NA
ATOM      3  C   UNL     1      39.697  -0.551  12.039  0.00  0.00    +0.000 C 
ATOM      4  C   UNL     1      38.919  -1.786  12.443  0.00  0.00    +0.000 C 
ATOM      5  C   UNL     1      39.332  -2.277  13.785  0.00  0.00    +0.000 A 
ATOM      6  C   UNL     1      40.667  -2.339  14.094  0.00  0.00    +0.000 A 
ATOM      7  N   UNL     1      40.859  -2.781  15.284  0.00  0.00    +0.000 NA
ATOM      8  C   UNL     1      39.669  -3.047  15.857  0.00  0.00    +0.000 A 
ATOM      9  C   UNL     1      39.209  -3.523  17.066  0.00  0.00    +0.000 A 
ATOM     10  C   UNL     1      37.849  -3.671  17.309  0.00  0.00    +0.000 A 
ATOM     11  C   UNL     1      36.911  -3.347  16.351  0.00  0.00    +0.000 A 
ATOM     12  C   UNL     1      37.347  -2.869  15.133  0.00  0.00    +0.000 A 
ATOM     13  C   UNL     1      38.702  -2.733  14.922  0.00  0.00    +0.000 A 
ENDROOT
BRANCH   1  18
ATOM     14  C   UNL     1      45.066  -2.322  13.942  0.00  0.00    +0.000 A 
ATOM     15  C   UNL     1      45.262  -1.161  14.663  0.00  0.00    +0.000 A 
ATOM     16  C   UNL     1      44.307  -0.184  14.839  0.00  0.00    +0.000 A 
ATOM     17  C   UNL     1      43.071  -0.378  14.255  0.00  0.00    +0.000 A 
ATOM     18  C   UNL     1      42.840  -1.469  13.560  0.00  0.00    +0.000 A 
ATOM     19  C   UNL     1      43.786  -2.453  13.377  0.00  0.00    +0.000 A 
BRANCH  14  21
ATOM     20  C   UNL     1      46.491  -3.945  14.950  0.00  0.00    +0.000 C 
ATOM     21  O   UNL     1      46.040  -3.298  13.774  0.00  0.00    +0.000 OA
ENDBRANCH  14  21
BRANCH  19  22
ATOM     22  O   UNL     1      43.557  -3.599  12.651  0.00  0.00    +0.000 OA
ATOM     23  C   UNL     1      43.933  -3.769  11.303  0.00  0.00    +0.000 C 
ENDBRANCH  19  22
ENDBRANCH   1  18
BRANCH  11  24
ATOM     24  O   UNL     1      35.547  -3.484  16.566  0.00  0.00    +0.000 OA
BRANCH  24  25
ATOM     25  C   UNL     1      34.619  -2.460  16.436  0.00  0.00    +0.000 C 
BRANCH  25  26
ATOM     26  C   UNL     1      35.100  -1.185  17.052  0.00  0.00    +0.000 A 
ATOM     27  C   UNL     1      35.271  -0.069  16.244  0.00  0.00    +0.000 A 
ATOM     28  C   UNL     1      35.716   1.130  16.759  0.00  0.00    +0.000 A 
ATOM     29  C   UNL     1      36.010   1.271  18.100  0.00  0.00    +0.000 A 
ATOM     30  C   UNL     1      35.836   0.154  18.891  0.00  0.00    +0.000 A 
ATOM     31  C   UNL     1      35.391  -1.047  18.382  0.00  0.00    +0.000 A 
ENDBRANCH  25  26
ENDBRANCH  24  25
ENDBRANCH  11  24
TORSDOF 6
ENDMDL
MODEL 7
REMARK VINA RESULT:      -7.3     23.170     26.409
REMARK  Name = 
REMARK  6 active torsions:
REMARK  status: ('A' for Active; 'I' for Inactive)
REMARK    1  A    between atoms: O_2  and  C_3
REMARK    2  A    between atoms: C_7  and  C_8
REMARK    3  A    between atoms: C_18  and  O_19
REMARK    4  A    between atoms: O_19  and  C_20
REMARK    5  A    between atoms: C_20  and  C_21
REMARK    6  A    between atoms: C_29  and  O_30
REMARK                            x       y       z     vdW  Elec       q    Type
REMARK                         _______ _______ _______ _____ _____    ______ ____
ROOT
ATOM      1  C   UNL     1      36.544   0.197  16.608  0.00  0.00    +0.000 C 
ATOM      2  N   UNL     1      35.301   0.524  15.701  0.00  0.00    +0.000 NA
ATOM      3  C   UNL     1      34.765   1.691  16.413  0.00  0.00    +0.000 C 
ATOM      4  C   UNL     1      35.853   2.688  16.756  0.00  0.00    +0.000 C 
ATOM      5  C   UNL     1      37.091   2.434  15.972  0.00  0.00    +0.000 A 
ATOM      6  C   UNL     1      37.544   1.147  15.832  0.00  0.00    +0.000 A 
ATOM      7  N   UNL     1      38.619   1.095  15.131  0.00  0.00    +0.000 NA
ATOM      8  C   UNL     1      38.963   2.342  14.752  0.00  0.00    +0.000 A 
ATOM      9  C   UNL     1      39.966   2.938  14.018  0.00  0.00    +0.000 A 
ATOM     10  C   UNL     1      39.996   4.314  13.829  0.00  0.00    +0.000 A 
ATOM     11  C   UNL     1      39.025   5.132  14.368  0.00  0.00    +0.000 A 
ATOM     12  C   UNL     1      38.011   4.558  15.106  0.00  0.00    +0.000 A 
ATOM     13  C   UNL     1      38.008   3.191  15.275  0.00  0.00    +0.000 A 
ENDROOT
BRANCH   1  18
ATOM     14  C   UNL     1      38.185  -3.192  16.195  0.00  0.00    +0.000 A 
ATOM     15  C   UNL     1      37.708  -3.545  14.949  0.00  0.00    +0.000 A 
ATOM     16  C   UNL     1      36.868  -2.762  14.186  0.00  0.00    +0.000 A 
ATOM     17  C   UNL     1      36.476  -1.544  14.703  0.00  0.00    +0.000 A 
ATOM     18  C   UNL     1      36.906  -1.167  15.887  0.00  0.00    +0.000 A 
ATOM     19  C   UNL     1      37.746  -1.939  16.657  0.00  0.00    +0.000 A 
BRANCH  14  21
ATOM     20  C   UNL     1      38.434  -5.091  17.613  0.00  0.00    +0.000 C 
ATOM     21  O   UNL     1      39.032  -3.991  16.951  0.00  0.00    +0.000 OA
ENDBRANCH  14  21
BRANCH  19  22
ATOM     22  O   UNL     1      38.203  -1.556  17.898  0.00  0.00    +0.000 OA
ATOM     23  C   UNL     1      37.550  -1.862  19.109  0.00  0.00    +0.000 C 
ENDBRANCH  19  22
ENDBRANCH   1  18
BRANCH  11  24
ATOM     24  O   UNL     1      39.030   6.509  14.194  0.00  0.00    +0.000 OA
BRANCH  24  25
ATOM     25  C   UNL     1      39.720   7.405  15.000  0.00  0.00    +0.000 C 
BRANCH  25  26
ATOM     26  C   UNL     1      39.625   7.045  16.448  0.00  0.00    +0.000 A 
ATOM     27  C   UNL     1      38.493   7.416  17.161  0.00  0.00    +0.000 A 
ATOM     28  C   UNL     1      38.355   7.114  18.499  0.00  0.00    +0.000 A 
ATOM     29  C   UNL     1      39.337   6.429  19.186  0.00  0.00    +0.000 A 
ATOM     30  C   UNL     1      40.456   6.067  18.465  0.00  0.00    +0.000 A 
ATOM     31  C   UNL     1      40.599   6.366  17.127  0.00  0.00    +0.000 A 
ENDBRANCH  25  26
ENDBRANCH  24  25
ENDBRANCH  11  24
TORSDOF 6
ENDMDL
MODEL 8
REMARK VINA RESULT:      -7.2     23.398     25.968
REMARK  Name = 
REMARK  6 active torsions:
REMARK  status: ('A' for Active; 'I' for Inactive)
REMARK    1  A    between atoms: O_2  and  C_3
REMARK    2  A    between atoms: C_7  and  C_8
REMARK    3  A    between atoms: C_18  and  O_19
REMARK    4  A    between atoms: O_19  and  C_20
REMARK    5  A    between atoms: C_20  and  C_21
REMARK    6  A    between atoms: C_29  and  O_30
REMARK                            x       y       z     vdW  Elec       q    Type
REMARK                         _______ _______ _______ _____ _____    ______ ____
ROOT
ATOM      1  C   UNL     1      37.593  -2.318  13.954  0.00  0.00    +0.000 C 
ATOM      2  N   UNL     1      39.005  -1.633  13.855  0.00  0.00    +0.000 NA
ATOM      3  C   UNL     1      38.891  -1.001  12.535  0.00  0.00    +0.000 C 
ATOM      4  C   UNL     1      37.576  -0.265  12.377  0.00  0.00    +0.000 C 
ATOM      5  C   UNL     1      36.914  -0.043  13.690  0.00  0.00    +0.000 A 
ATOM      6  C   UNL     1      36.869  -1.068  14.600  0.00  0.00    +0.000 A 
ATOM      7  N   UNL     1      36.267  -0.719  15.679  0.00  0.00    +0.000 NA
ATOM      8  C   UNL     1      35.866   0.563  15.571  0.00  0.00    +0.000 A 
ATOM      9  C   UNL     1      35.199   1.486  16.346  0.00  0.00    +0.000 A 
ATOM     10  C   UNL     1      34.955   2.773  15.881  0.00  0.00    +0.000 A 
ATOM     11  C   UNL     1      35.372   3.171  14.628  0.00  0.00    +0.000 A 
ATOM     12  C   UNL     1      36.042   2.265  13.834  0.00  0.00    +0.000 A 
ATOM     13  C   UNL     1      36.269   0.998  14.323  0.00  0.00    +0.000 A 
ENDROOT
BRANCH   1  18
ATOM     14  C   UNL     1      37.164  -5.034  16.560  0.00  0.00    +0.000 A 
ATOM     15  C   UNL     1      38.172  -4.692  17.439  0.00  0.00    +0.000 A 
ATOM     16  C   UNL     1      39.022  -3.620  17.270  0.00  0.00    +0.000 A 
ATOM     17  C   UNL     1      38.853  -2.835  16.147  0.00  0.00    +0.000 A 
ATOM     18  C   UNL     1      37.905  -3.123  15.283  0.00  0.00    +0.000 A 
ATOM     19  C   UNL     1      37.051  -4.191  15.441  0.00  0.00    +0.000 A 
BRANCH  14  21
ATOM     20  C   UNL     1      36.880  -7.260  17.362  0.00  0.00    +0.000 C 
ATOM     21  O   UNL     1      36.315  -6.117  16.745  0.00  0.00    +0.000 OA
ENDBRANCH  14  21
BRANCH  19  22
ATOM     22  O   UNL     1      36.055  -4.503  14.544  0.00  0.00    +0.000 OA
ATOM     23  C   UNL     1      34.705  -4.127  14.700  0.00  0.00    +0.000 C 
ENDBRANCH  19  22
ENDBRANCH   1  18
BRANCH  11  24
ATOM     24  O   UNL     1      35.143   4.449  14.138  0.00  0.00    +0.000 OA
BRANCH  24  25
ATOM     25  C   UNL     1      35.808   5.591  14.565  0.00  0.00    +0.000 C 
BRANCH  25  26
ATOM     26  C   UNL     1      37.290   5.395  14.605  0.00  0.00    +0.000 A 
ATOM     27  C   UNL     1      37.915   5.227  15.832  0.00  0.00    +0.000 A 
ATOM     28  C   UNL     1      39.279   5.046  15.927  0.00  0.00    +0.000 A 
ATOM     29  C   UNL     1      40.080   5.024  14.803  0.00  0.00    +0.000 A 
ATOM     30  C   UNL     1      39.446   5.193  13.590  0.00  0.00    +0.000 A 
ATOM     31  C   UNL     1      38.083   5.373  13.489  0.00  0.00    +0.000 A 
ENDBRANCH  25  26
ENDBRANCH  24  25
ENDBRANCH  11  24
TORSDOF 6
ENDMDL
MODEL 9
REMARK VINA RESULT:      -7.1     23.850     26.453
REMARK  Name = 
REMARK  6 active torsions:
REMARK  status: ('A' for Active; 'I' for Inactive)
REMARK    1  A    between atoms: O_2  and  C_3
REMARK    2  A    between atoms: C_7  and  C_8
REMARK    3  A    between atoms: C_18  and  O_19
REMARK    4  A    between atoms: O_19  and  C_20
REMARK    5  A    between atoms: C_20  and  C_21
REMARK    6  A    between atoms: C_29  and  O_30
REMARK                            x       y       z     vdW  Elec       q    Type
REMARK                         _______ _______ _______ _____ _____    ______ ____
ROOT
ATOM      1  C   UNL     1      37.006   4.045  15.562  0.00  0.00    +0.000 C 
ATOM      2  N   UNL     1      36.269   3.320  16.747  0.00  0.00    +0.000 NA
ATOM      3  C   UNL     1      35.137   2.730  16.020  0.00  0.00    +0.000 C 
ATOM      4  C   UNL     1      35.584   2.041  14.748  0.00  0.00    +0.000 C 
ATOM      5  C   UNL     1      37.052   1.801  14.745  0.00  0.00    +0.000 A 
ATOM      6  C   UNL     1      37.896   2.800  15.159  0.00  0.00    +0.000 A 
ATOM      7  N   UNL     1      39.126   2.438  15.099  0.00  0.00    +0.000 NA
ATOM      8  C   UNL     1      39.196   1.173  14.640  0.00  0.00    +0.000 A 
ATOM      9  C   UNL     1      40.179   0.248  14.359  0.00  0.00    +0.000 A 
ATOM     10  C   UNL     1      39.859  -1.016  13.879  0.00  0.00    +0.000 A 
ATOM     11  C   UNL     1      38.549  -1.391  13.666  0.00  0.00    +0.000 A 
ATOM     12  C   UNL     1      37.548  -0.482  13.940  0.00  0.00    +0.000 A 
ATOM     13  C   UNL     1      37.896   0.763  14.415  0.00  0.00    +0.000 A 
ENDROOT
BRANCH   1  18
ATOM     14  C   UNL     1      39.648   6.618  16.430  0.00  0.00    +0.000 A 
ATOM     15  C   UNL     1      39.897   6.279  17.744  0.00  0.00    +0.000 A 
ATOM     16  C   UNL     1      39.270   5.253  18.417  0.00  0.00    +0.000 A 
ATOM     17  C   UNL     1      38.328   4.514  17.730  0.00  0.00    +0.000 A 
ATOM     18  C   UNL     1      38.058   4.801  16.476  0.00  0.00    +0.000 A 
ATOM     19  C   UNL     1      38.679   5.823  15.793  0.00  0.00    +0.000 A 
BRANCH  14  21
ATOM     20  C   UNL     1      40.051   8.960  16.259  0.00  0.00    +0.000 C 
ATOM     21  O   UNL     1      40.290   7.655  15.766  0.00  0.00    +0.000 OA
ENDBRANCH  14  21
BRANCH  19  22
ATOM     22  O   UNL     1      38.405   6.134  14.481  0.00  0.00    +0.000 OA
ATOM     23  C   UNL     1      39.241   5.793  13.398  0.00  0.00    +0.000 C 
ENDBRANCH  19  22
ENDBRANCH   1  18
BRANCH  11  24
ATOM     24  O   UNL     1      38.202  -2.646  13.188  0.00  0.00    +0.000 OA
BRANCH  24  25
ATOM     25  C   UNL     1      37.486  -3.595  13.905  0.00  0.00    +0.000 C 
BRANCH  25  26
ATOM     26  C   UNL     1      37.612  -3.395  15.382  0.00  0.00    +0.000 A 
ATOM     27  C   UNL     1      36.507  -2.961  16.100  0.00  0.00    +0.000 A 
ATOM     28  C   UNL     1      36.570  -2.757  17.462  0.00  0.00    +0.000 A 
ATOM     29  C   UNL     1      37.734  -2.977  18.169  0.00  0.00    +0.000 A 
ATOM     30  C   UNL     1      38.825  -3.408  17.443  0.00  0.00    +0.000 A 
ATOM     31  C   UNL     1      38.768  -3.614  16.081  0.00  0.00    +0.000 A 
ENDBRANCH  25  26
ENDBRANCH  24  25
ENDBRANCH  11  24
TORSDOF 6
ENDMDL
MODEL 10
REMARK VINA RESULT:      -7.1     24.049     29.005
REMARK  Name = 
REMARK  6 active torsions:
REMARK  status: ('A' for Active; 'I' for Inactive)
REMARK    1  A    between atoms: O_2  and  C_3
REMARK    2  A    between atoms: C_7  and  C_8
REMARK    3  A    between atoms: C_18  and  O_19
REMARK    4  A    between atoms: O_19  and  C_20
REMARK    5  A    between atoms: C_20  and  C_21
REMARK    6  A    between atoms: C_29  and  O_30
REMARK                            x       y       z     vdW  Elec       q    Type
REMARK                         _______ _______ _______ _____ _____    ______ ____
ROOT
ATOM      1  C   UNL     1      44.379   6.745  19.966  0.00  0.00    +0.000 C 
ATOM      2  N   UNL     1      44.509   8.185  19.347  0.00  0.00    +0.000 NA
ATOM      3  C   UNL     1      44.780   7.838  17.946  0.00  0.00    +0.000 C 
ATOM      4  C   UNL     1      43.828   6.776  17.436  0.00  0.00    +0.000 C 
ATOM      5  C   UNL     1      42.645   6.632  18.326  0.00  0.00    +0.000 A 
ATOM      6  C   UNL     1      42.828   6.605  19.685  0.00  0.00    +0.000 A 
ATOM      7  N   UNL     1      41.715   6.477  20.312  0.00  0.00    +0.000 NA
ATOM      8  C   UNL     1      40.707   6.408  19.420  0.00  0.00    +0.000 A 
ATOM      9  C   UNL     1      39.336   6.275  19.447  0.00  0.00    +0.000 A 
ATOM     10  C   UNL     1      38.594   6.242  18.272  0.00  0.00    +0.000 A 
ATOM     11  C   UNL     1      39.203   6.342  17.038  0.00  0.00    +0.000 A 
ATOM     12  C   UNL     1      40.575   6.476  16.986  0.00  0.00    +0.000 A 
ATOM     13  C   UNL     1      41.282   6.506  18.168  0.00  0.00    +0.000 A 
ENDROOT
BRANCH   1  18
ATOM     14  C   UNL     1      44.343   6.395  23.737  0.00  0.00    +0.000 A 
ATOM     15  C   UNL     1      44.209   7.719  24.105  0.00  0.00    +0.000 A 
ATOM     16  C   UNL     1      44.123   8.769  23.217  0.00  0.00    +0.000 A 
ATOM     17  C   UNL     1      44.177   8.478  21.868  0.00  0.00    +0.000 A 
ATOM     18  C   UNL     1      44.304   7.231  21.473  0.00  0.00    +0.000 A 
ATOM     19  C   UNL     1      44.389   6.174  22.350  0.00  0.00    +0.000 A 
BRANCH  14  21
ATOM     20  C   UNL     1      43.809   5.555  25.902  0.00  0.00    +0.000 C 
ATOM     21  O   UNL     1      44.427   5.348  24.646  0.00  0.00    +0.000 OA
ENDBRANCH  14  21
BRANCH  19  22
ATOM     22  O   UNL     1      44.523   4.865  21.949  0.00  0.00    +0.000 OA
ATOM     23  C   UNL     1      45.756   4.186  21.865  0.00  0.00    +0.000 C 
ENDBRANCH  19  22
ENDBRANCH   1  18
BRANCH  11  24
ATOM     24  O   UNL     1      38.488   6.313  15.850  0.00  0.00    +0.000 OA
BRANCH  24  25
ATOM     25  C   UNL     1      38.394   5.212  15.010  0.00  0.00    +0.000 C 
BRANCH  25  26
ATOM     26  C   UNL     1      37.167   4.402  15.281  0.00  0.00    +0.000 A 
ATOM     27  C   UNL     1      37.178   3.492  16.328  0.00  0.00    +0.000 A 
ATOM     28  C   UNL     1      36.075   2.717  16.619  0.00  0.00    +0.000 A 
ATOM     29  C   UNL     1      34.913   2.815  15.882  0.00  0.00    +0.000 A 
ATOM     30  C   UNL     1      34.916   3.724  14.843  0.00  0.00    +0.000 A 
ATOM     31  C   UNL     1      36.015   4.501  14.548  0.00  0.00    +0.000 A 
ENDBRANCH  25  26
ENDBRANCH  24  25
ENDBRANCH  11  24
TORSDOF 6
ENDMDL
