MODEL 1
REMARK VINA RESULT:      -8.8      0.000      0.000
REMARK  Name = 
REMARK  6 active torsions:
REMARK  status: ('A' for Active; 'I' for Inactive)
REMARK    1  A    between atoms: O_2  and  C_3
REMARK    2  A    between atoms: C_6  and  C_7
REMARK    3  A    between atoms: C_7  and  C_8
REMARK    4  A    between atoms: C_8  and  N_9
REMARK    5  A    between atoms: C_10  and  C_12
REMARK    6  A    between atoms: C_15  and  C_16
REMARK                            x       y       z     vdW  Elec       q    Type
REMARK                         _______ _______ _______ _____ _____    ______ ____
ROOT
ATOM      1  C   UNL     1      38.590   0.758  14.713  0.00  0.00    +0.000 A 
ATOM      2  C   UNL     1      37.397   0.185  15.102  0.00  0.00    +0.000 A 
ATOM      3  C   UNL     1      36.174   1.035  15.212  0.00  0.00    +0.000 C 
ATOM      4  C   UNL     1      37.313  -1.167  15.391  0.00  0.00    +0.000 A 
ATOM      5  N   UNL     1      38.443  -1.890  15.276  0.00  0.00    +0.000 NA
ATOM      6  C   UNL     1      39.638  -1.359  14.896  0.00  0.00    +0.000 A 
ATOM      7  C   UNL     1      40.767  -2.142  14.794  0.00  0.00    +0.000 A 
ATOM      8  C   UNL     1      41.949  -1.556  14.406  0.00  0.00    +0.000 A 
ATOM      9  C   UNL     1      42.056  -0.208  14.112  0.00  0.00    +0.000 A 
ATOM     10  C   UNL     1      43.375   0.340  13.699  0.00  0.00    +0.000 C 
ATOM     11  C   UNL     1      40.929   0.592  14.210  0.00  0.00    +0.000 A 
ATOM     12  C   UNL     1      39.748  -0.020  14.604  0.00  0.00    +0.000 A 
ENDROOT
BRANCH   4  13
ATOM     13  C   UNL     1      36.058  -1.780  15.801  0.00  0.00    +0.000 A 
ATOM     14  C   UNL     1      35.557  -2.880  15.149  0.00  0.00    +0.000 A 
ATOM     15  C   UNL     1      34.350  -3.468  15.543  0.00  0.00    +0.000 A 
ATOM     16  C   UNL     1      33.642  -2.947  16.602  0.00  0.00    +0.000 A 
ATOM     17  C   UNL     1      34.135  -1.857  17.252  0.00  0.00    +0.000 A 
ATOM     18  C   UNL     1      35.341  -1.272  16.855  0.00  0.00    +0.000 A 
ENDBRANCH   4  13
BRANCH   1  20
ATOM     19  N   UNL     1      38.981   3.074  15.462  0.00  0.00    +0.000 NA
ATOM     20  C   UNL     1      38.696   2.167  14.407  0.00  0.00    +0.000 C 
ATOM     21  O   UNL     1      38.548   2.600  13.264  0.00  0.00    +0.000 OA
BRANCH  19  22
ATOM     22  C   UNL     1      39.098   4.508  15.208  0.00  0.00    +0.000 C 
BRANCH  22  23
ATOM     23  C   UNL     1      38.485   5.200  16.412  0.00  0.00    +0.000 C 
BRANCH  23  27
ATOM     24  C   UNL     1      41.447   6.528  19.212  0.00  0.00    +0.000 A 
ATOM     25  C   UNL     1      40.200   6.123  19.634  0.00  0.00    +0.000 A 
ATOM     26  C   UNL     1      39.266   5.700  18.711  0.00  0.00    +0.000 A 
ATOM     27  C   UNL     1      39.544   5.668  17.342  0.00  0.00    +0.000 A 
ATOM     28  C   UNL     1      40.785   6.073  16.936  0.00  0.00    +0.000 A 
ATOM     29  C   UNL     1      41.717   6.494  17.860  0.00  0.00    +0.000 A 
BRANCH  24  31
ATOM     30  C   UNL     1      42.930   6.127  21.125  0.00  0.00    +0.000 C 
ATOM     31  O   UNL     1      42.376   6.951  20.143  0.00  0.00    +0.000 OA
ENDBRANCH  24  31
ENDBRANCH  23  27
ENDBRANCH  22  23
ENDBRANCH  19  22
ENDBRANCH   1  20
TORSDOF 6
ENDMDL
MODEL 2
REMARK VINA RESULT:      -8.7     23.020     27.510
REMARK  Name = 
REMARK  6 active torsions:
REMARK  status: ('A' for Active; 'I' for Inactive)
REMARK    1  A    between atoms: O_2  and  C_3
REMARK    2  A    between atoms: C_6  and  C_7
REMARK    3  A    between atoms: C_7  and  C_8
REMARK    4  A    between atoms: C_8  and  N_9
REMARK    5  A    between atoms: C_10  and  C_12
REMARK    6  A    between atoms: C_15  and  C_16
REMARK                            x       y       z     vdW  Elec       q    Type
REMARK                         _______ _______ _______ _____ _____    ______ ____
ROOT
ATOM      1  C   UNL     1      12.725  -0.385  26.865  0.00  0.00    +0.000 A 
ATOM      2  C   UNL     1      12.336  -1.634  26.425  0.00  0.00    +0.000 A 
ATOM      3  C   UNL     1      13.191  -2.820  26.727  0.00  0.00    +0.000 C 
ATOM      4  C   UNL     1      11.162  -1.806  25.708  0.00  0.00    +0.000 A 
ATOM      5  N   UNL     1      10.426  -0.706  25.463  0.00  0.00    +0.000 NA
ATOM      6  C   UNL     1      10.779   0.541  25.880  0.00  0.00    +0.000 A 
ATOM      7  C   UNL     1       9.991   1.636  25.602  0.00  0.00    +0.000 A 
ATOM      8  C   UNL     1      10.393   2.874  26.046  0.00  0.00    +0.000 A 
ATOM      9  C   UNL     1      11.560   3.070  26.764  0.00  0.00    +0.000 A 
ATOM     10  C   UNL     1      11.916   4.445  27.205  0.00  0.00    +0.000 C 
ATOM     11  C   UNL     1      12.363   1.978  27.051  0.00  0.00    +0.000 A 
ATOM     12  C   UNL     1      11.938   0.739  26.593  0.00  0.00    +0.000 A 
ENDROOT
BRANCH   4  13
ATOM     13  C   UNL     1      10.743  -3.120  25.242  0.00  0.00    +0.000 A 
ATOM     14  C   UNL     1      11.205  -3.634  24.055  0.00  0.00    +0.000 A 
ATOM     15  C   UNL     1      10.802  -4.897  23.607  0.00  0.00    +0.000 A 
ATOM     16  C   UNL     1       9.928  -5.649  24.359  0.00  0.00    +0.000 A 
ATOM     17  C   UNL     1       9.468  -5.144  25.536  0.00  0.00    +0.000 A 
ATOM     18  C   UNL     1       9.873  -3.881  25.981  0.00  0.00    +0.000 A 
ENDBRANCH   4  13
BRANCH   1  20
ATOM     19  N   UNL     1      15.159   0.003  26.901  0.00  0.00    +0.000 NA
ATOM     20  C   UNL     1      13.946  -0.186  27.613  0.00  0.00    +0.000 C 
ATOM     21  O   UNL     1      13.961  -0.177  28.845  0.00  0.00    +0.000 OA
BRANCH  19  22
ATOM     22  C   UNL     1      16.421   0.208  27.609  0.00  0.00    +0.000 C 
BRANCH  22  23
ATOM     23  C   UNL     1      17.212   1.202  26.779  0.00  0.00    +0.000 C 
BRANCH  23  27
ATOM     24  C   UNL     1      19.765  -0.705  23.910  0.00  0.00    +0.000 A 
ATOM     25  C   UNL     1      19.584   0.661  23.906  0.00  0.00    +0.000 A 
ATOM     26  C   UNL     1      18.757   1.249  24.841  0.00  0.00    +0.000 A 
ATOM     27  C   UNL     1      18.085   0.495  25.807  0.00  0.00    +0.000 A 
ATOM     28  C   UNL     1      18.273  -0.859  25.801  0.00  0.00    +0.000 A 
ATOM     29  C   UNL     1      19.099  -1.443  24.866  0.00  0.00    +0.000 A 
BRANCH  24  31
ATOM     30  C   UNL     1      20.229  -2.360  22.160  0.00  0.00    +0.000 C 
ATOM     31  O   UNL     1      20.594  -1.283  22.970  0.00  0.00    +0.000 OA
ENDBRANCH  24  31
ENDBRANCH  23  27
ENDBRANCH  22  23
ENDBRANCH  19  22
ENDBRANCH   1  20
TORSDOF 6
ENDMDL
MODEL 3
REMARK VINA RESULT:      -8.6      1.488      5.073
REMARK  Name = 
REMARK  6 active torsions:
REMARK  status: ('A' for Active; 'I' for Inactive)
REMARK    1  A    between atoms: O_2  and  C_3
REMARK    2  A    between atoms: C_6  and  C_7
REMARK    3  A    between atoms: C_7  and  C_8
REMARK    4  A    between atoms: C_8  and  N_9
REMARK    5  A    between atoms: C_10  and  C_12
REMARK    6  A    between atoms: C_15  and  C_16
REMARK                            x       y       z     vdW  Elec       q    Type
REMARK                         _______ _______ _______ _____ _____    ______ ____
ROOT
ATOM      1  C   UNL     1      38.921  -0.155  14.892  0.00  0.00    +0.000 A 
ATOM      2  C   UNL     1      40.162  -0.468  14.379  0.00  0.00    +0.000 A 
ATOM      3  C   UNL     1      40.859   0.508  13.489  0.00  0.00    +0.000 C 
ATOM      4  C   UNL     1      40.776  -1.675  14.677  0.00  0.00    +0.000 A 
ATOM      5  N   UNL     1      40.108  -2.520  15.484  0.00  0.00    +0.000 NA
ATOM      6  C   UNL     1      38.881  -2.245  16.008  0.00  0.00    +0.000 A 
ATOM      7  C   UNL     1      38.238  -3.145  16.829  0.00  0.00    +0.000 A 
ATOM      8  C   UNL     1      37.001  -2.819  17.332  0.00  0.00    +0.000 A 
ATOM      9  C   UNL     1      36.369  -1.620  17.048  0.00  0.00    +0.000 A 
ATOM     10  C   UNL     1      35.030  -1.351  17.637  0.00  0.00    +0.000 C 
ATOM     11  C   UNL     1      37.004  -0.705  16.224  0.00  0.00    +0.000 A 
ATOM     12  C   UNL     1      38.251  -1.055  15.728  0.00  0.00    +0.000 A 
ENDROOT
BRANCH   4  13
ATOM     13  C   UNL     1      42.087  -2.013  14.141  0.00  0.00    +0.000 A 
ATOM     14  C   UNL     1      42.220  -2.860  13.068  0.00  0.00    +0.000 A 
ATOM     15  C   UNL     1      43.480  -3.185  12.554  0.00  0.00    +0.000 A 
ATOM     16  C   UNL     1      44.615  -2.652  13.122  0.00  0.00    +0.000 A 
ATOM     17  C   UNL     1      44.488  -1.811  14.185  0.00  0.00    +0.000 A 
ATOM     18  C   UNL     1      43.227  -1.489  14.696  0.00  0.00    +0.000 A 
ENDBRANCH   4  13
BRANCH   1  20
ATOM     19  N   UNL     1      38.474   2.201  15.461  0.00  0.00    +0.000 NA
ATOM     20  C   UNL     1      38.265   1.098  14.592  0.00  0.00    +0.000 C 
ATOM     21  O   UNL     1      37.535   1.233  13.610  0.00  0.00    +0.000 OA
BRANCH  19  22
ATOM     22  C   UNL     1      37.835   3.490  15.204  0.00  0.00    +0.000 C 
BRANCH  22  23
ATOM     23  C   UNL     1      38.962   4.499  15.069  0.00  0.00    +0.000 C 
BRANCH  23  27
ATOM     24  C   UNL     1      40.181   6.125  18.844  0.00  0.00    +0.000 A 
ATOM     25  C   UNL     1      40.912   6.357  17.699  0.00  0.00    +0.000 A 
ATOM     26  C   UNL     1      40.497   5.821  16.497  0.00  0.00    +0.000 A 
ATOM     27  C   UNL     1      39.342   5.039  16.399  0.00  0.00    +0.000 A 
ATOM     28  C   UNL     1      38.626   4.817  17.541  0.00  0.00    +0.000 A 
ATOM     29  C   UNL     1      39.043   5.353  18.740  0.00  0.00    +0.000 A 
BRANCH  24  31
ATOM     30  C   UNL     1      41.907   6.553  20.534  0.00  0.00    +0.000 C 
ATOM     31  O   UNL     1      40.605   6.665  20.042  0.00  0.00    +0.000 OA
ENDBRANCH  24  31
ENDBRANCH  23  27
ENDBRANCH  22  23
ENDBRANCH  19  22
ENDBRANCH   1  20
TORSDOF 6
ENDMDL
MODEL 4
REMARK VINA RESULT:      -8.4      2.902      7.768
REMARK  Name = 
REMARK  6 active torsions:
REMARK  status: ('A' for Active; 'I' for Inactive)
REMARK    1  A    between atoms: O_2  and  C_3
REMARK    2  A    between atoms: C_6  and  C_7
REMARK    3  A    between atoms: C_7  and  C_8
REMARK    4  A    between atoms: C_8  and  N_9
REMARK    5  A    between atoms: C_10  and  C_12
REMARK    6  A    between atoms: C_15  and  C_16
REMARK                            x       y       z     vdW  Elec       q    Type
REMARK                         _______ _______ _______ _____ _____    ______ ____
ROOT
ATOM      1  C   UNL     1      37.092   1.397  14.976  0.00  0.00    +0.000 A 
ATOM      2  C   UNL     1      37.612   2.638  15.279  0.00  0.00    +0.000 A 
ATOM      3  C   UNL     1      38.355   3.402  14.232  0.00  0.00    +0.000 C 
ATOM      4  C   UNL     1      37.456   3.190  16.541  0.00  0.00    +0.000 A 
ATOM      5  N   UNL     1      36.779   2.464  17.449  0.00  0.00    +0.000 NA
ATOM      6  C   UNL     1      36.253   1.235  17.185  0.00  0.00    +0.000 A 
ATOM      7  C   UNL     1      35.568   0.530  18.150  0.00  0.00    +0.000 A 
ATOM      8  C   UNL     1      35.056  -0.706  17.833  0.00  0.00    +0.000 A 
ATOM      9  C   UNL     1      35.200  -1.277  16.580  0.00  0.00    +0.000 A 
ATOM     10  C   UNL     1      34.613  -2.619  16.325  0.00  0.00    +0.000 C 
ATOM     11  C   UNL     1      35.886  -0.579  15.600  0.00  0.00    +0.000 A 
ATOM     12  C   UNL     1      36.394   0.665  15.942  0.00  0.00    +0.000 A 
ENDROOT
BRANCH   4  13
ATOM     13  C   UNL     1      38.000   4.500  16.869  0.00  0.00    +0.000 A 
ATOM     14  C   UNL     1      37.784   5.585  16.055  0.00  0.00    +0.000 A 
ATOM     15  C   UNL     1      38.307   6.844  16.371  0.00  0.00    +0.000 A 
ATOM     16  C   UNL     1      39.054   7.013  17.515  0.00  0.00    +0.000 A 
ATOM     17  C   UNL     1      39.270   5.941  18.325  0.00  0.00    +0.000 A 
ATOM     18  C   UNL     1      38.746   4.685  18.006  0.00  0.00    +0.000 A 
ENDBRANCH   4  13
BRANCH   1  20
ATOM     19  N   UNL     1      38.433   0.082  13.379  0.00  0.00    +0.000 NA
ATOM     20  C   UNL     1      37.245   0.805  13.665  0.00  0.00    +0.000 C 
ATOM     21  O   UNL     1      36.379   0.911  12.796  0.00  0.00    +0.000 OA
BRANCH  19  22
ATOM     22  C   UNL     1      38.638  -0.536  12.071  0.00  0.00    +0.000 C 
BRANCH  22  23
ATOM     23  C   UNL     1      39.386  -1.831  12.330  0.00  0.00    +0.000 C 
BRANCH  23  27
ATOM     24  C   UNL     1      38.381  -3.401  16.190  0.00  0.00    +0.000 A 
ATOM     25  C   UNL     1      37.615  -3.692  15.082  0.00  0.00    +0.000 A 
ATOM     26  C   UNL     1      37.962  -3.173  13.851  0.00  0.00    +0.000 A 
ATOM     27  C   UNL     1      39.079  -2.350  13.687  0.00  0.00    +0.000 A 
ATOM     28  C   UNL     1      39.831  -2.070  14.794  0.00  0.00    +0.000 A 
ATOM     29  C   UNL     1      39.483  -2.589  16.022  0.00  0.00    +0.000 A 
BRANCH  24  31
ATOM     30  C   UNL     1      38.413  -3.380  18.643  0.00  0.00    +0.000 C 
ATOM     31  O   UNL     1      38.026  -3.925  17.418  0.00  0.00    +0.000 OA
ENDBRANCH  24  31
ENDBRANCH  23  27
ENDBRANCH  22  23
ENDBRANCH  19  22
ENDBRANCH   1  20
TORSDOF 6
ENDMDL
MODEL 5
REMARK VINA RESULT:      -8.3      1.659      2.331
REMARK  Name = 
REMARK  6 active torsions:
REMARK  status: ('A' for Active; 'I' for Inactive)
REMARK    1  A    between atoms: O_2  and  C_3
REMARK    2  A    between atoms: C_6  and  C_7
REMARK    3  A    between atoms: C_7  and  C_8
REMARK    4  A    between atoms: C_8  and  N_9
REMARK    5  A    between atoms: C_10  and  C_12
REMARK    6  A    between atoms: C_15  and  C_16
REMARK                            x       y       z     vdW  Elec       q    Type
REMARK                         _______ _______ _______ _____ _____    ______ ____
ROOT
ATOM      1  C   UNL     1      38.994   0.613  14.667  0.00  0.00    +0.000 A 
ATOM      2  C   UNL     1      38.414  -0.521  15.196  0.00  0.00    +0.000 A 
ATOM      3  C   UNL     1      37.039  -0.443  15.775  0.00  0.00    +0.000 C 
ATOM      4  C   UNL     1      39.084  -1.734  15.199  0.00  0.00    +0.000 A 
ATOM      5  N   UNL     1      40.320  -1.752  14.665  0.00  0.00    +0.000 NA
ATOM      6  C   UNL     1      40.925  -0.653  14.135  0.00  0.00    +0.000 A 
ATOM      7  C   UNL     1      42.193  -0.725  13.601  0.00  0.00    +0.000 A 
ATOM      8  C   UNL     1      42.759   0.414  13.079  0.00  0.00    +0.000 A 
ATOM      9  C   UNL     1      42.108   1.636  13.065  0.00  0.00    +0.000 A 
ATOM     10  C   UNL     1      42.796   2.816  12.478  0.00  0.00    +0.000 C 
ATOM     11  C   UNL     1      40.832   1.722  13.599  0.00  0.00    +0.000 A 
ATOM     12  C   UNL     1      40.281   0.561  14.121  0.00  0.00    +0.000 A 
ENDROOT
BRANCH   4  13
ATOM     13  C   UNL     1      38.478  -2.936  15.754  0.00  0.00    +0.000 A 
ATOM     14  C   UNL     1      38.949  -3.499  16.915  0.00  0.00    +0.000 A 
ATOM     15  C   UNL     1      38.366  -4.654  17.447  0.00  0.00    +0.000 A 
ATOM     16  C   UNL     1      37.301  -5.247  16.808  0.00  0.00    +0.000 A 
ATOM     17  C   UNL     1      36.831  -4.692  15.657  0.00  0.00    +0.000 A 
ATOM     18  C   UNL     1      37.416  -3.538  15.128  0.00  0.00    +0.000 A 
ENDBRANCH   4  13
BRANCH   1  20
ATOM     19  N   UNL     1      38.481   2.761  15.761  0.00  0.00    +0.000 NA
ATOM     20  C   UNL     1      38.310   1.887  14.656  0.00  0.00    +0.000 C 
ATOM     21  O   UNL     1      37.588   2.231  13.720  0.00  0.00    +0.000 OA
BRANCH  19  22
ATOM     22  C   UNL     1      37.812   4.060  15.800  0.00  0.00    +0.000 C 
BRANCH  22  23
ATOM     23  C   UNL     1      38.890   5.097  15.543  0.00  0.00    +0.000 C 
BRANCH  23  27
ATOM     24  C   UNL     1      40.830   6.371  19.148  0.00  0.00    +0.000 A 
ATOM     25  C   UNL     1      41.474   6.436  17.931  0.00  0.00    +0.000 A 
ATOM     26  C   UNL     1      40.826   6.019  16.787  0.00  0.00    +0.000 A 
ATOM     27  C   UNL     1      39.519   5.525  16.818  0.00  0.00    +0.000 A 
ATOM     28  C   UNL     1      38.891   5.467  18.031  0.00  0.00    +0.000 A 
ATOM     29  C   UNL     1      39.540   5.884  19.172  0.00  0.00    +0.000 A 
BRANCH  24  31
ATOM     30  C   UNL     1      42.123   8.026  20.415  0.00  0.00    +0.000 C 
ATOM     31  O   UNL     1      41.487   6.790  20.287  0.00  0.00    +0.000 OA
ENDBRANCH  24  31
ENDBRANCH  23  27
ENDBRANCH  22  23
ENDBRANCH  19  22
ENDBRANCH   1  20
TORSDOF 6
ENDMDL
MODEL 6
REMARK VINA RESULT:      -8.3      2.279      2.820
REMARK  Name = 
REMARK  6 active torsions:
REMARK  status: ('A' for Active; 'I' for Inactive)
REMARK    1  A    between atoms: O_2  and  C_3
REMARK    2  A    between atoms: C_6  and  C_7
REMARK    3  A    between atoms: C_7  and  C_8
REMARK    4  A    between atoms: C_8  and  N_9
REMARK    5  A    between atoms: C_10  and  C_12
REMARK    6  A    between atoms: C_15  and  C_16
REMARK                            x       y       z     vdW  Elec       q    Type
REMARK                         _______ _______ _______ _____ _____    ______ ____
ROOT
ATOM      1  C   UNL     1      37.140   1.232  14.721  0.00  0.00    +0.000 A 
ATOM      2  C   UNL     1      36.885  -0.008  15.270  0.00  0.00    +0.000 A 
ATOM      3  C   UNL     1      36.376  -0.102  16.671  0.00  0.00    +0.000 C 
ATOM      4  C   UNL     1      37.093  -1.169  14.543  0.00  0.00    +0.000 A 
ATOM      5  N   UNL     1      37.552  -1.031  13.285  0.00  0.00    +0.000 NA
ATOM      6  C   UNL     1      37.816   0.176  12.711  0.00  0.00    +0.000 A 
ATOM      7  C   UNL     1      38.286   0.263  11.420  0.00  0.00    +0.000 A 
ATOM      8  C   UNL     1      38.536   1.506  10.886  0.00  0.00    +0.000 A 
ATOM      9  C   UNL     1      38.336   2.679  11.594  0.00  0.00    +0.000 A 
ATOM     10  C   UNL     1      38.633   3.979  10.937  0.00  0.00    +0.000 C 
ATOM     11  C   UNL     1      37.863   2.606  12.894  0.00  0.00    +0.000 A 
ATOM     12  C   UNL     1      37.618   1.342  13.412  0.00  0.00    +0.000 A 
ENDROOT
BRANCH   4  13
ATOM     13  C   UNL     1      36.825  -2.481  15.114  0.00  0.00    +0.000 A 
ATOM     14  C   UNL     1      37.768  -3.134  15.871  0.00  0.00    +0.000 A 
ATOM     15  C   UNL     1      37.510  -4.394  16.419  0.00  0.00    +0.000 A 
ATOM     16  C   UNL     1      36.294  -5.004  16.206  0.00  0.00    +0.000 A 
ATOM     17  C   UNL     1      35.357  -4.361  15.457  0.00  0.00    +0.000 A 
ATOM     18  C   UNL     1      35.618  -3.101  14.911  0.00  0.00    +0.000 A 
ENDBRANCH   4  13
BRANCH   1  20
ATOM     19  N   UNL     1      38.024   3.018  16.172  0.00  0.00    +0.000 NA
ATOM     20  C   UNL     1      36.930   2.454  15.465  0.00  0.00    +0.000 C 
ATOM     21  O   UNL     1      35.833   3.014  15.502  0.00  0.00    +0.000 OA
BRANCH  19  22
ATOM     22  C   UNL     1      37.865   4.252  16.939  0.00  0.00    +0.000 C 
BRANCH  22  23
ATOM     23  C   UNL     1      38.861   5.239  16.360  0.00  0.00    +0.000 C 
BRANCH  23  27
ATOM     24  C   UNL     1      41.405   6.652  19.508  0.00  0.00    +0.000 A 
ATOM     25  C   UNL     1      40.111   6.254  19.762  0.00  0.00    +0.000 A 
ATOM     26  C   UNL     1      39.314   5.804  18.731  0.00  0.00    +0.000 A 
ATOM     27  C   UNL     1      39.781   5.735  17.415  0.00  0.00    +0.000 A 
ATOM     28  C   UNL     1      41.067   6.132  17.175  0.00  0.00    +0.000 A 
ATOM     29  C   UNL     1      41.860   6.582  18.208  0.00  0.00    +0.000 A 
BRANCH  24  31
ATOM     30  C   UNL     1      43.090   6.298  21.256  0.00  0.00    +0.000 C 
ATOM     31  O   UNL     1      42.195   7.102  20.547  0.00  0.00    +0.000 OA
ENDBRANCH  24  31
ENDBRANCH  23  27
ENDBRANCH  22  23
ENDBRANCH  19  22
ENDBRANCH   1  20
TORSDOF 6
ENDMDL
MODEL 7
REMARK VINA RESULT:      -8.3      1.666      5.049
REMARK  Name = 
REMARK  6 active torsions:
REMARK  status: ('A' for Active; 'I' for Inactive)
REMARK    1  A    between atoms: O_2  and  C_3
REMARK    2  A    between atoms: C_6  and  C_7
REMARK    3  A    between atoms: C_7  and  C_8
REMARK    4  A    between atoms: C_8  and  N_9
REMARK    5  A    between atoms: C_10  and  C_12
REMARK    6  A    between atoms: C_15  and  C_16
REMARK                            x       y       z     vdW  Elec       q    Type
REMARK                         _______ _______ _______ _____ _____    ______ ____
ROOT
ATOM      1  C   UNL     1      37.553   0.101  15.192  0.00  0.00    +0.000 A 
ATOM      2  C   UNL     1      38.777  -0.123  14.597  0.00  0.00    +0.000 A 
ATOM      3  C   UNL     1      39.553   1.031  14.053  0.00  0.00    +0.000 C 
ATOM      4  C   UNL     1      39.300  -1.402  14.495  0.00  0.00    +0.000 A 
ATOM      5  N   UNL     1      38.562  -2.408  15.001  0.00  0.00    +0.000 NA
ATOM      6  C   UNL     1      37.350  -2.225  15.593  0.00  0.00    +0.000 A 
ATOM      7  C   UNL     1      36.633  -3.289  16.095  0.00  0.00    +0.000 A 
ATOM      8  C   UNL     1      35.414  -3.050  16.684  0.00  0.00    +0.000 A 
ATOM      9  C   UNL     1      34.872  -1.781  16.797  0.00  0.00    +0.000 A 
ATOM     10  C   UNL     1      33.547  -1.616  17.451  0.00  0.00    +0.000 C 
ATOM     11  C   UNL     1      35.582  -0.702  16.297  0.00  0.00    +0.000 A 
ATOM     12  C   UNL     1      36.809  -0.966  15.706  0.00  0.00    +0.000 A 
ENDROOT
BRANCH   4  13
ATOM     13  C   UNL     1      40.592  -1.647  13.870  0.00  0.00    +0.000 A 
ATOM     14  C   UNL     1      41.751  -1.646  14.607  0.00  0.00    +0.000 A 
ATOM     15  C   UNL     1      42.992  -1.882  14.006  0.00  0.00    +0.000 A 
ATOM     16  C   UNL     1      43.068  -2.120  12.652  0.00  0.00    +0.000 A 
ATOM     17  C   UNL     1      41.922  -2.122  11.917  0.00  0.00    +0.000 A 
ATOM     18  C   UNL     1      40.684  -1.886  12.522  0.00  0.00    +0.000 A 
ENDBRANCH   4  13
BRANCH   1  20
ATOM     19  N   UNL     1      37.369   2.235  16.411  0.00  0.00    +0.000 NA
ATOM     20  C   UNL     1      36.991   1.428  15.306  0.00  0.00    +0.000 C 
ATOM     21  O   UNL     1      36.198   1.875  14.476  0.00  0.00    +0.000 OA
BRANCH  19  22
ATOM     22  C   UNL     1      36.831   3.584  16.575  0.00  0.00    +0.000 C 
BRANCH  22  23
ATOM     23  C   UNL     1      37.886   4.527  16.026  0.00  0.00    +0.000 C 
BRANCH  23  27
ATOM     24  C   UNL     1      39.207   7.182  19.122  0.00  0.00    +0.000 A 
ATOM     25  C   UNL     1      39.422   5.824  19.209  0.00  0.00    +0.000 A 
ATOM     26  C   UNL     1      38.986   4.993  18.198  0.00  0.00    +0.000 A 
ATOM     27  C   UNL     1      38.324   5.487  17.071  0.00  0.00    +0.000 A 
ATOM     28  C   UNL     1      38.117   6.836  16.997  0.00  0.00    +0.000 A 
ATOM     29  C   UNL     1      38.553   7.665  18.008  0.00  0.00    +0.000 A 
BRANCH  24  31
ATOM     30  C   UNL     1      39.515   9.396  20.133  0.00  0.00    +0.000 C 
ATOM     31  O   UNL     1      39.647   8.006  20.139  0.00  0.00    +0.000 OA
ENDBRANCH  24  31
ENDBRANCH  23  27
ENDBRANCH  22  23
ENDBRANCH  19  22
ENDBRANCH   1  20
TORSDOF 6
ENDMDL
MODEL 8
REMARK VINA RESULT:      -8.0      4.254      8.298
REMARK  Name = 
REMARK  6 active torsions:
REMARK  status: ('A' for Active; 'I' for Inactive)
REMARK    1  A    between atoms: O_2  and  C_3
REMARK    2  A    between atoms: C_6  and  C_7
REMARK    3  A    between atoms: C_7  and  C_8
REMARK    4  A    between atoms: C_8  and  N_9
REMARK    5  A    between atoms: C_10  and  C_12
REMARK    6  A    between atoms: C_15  and  C_16
REMARK                            x       y       z     vdW  Elec       q    Type
REMARK                         _______ _______ _______ _____ _____    ______ ____
ROOT
ATOM      1  C   UNL     1      36.850   2.181  13.417  0.00  0.00    +0.000 A 
ATOM      2  C   UNL     1      36.807   3.497  13.007  0.00  0.00    +0.000 A 
ATOM      3  C   UNL     1      37.548   3.910  11.777  0.00  0.00    +0.000 C 
ATOM      4  C   UNL     1      36.087   4.445  13.716  0.00  0.00    +0.000 A 
ATOM      5  N   UNL     1      35.436   4.023  14.816  0.00  0.00    +0.000 NA
ATOM      6  C   UNL     1      35.457   2.733  15.252  0.00  0.00    +0.000 A 
ATOM      7  C   UNL     1      34.774   2.352  16.386  0.00  0.00    +0.000 A 
ATOM      8  C   UNL     1      34.827   1.037  16.783  0.00  0.00    +0.000 A 
ATOM      9  C   UNL     1      35.540   0.073  16.090  0.00  0.00    +0.000 A 
ATOM     10  C   UNL     1      35.541  -1.326  16.592  0.00  0.00    +0.000 C 
ATOM     11  C   UNL     1      36.231   0.442  14.948  0.00  0.00    +0.000 A 
ATOM     12  C   UNL     1      36.164   1.774  14.566  0.00  0.00    +0.000 A 
ENDROOT
BRANCH   4  13
ATOM     13  C   UNL     1      36.035   5.836  13.289  0.00  0.00    +0.000 A 
ATOM     14  C   UNL     1      36.965   6.749  13.724  0.00  0.00    +0.000 A 
ATOM     15  C   UNL     1      36.914   8.085  13.314  0.00  0.00    +0.000 A 
ATOM     16  C   UNL     1      35.922   8.508  12.458  0.00  0.00    +0.000 A 
ATOM     17  C   UNL     1      34.999   7.606  12.024  0.00  0.00    +0.000 A 
ATOM     18  C   UNL     1      35.052   6.271  12.436  0.00  0.00    +0.000 A 
ENDBRANCH   4  13
BRANCH   1  20
ATOM     19  N   UNL     1      38.967   0.987  13.007  0.00  0.00    +0.000 NA
ATOM     20  C   UNL     1      37.597   1.179  12.690  0.00  0.00    +0.000 C 
ATOM     21  O   UNL     1      37.079   0.492  11.808  0.00  0.00    +0.000 OA
BRANCH  19  22
ATOM     22  C   UNL     1      39.767  -0.012  12.302  0.00  0.00    +0.000 C 
BRANCH  22  23
ATOM     23  C   UNL     1      40.486  -0.809  13.375  0.00  0.00    +0.000 C 
BRANCH  23  27
ATOM     24  C   UNL     1      37.896  -3.608  15.335  0.00  0.00    +0.000 A 
ATOM     25  C   UNL     1      38.927  -2.996  16.013  0.00  0.00    +0.000 A 
ATOM     26  C   UNL     1      39.745  -2.099  15.359  0.00  0.00    +0.000 A 
ATOM     27  C   UNL     1      39.563  -1.785  14.009  0.00  0.00    +0.000 A 
ATOM     28  C   UNL     1      38.536  -2.398  13.347  0.00  0.00    +0.000 A 
ATOM     29  C   UNL     1      37.721  -3.294  14.003  0.00  0.00    +0.000 A 
BRANCH  24  31
ATOM     30  C   UNL     1      37.539  -5.420  16.950  0.00  0.00    +0.000 C 
ATOM     31  O   UNL     1      37.083  -4.505  15.999  0.00  0.00    +0.000 OA
ENDBRANCH  24  31
ENDBRANCH  23  27
ENDBRANCH  22  23
ENDBRANCH  19  22
ENDBRANCH   1  20
TORSDOF 6
ENDMDL
MODEL 9
REMARK VINA RESULT:      -8.0      4.269      7.028
REMARK  Name = 
REMARK  6 active torsions:
REMARK  status: ('A' for Active; 'I' for Inactive)
REMARK    1  A    between atoms: O_2  and  C_3
REMARK    2  A    between atoms: C_6  and  C_7
REMARK    3  A    between atoms: C_7  and  C_8
REMARK    4  A    between atoms: C_8  and  N_9
REMARK    5  A    between atoms: C_10  and  C_12
REMARK    6  A    between atoms: C_15  and  C_16
REMARK                            x       y       z     vdW  Elec       q    Type
REMARK                         _______ _______ _______ _____ _____    ______ ____
ROOT
ATOM      1  C   UNL     1      37.979   0.603  14.685  0.00  0.00    +0.000 A 
ATOM      2  C   UNL     1      38.290  -0.609  15.265  0.00  0.00    +0.000 A 
ATOM      3  C   UNL     1      39.491  -1.363  14.797  0.00  0.00    +0.000 C 
ATOM      4  C   UNL     1      37.507  -1.139  16.278  0.00  0.00    +0.000 A 
ATOM      5  N   UNL     1      36.436  -0.421  16.665  0.00  0.00    +0.000 NA
ATOM      6  C   UNL     1      36.098   0.778  16.114  0.00  0.00    +0.000 A 
ATOM      7  C   UNL     1      34.991   1.474  16.546  0.00  0.00    +0.000 A 
ATOM      8  C   UNL     1      34.693   2.681  15.957  0.00  0.00    +0.000 A 
ATOM      9  C   UNL     1      35.461   3.230  14.945  0.00  0.00    +0.000 A 
ATOM     10  C   UNL     1      35.065   4.541  14.366  0.00  0.00    +0.000 C 
ATOM     11  C   UNL     1      36.578   2.540  14.500  0.00  0.00    +0.000 A 
ATOM     12  C   UNL     1      36.859   1.325  15.108  0.00  0.00    +0.000 A 
ENDROOT
BRANCH   4  13
ATOM     13  C   UNL     1      37.829  -2.417  16.897  0.00  0.00    +0.000 A 
ATOM     14  C   UNL     1      37.529  -3.605  16.275  0.00  0.00    +0.000 A 
ATOM     15  C   UNL     1      37.838  -4.832  16.870  0.00  0.00    +0.000 A 
ATOM     16  C   UNL     1      38.454  -4.867  18.101  0.00  0.00    +0.000 A 
ATOM     17  C   UNL     1      38.754  -3.692  18.720  0.00  0.00    +0.000 A 
ATOM     18  C   UNL     1      38.443  -2.467  18.122  0.00  0.00    +0.000 A 
ENDBRANCH   4  13
BRANCH   1  20
ATOM     19  N   UNL     1      38.443   0.882  12.280  0.00  0.00    +0.000 NA
ATOM     20  C   UNL     1      38.785   1.172  13.627  0.00  0.00    +0.000 C 
ATOM     21  O   UNL     1      39.753   1.896  13.862  0.00  0.00    +0.000 OA
BRANCH  19  22
ATOM     22  C   UNL     1      39.224   1.430  11.173  0.00  0.00    +0.000 C 
BRANCH  22  23
ATOM     23  C   UNL     1      39.530   0.262  10.254  0.00  0.00    +0.000 C 
BRANCH  23  27
ATOM     24  C   UNL     1      42.190  -2.454  12.238  0.00  0.00    +0.000 A 
ATOM     25  C   UNL     1      42.494  -1.115  12.123  0.00  0.00    +0.000 A 
ATOM     26  C   UNL     1      41.620  -0.263  11.479  0.00  0.00    +0.000 A 
ATOM     27  C   UNL     1      40.418  -0.718  10.931  0.00  0.00    +0.000 A 
ATOM     28  C   UNL     1      40.127  -2.048  11.053  0.00  0.00    +0.000 A 
ATOM     29  C   UNL     1      41.001  -2.896  11.695  0.00  0.00    +0.000 A 
BRANCH  24  31
ATOM     30  C   UNL     1      44.263  -3.762  12.323  0.00  0.00    +0.000 C 
ATOM     31  O   UNL     1      43.071  -3.298  12.883  0.00  0.00    +0.000 OA
ENDBRANCH  24  31
ENDBRANCH  23  27
ENDBRANCH  22  23
ENDBRANCH  19  22
ENDBRANCH   1  20
TORSDOF 6
ENDMDL
MODEL 10
REMARK VINA RESULT:      -8.0      3.499      8.635
REMARK  Name = 
REMARK  6 active torsions:
REMARK  status: ('A' for Active; 'I' for Inactive)
REMARK    1  A    between atoms: O_2  and  C_3
REMARK    2  A    between atoms: C_6  and  C_7
REMARK    3  A    between atoms: C_7  and  C_8
REMARK    4  A    between atoms: C_8  and  N_9
REMARK    5  A    between atoms: C_10  and  C_12
REMARK    6  A    between atoms: C_15  and  C_16
REMARK                            x       y       z     vdW  Elec       q    Type
REMARK                         _______ _______ _______ _____ _____    ______ ____
ROOT
ATOM      1  C   UNL     1      37.256   5.002  15.401  0.00  0.00    +0.000 A 
ATOM      2  C   UNL     1      38.073   5.185  16.498  0.00  0.00    +0.000 A 
ATOM      3  C   UNL     1      38.439   4.013  17.347  0.00  0.00    +0.000 C 
ATOM      4  C   UNL     1      38.562   6.440  16.824  0.00  0.00    +0.000 A 
ATOM      5  N   UNL     1      38.204   7.464  16.027  0.00  0.00    +0.000 NA
ATOM      6  C   UNL     1      37.399   7.321  14.938  0.00  0.00    +0.000 A 
ATOM      7  C   UNL     1      37.061   8.402  14.154  0.00  0.00    +0.000 A 
ATOM      8  C   UNL     1      36.245   8.204  13.065  0.00  0.00    +0.000 A 
ATOM      9  C   UNL     1      35.746   6.960  12.720  0.00  0.00    +0.000 A 
ATOM     10  C   UNL     1      34.870   6.839  11.524  0.00  0.00    +0.000 C 
ATOM     11  C   UNL     1      36.077   5.864  13.499  0.00  0.00    +0.000 A 
ATOM     12  C   UNL     1      36.901   6.087  14.593  0.00  0.00    +0.000 A 
ENDROOT
BRANCH   4  13
ATOM     13  C   UNL     1      39.426   6.642  17.979  0.00  0.00    +0.000 A 
ATOM     14  C   UNL     1      40.778   6.412  17.905  0.00  0.00    +0.000 A 
ATOM     15  C   UNL     1      41.607   6.606  19.015  0.00  0.00    +0.000 A 
ATOM     16  C   UNL     1      41.073   7.035  20.209  0.00  0.00    +0.000 A 
ATOM     17  C   UNL     1      39.734   7.265  20.286  0.00  0.00    +0.000 A 
ATOM     18  C   UNL     1      38.908   7.070  19.175  0.00  0.00    +0.000 A 
ENDBRANCH   4  13
BRANCH   1  20
ATOM     19  N   UNL     1      35.650   3.174  15.791  0.00  0.00    +0.000 NA
ATOM     20  C   UNL     1      36.737   3.700  15.046  0.00  0.00    +0.000 C 
ATOM     21  O   UNL     1      37.209   3.041  14.119  0.00  0.00    +0.000 OA
BRANCH  19  22
ATOM     22  C   UNL     1      35.087   1.863  15.473  0.00  0.00    +0.000 C 
BRANCH  22  23
ATOM     23  C   UNL     1      34.613   1.278  16.791  0.00  0.00    +0.000 C 
BRANCH  23  27
ATOM     24  C   UNL     1      37.516  -1.558  18.175  0.00  0.00    +0.000 A 
ATOM     25  C   UNL     1      37.320  -1.339  16.829  0.00  0.00    +0.000 A 
ATOM     26  C   UNL     1      36.379  -0.420  16.411  0.00  0.00    +0.000 A 
ATOM     27  C   UNL     1      35.605   0.307  17.320  0.00  0.00    +0.000 A 
ATOM     28  C   UNL     1      35.810   0.081  18.652  0.00  0.00    +0.000 A 
ATOM     29  C   UNL     1      36.750  -0.837  19.067  0.00  0.00    +0.000 A 
BRANCH  24  31
ATOM     30  C   UNL     1      38.769  -3.646  17.881  0.00  0.00    +0.000 C 
ATOM     31  O   UNL     1      38.459  -2.480  18.583  0.00  0.00    +0.000 OA
ENDBRANCH  24  31
ENDBRANCH  23  27
ENDBRANCH  22  23
ENDBRANCH  19  22
ENDBRANCH   1  20
TORSDOF 6
ENDMDL
