MODEL 1
REMARK VINA RESULT:      -7.0      0.000      0.000
REMARK  Name = 
REMARK  3 active torsions:
REMARK  status: ('A' for Active; 'I' for Inactive)
REMARK    1  A    between atoms: C_4  and  N_5
REMARK    2  A    between atoms: N_5  and  N_6
REMARK    3  A    between atoms: C_7  and  C_9
REMARK                            x       y       z     vdW  Elec       q    Type
REMARK                         _______ _______ _______ _____ _____    ______ ____
ROOT
ATOM      1  N   UNL     1      17.652  10.496  37.268  0.00  0.00    +0.000 NA
ENDROOT
BRANCH   1   5
ATOM      2  C   UNL     1      20.635  13.800  39.071  0.00  0.00    +0.000 C 
ATOM      3  C   UNL     1      20.244  12.200  39.103  0.00  0.00    +0.000 C 
ATOM      4  C   UNL     1      19.323  12.321  37.727  0.00  0.00    +0.000 C 
ATOM      5  C   UNL     1      18.978  10.897  37.517  0.00  0.00    +0.000 C 
ATOM      6  C   UNL     1      19.950  10.012  37.572  0.00  0.00    +0.000 C 
ATOM      7  C   UNL     1      21.353  10.343  37.827  0.00  0.00    +0.000 C 
ATOM      8  C   UNL     1      22.126  10.120  36.522  0.00  0.00    +0.000 C 
ATOM      9  C   UNL     1      21.874   9.371  38.872  0.00  0.00    +0.000 C 
ATOM     10  C   UNL     1      21.596  11.770  38.240  0.00  0.00    +0.000 C 
ENDBRANCH   1   5
BRANCH   1  11
ATOM     11  N   UNL     1      17.021  10.981  36.120  0.00  0.00    +0.000 NA
ATOM     12  C   UNL     1      17.019  10.280  34.884  0.00  0.00    +0.000 C 
ATOM     13  O   UNL     1      17.617   9.177  34.841  0.00  0.00    +0.000 OA
BRANCH  12  14
ATOM     14  C   UNL     1      16.340  10.845  33.725  0.00  0.00    +0.000 A 
ATOM     15  C   UNL     1      16.608  10.403  32.441  0.00  0.00    +0.000 A 
ATOM     16  C   UNL     1      15.962  10.940  31.341  0.00  0.00    +0.000 A 
ATOM     17  C   UNL     1      15.022  11.940  31.464  0.00  0.00    +0.000 A 
ATOM     18  F   UNL     1      14.385  12.467  30.377  0.00  0.00    +0.000 F 
ATOM     19  C   UNL     1      14.753  12.382  32.743  0.00  0.00    +0.000 A 
ATOM     20  C   UNL     1      15.399  11.845  33.838  0.00  0.00    +0.000 A 
ENDBRANCH  12  14
ENDBRANCH   1  11
TORSDOF 3
ENDMDL
MODEL 2
REMARK VINA RESULT:      -6.8     21.946     23.149
REMARK  Name = 
REMARK  3 active torsions:
REMARK  status: ('A' for Active; 'I' for Inactive)
REMARK    1  A    between atoms: C_4  and  N_5
REMARK    2  A    between atoms: N_5  and  N_6
REMARK    3  A    between atoms: C_7  and  C_9
REMARK                            x       y       z     vdW  Elec       q    Type
REMARK                         _______ _______ _______ _____ _____    ______ ____
ROOT
ATOM      1  N   UNL     1      29.646  24.840  20.670  0.00  0.00    +0.000 NA
ENDROOT
BRANCH   1   5
ATOM      2  C   UNL     1      27.957  29.007  22.357  0.00  0.00    +0.000 C 
ATOM      3  C   UNL     1      29.239  28.297  21.605  0.00  0.00    +0.000 C 
ATOM      4  C   UNL     1      28.368  26.929  21.250  0.00  0.00    +0.000 C 
ATOM      5  C   UNL     1      29.357  26.196  20.427  0.00  0.00    +0.000 C 
ATOM      6  C   UNL     1      29.960  26.851  19.459  0.00  0.00    +0.000 C 
ATOM      7  C   UNL     1      29.719  28.258  19.140  0.00  0.00    +0.000 C 
ATOM      8  C   UNL     1      28.972  28.308  17.802  0.00  0.00    +0.000 C 
ATOM      9  C   UNL     1      31.070  28.931  18.966  0.00  0.00    +0.000 C 
ATOM     10  C   UNL     1      28.869  28.992  20.142  0.00  0.00    +0.000 C 
ENDBRANCH   1   5
BRANCH   1  11
ATOM     11  N   UNL     1      29.700  24.404  21.996  0.00  0.00    +0.000 NA
ATOM     12  C   UNL     1      28.705  23.574  22.578  0.00  0.00    +0.000 C 
ATOM     13  O   UNL     1      27.742  23.226  21.853  0.00  0.00    +0.000 OA
BRANCH  12  14
ATOM     14  C   UNL     1      28.825  23.155  23.969  0.00  0.00    +0.000 A 
ATOM     15  C   UNL     1      30.033  22.740  24.500  0.00  0.00    +0.000 A 
ATOM     16  C   UNL     1      30.145  22.343  25.821  0.00  0.00    +0.000 A 
ATOM     17  C   UNL     1      29.063  22.341  26.675  0.00  0.00    +0.000 A 
ATOM     18  F   UNL     1      29.177  21.950  27.979  0.00  0.00    +0.000 F 
ATOM     19  C   UNL     1      27.857  22.755  26.149  0.00  0.00    +0.000 A 
ATOM     20  C   UNL     1      27.749  23.149  24.831  0.00  0.00    +0.000 A 
ENDBRANCH  12  14
ENDBRANCH   1  11
TORSDOF 3
ENDMDL
MODEL 3
REMARK VINA RESULT:      -6.7      2.375      3.001
REMARK  Name = 
REMARK  3 active torsions:
REMARK  status: ('A' for Active; 'I' for Inactive)
REMARK    1  A    between atoms: C_4  and  N_5
REMARK    2  A    between atoms: N_5  and  N_6
REMARK    3  A    between atoms: C_7  and  C_9
REMARK                            x       y       z     vdW  Elec       q    Type
REMARK                         _______ _______ _______ _____ _____    ______ ____
ROOT
ATOM      1  N   UNL     1      19.160   9.533  37.525  0.00  0.00    +0.000 NA
ENDROOT
BRANCH   1   5
ATOM      2  C   UNL     1      21.757  13.122  39.380  0.00  0.00    +0.000 C 
ATOM      3  C   UNL     1      21.720  11.493  39.136  0.00  0.00    +0.000 C 
ATOM      4  C   UNL     1      20.485  11.611  38.033  0.00  0.00    +0.000 C 
ATOM      5  C   UNL     1      20.397  10.203  37.587  0.00  0.00    +0.000 C 
ATOM      6  C   UNL     1      21.512   9.592  37.250  0.00  0.00    +0.000 C 
ATOM      7  C   UNL     1      22.836  10.213  37.285  0.00  0.00    +0.000 C 
ATOM      8  C   UNL     1      23.293  10.413  35.835  0.00  0.00    +0.000 C 
ATOM      9  C   UNL     1      23.785   9.239  37.963  0.00  0.00    +0.000 C 
ATOM     10  C   UNL     1      22.877  11.565  37.946  0.00  0.00    +0.000 C 
ENDBRANCH   1   5
BRANCH   1  11
ATOM     11  N   UNL     1      17.997  10.301  37.448  0.00  0.00    +0.000 NA
ATOM     12  C   UNL     1      17.141  10.295  36.313  0.00  0.00    +0.000 C 
ATOM     13  O   UNL     1      17.461   9.560  35.348  0.00  0.00    +0.000 OA
BRANCH  12  14
ATOM     14  C   UNL     1      15.941  11.122  36.299  0.00  0.00    +0.000 A 
ATOM     15  C   UNL     1      15.069  11.154  37.373  0.00  0.00    +0.000 A 
ATOM     16  C   UNL     1      13.931  11.940  37.359  0.00  0.00    +0.000 A 
ATOM     17  C   UNL     1      13.604  12.730  36.278  0.00  0.00    +0.000 A 
ATOM     18  F   UNL     1      12.480  13.506  36.266  0.00  0.00    +0.000 F 
ATOM     19  C   UNL     1      14.472  12.701  35.205  0.00  0.00    +0.000 A 
ATOM     20  C   UNL     1      15.607  11.915  35.222  0.00  0.00    +0.000 A 
ENDBRANCH  12  14
ENDBRANCH   1  11
TORSDOF 3
ENDMDL
MODEL 4
REMARK VINA RESULT:      -6.6     19.113     21.863
REMARK  Name = 
REMARK  3 active torsions:
REMARK  status: ('A' for Active; 'I' for Inactive)
REMARK    1  A    between atoms: C_4  and  N_5
REMARK    2  A    between atoms: N_5  and  N_6
REMARK    3  A    between atoms: C_7  and  C_9
REMARK                            x       y       z     vdW  Elec       q    Type
REMARK                         _______ _______ _______ _____ _____    ______ ____
ROOT
ATOM      1  N   UNL     1      33.409  -4.491  33.572  0.00  0.00    +0.000 NA
ENDROOT
BRANCH   1   5
ATOM      2  C   UNL     1      30.420  -7.338  31.117  0.00  0.00    +0.000 C 
ATOM      3  C   UNL     1      31.526  -6.125  30.970  0.00  0.00    +0.000 C 
ATOM      4  C   UNL     1      32.096  -6.358  32.512  0.00  0.00    +0.000 C 
ATOM      5  C   UNL     1      33.229  -5.405  32.517  0.00  0.00    +0.000 C 
ATOM      6  C   UNL     1      34.066  -5.437  31.503  0.00  0.00    +0.000 C 
ATOM      7  C   UNL     1      33.953  -6.353  30.368  0.00  0.00    +0.000 C 
ATOM      8  C   UNL     1      35.095  -7.370  30.477  0.00  0.00    +0.000 C 
ATOM      9  C   UNL     1      34.147  -5.542  29.098  0.00  0.00    +0.000 C 
ATOM     10  C   UNL     1      32.671  -7.140  30.322  0.00  0.00    +0.000 C 
ENDBRANCH   1   5
BRANCH   1  11
ATOM     11  N   UNL     1      33.484  -3.131  33.261  0.00  0.00    +0.000 NA
ATOM     12  C   UNL     1      33.549  -2.115  34.251  0.00  0.00    +0.000 C 
ATOM     13  O   UNL     1      33.536  -2.473  35.454  0.00  0.00    +0.000 OA
BRANCH  12  14
ATOM     14  C   UNL     1      33.626  -0.714  33.856  0.00  0.00    +0.000 A 
ATOM     15  C   UNL     1      34.229  -0.326  32.673  0.00  0.00    +0.000 A 
ATOM     16  C   UNL     1      34.301   1.004  32.298  0.00  0.00    +0.000 A 
ATOM     17  C   UNL     1      33.778   2.011  33.081  0.00  0.00    +0.000 A 
ATOM     18  F   UNL     1      33.850   3.323  32.709  0.00  0.00    +0.000 F 
ATOM     19  C   UNL     1      33.175   1.627  34.261  0.00  0.00    +0.000 A 
ATOM     20  C   UNL     1      33.105   0.300  34.632  0.00  0.00    +0.000 A 
ENDBRANCH  12  14
ENDBRANCH   1  11
TORSDOF 3
ENDMDL
MODEL 5
REMARK VINA RESULT:      -6.6      1.671      2.377
REMARK  Name = 
REMARK  3 active torsions:
REMARK  status: ('A' for Active; 'I' for Inactive)
REMARK    1  A    between atoms: C_4  and  N_5
REMARK    2  A    between atoms: N_5  and  N_6
REMARK    3  A    between atoms: C_7  and  C_9
REMARK                            x       y       z     vdW  Elec       q    Type
REMARK                         _______ _______ _______ _____ _____    ______ ____
ROOT
ATOM      1  N   UNL     1      19.914   9.577  37.310  0.00  0.00    +0.000 NA
ENDROOT
BRANCH   1   5
ATOM      2  C   UNL     1      22.649  13.044  39.197  0.00  0.00    +0.000 C 
ATOM      3  C   UNL     1      22.516  11.414  38.996  0.00  0.00    +0.000 C 
ATOM      4  C   UNL     1      21.347  11.579  37.828  0.00  0.00    +0.000 C 
ATOM      5  C   UNL     1      21.188  10.166  37.417  0.00  0.00    +0.000 C 
ATOM      6  C   UNL     1      22.275   9.474  37.155  0.00  0.00    +0.000 C 
ATOM      7  C   UNL     1      23.634  10.007  37.241  0.00  0.00    +0.000 C 
ATOM      8  C   UNL     1      24.175  10.132  35.812  0.00  0.00    +0.000 C 
ATOM      9  C   UNL     1      24.481   8.996  37.994  0.00  0.00    +0.000 C 
ATOM     10  C   UNL     1      23.733  11.374  37.866  0.00  0.00    +0.000 C 
ENDBRANCH   1   5
BRANCH   1  11
ATOM     11  N   UNL     1      19.103   9.948  36.235  0.00  0.00    +0.000 NA
ATOM     12  C   UNL     1      17.763  10.391  36.395  0.00  0.00    +0.000 C 
ATOM     13  O   UNL     1      17.303  10.443  37.562  0.00  0.00    +0.000 OA
BRANCH  12  14
ATOM     14  C   UNL     1      16.972  10.764  35.229  0.00  0.00    +0.000 A 
ATOM     15  C   UNL     1      15.871  11.594  35.334  0.00  0.00    +0.000 A 
ATOM     16  C   UNL     1      15.121  11.949  34.226  0.00  0.00    +0.000 A 
ATOM     17  C   UNL     1      15.430  11.494  32.962  0.00  0.00    +0.000 A 
ATOM     18  F   UNL     1      14.689  11.845  31.870  0.00  0.00    +0.000 F 
ATOM     19  C   UNL     1      16.528  10.666  32.854  0.00  0.00    +0.000 A 
ATOM     20  C   UNL     1      17.273  10.314  33.961  0.00  0.00    +0.000 A 
ENDBRANCH  12  14
ENDBRANCH   1  11
TORSDOF 3
ENDMDL
MODEL 6
REMARK VINA RESULT:      -6.6     19.026     21.817
REMARK  Name = 
REMARK  3 active torsions:
REMARK  status: ('A' for Active; 'I' for Inactive)
REMARK    1  A    between atoms: C_4  and  N_5
REMARK    2  A    between atoms: N_5  and  N_6
REMARK    3  A    between atoms: C_7  and  C_9
REMARK                            x       y       z     vdW  Elec       q    Type
REMARK                         _______ _______ _______ _____ _____    ______ ____
ROOT
ATOM      1  N   UNL     1      33.548  -4.305  33.362  0.00  0.00    +0.000 NA
ENDROOT
BRANCH   1   5
ATOM      2  C   UNL     1      34.155  -5.997  28.909  0.00  0.00    +0.000 C 
ATOM      3  C   UNL     1      33.930  -6.436  30.481  0.00  0.00    +0.000 C 
ATOM      4  C   UNL     1      33.465  -4.903  30.920  0.00  0.00    +0.000 C 
ATOM      5  C   UNL     1      33.082  -5.140  32.330  0.00  0.00    +0.000 C 
ATOM      6  C   UNL     1      32.292  -6.159  32.592  0.00  0.00    +0.000 C 
ATOM      7  C   UNL     1      31.765  -7.075  31.580  0.00  0.00    +0.000 C 
ATOM      8  C   UNL     1      30.261  -6.804  31.449  0.00  0.00    +0.000 C 
ATOM      9  C   UNL     1      31.959  -8.492  32.094  0.00  0.00    +0.000 C 
ATOM     10  C   UNL     1      32.360  -6.906  30.208  0.00  0.00    +0.000 C 
ENDBRANCH   1   5
BRANCH   1  11
ATOM     11  N   UNL     1      33.537  -2.925  33.150  0.00  0.00    +0.000 NA
ATOM     12  C   UNL     1      33.884  -1.985  34.157  0.00  0.00    +0.000 C 
ATOM     13  O   UNL     1      34.213  -2.433  35.282  0.00  0.00    +0.000 OA
BRANCH  12  14
ATOM     14  C   UNL     1      33.851  -0.557  33.867  0.00  0.00    +0.000 A 
ATOM     15  C   UNL     1      33.471   0.369  34.822  0.00  0.00    +0.000 A 
ATOM     16  C   UNL     1      33.440   1.725  34.546  0.00  0.00    +0.000 A 
ATOM     17  C   UNL     1      33.785   2.224  33.308  0.00  0.00    +0.000 A 
ATOM     18  F   UNL     1      33.754   3.563  33.038  0.00  0.00    +0.000 F 
ATOM     19  C   UNL     1      34.165   1.303  32.353  0.00  0.00    +0.000 A 
ATOM     20  C   UNL     1      34.194  -0.048  32.632  0.00  0.00    +0.000 A 
ENDBRANCH  12  14
ENDBRANCH   1  11
TORSDOF 3
ENDMDL
MODEL 7
REMARK VINA RESULT:      -6.5     16.844     19.500
REMARK  Name = 
REMARK  3 active torsions:
REMARK  status: ('A' for Active; 'I' for Inactive)
REMARK    1  A    between atoms: C_4  and  N_5
REMARK    2  A    between atoms: N_5  and  N_6
REMARK    3  A    between atoms: C_7  and  C_9
REMARK                            x       y       z     vdW  Elec       q    Type
REMARK                         _______ _______ _______ _____ _____    ______ ____
ROOT
ATOM      1  N   UNL     1      33.287   0.117  33.455  0.00  0.00    +0.000 NA
ENDROOT
BRANCH   1   5
ATOM      2  C   UNL     1      36.042  -2.082  36.717  0.00  0.00    +0.000 C 
ATOM      3  C   UNL     1      34.507  -1.969  36.129  0.00  0.00    +0.000 C 
ATOM      4  C   UNL     1      35.010  -1.168  34.764  0.00  0.00    +0.000 C 
ATOM      5  C   UNL     1      33.732  -1.092  34.020  0.00  0.00    +0.000 C 
ATOM      6  C   UNL     1      33.021  -2.193  33.903  0.00  0.00    +0.000 C 
ATOM      7  C   UNL     1      33.408  -3.489  34.459  0.00  0.00    +0.000 C 
ATOM      8  C   UNL     1      33.782  -4.403  33.286  0.00  0.00    +0.000 C 
ATOM      9  C   UNL     1      32.194  -4.073  35.161  0.00  0.00    +0.000 C 
ATOM     10  C   UNL     1      34.601  -3.447  35.376  0.00  0.00    +0.000 C 
ENDBRANCH   1   5
BRANCH   1  11
ATOM     11  N   UNL     1      33.375   1.278  34.227  0.00  0.00    +0.000 NA
ATOM     12  C   UNL     1      33.660   2.555  33.673  0.00  0.00    +0.000 C 
ATOM     13  O   UNL     1      33.839   2.624  32.433  0.00  0.00    +0.000 OA
BRANCH  12  14
ATOM     14  C   UNL     1      33.737   3.725  34.538  0.00  0.00    +0.000 A 
ATOM     15  C   UNL     1      33.336   4.976  34.103  0.00  0.00    +0.000 A 
ATOM     16  C   UNL     1      33.408   6.087  34.925  0.00  0.00    +0.000 A 
ATOM     17  C   UNL     1      33.883   6.008  36.217  0.00  0.00    +0.000 A 
ATOM     18  F   UNL     1      33.953   7.106  37.026  0.00  0.00    +0.000 F 
ATOM     19  C   UNL     1      34.283   4.762  36.654  0.00  0.00    +0.000 A 
ATOM     20  C   UNL     1      34.210   3.656  35.831  0.00  0.00    +0.000 A 
ENDBRANCH  12  14
ENDBRANCH   1  11
TORSDOF 3
ENDMDL
MODEL 8
REMARK VINA RESULT:      -6.4     22.046     23.323
REMARK  Name = 
REMARK  3 active torsions:
REMARK  status: ('A' for Active; 'I' for Inactive)
REMARK    1  A    between atoms: C_4  and  N_5
REMARK    2  A    between atoms: N_5  and  N_6
REMARK    3  A    between atoms: C_7  and  C_9
REMARK                            x       y       z     vdW  Elec       q    Type
REMARK                         _______ _______ _______ _____ _____    ______ ____
ROOT
ATOM      1  N   UNL     1      29.504  25.037  20.556  0.00  0.00    +0.000 NA
ENDROOT
BRANCH   1   5
ATOM      2  C   UNL     1      30.221  28.765  17.614  0.00  0.00    +0.000 C 
ATOM      3  C   UNL     1      29.131  28.059  18.627  0.00  0.00    +0.000 C 
ATOM      4  C   UNL     1      30.285  27.076  19.305  0.00  0.00    +0.000 C 
ATOM      5  C   UNL     1      29.486  26.432  20.372  0.00  0.00    +0.000 C 
ATOM      6  C   UNL     1      28.753  27.204  21.145  0.00  0.00    +0.000 C 
ATOM      7  C   UNL     1      28.676  28.660  21.023  0.00  0.00    +0.000 C 
ATOM      8  C   UNL     1      29.397  29.266  22.233  0.00  0.00    +0.000 C 
ATOM      9  C   UNL     1      27.210  29.053  21.084  0.00  0.00    +0.000 C 
ATOM     10  C   UNL     1      29.341  29.222  19.794  0.00  0.00    +0.000 C 
ENDBRANCH   1   5
BRANCH   1  11
ATOM     11  N   UNL     1      29.621  24.545  21.857  0.00  0.00    +0.000 NA
ATOM     12  C   UNL     1      28.638  23.717  22.462  0.00  0.00    +0.000 C 
ATOM     13  O   UNL     1      27.625  23.426  21.781  0.00  0.00    +0.000 OA
BRANCH  12  14
ATOM     14  C   UNL     1      28.824  23.237  23.826  0.00  0.00    +0.000 A 
ATOM     15  C   UNL     1      27.772  23.176  24.723  0.00  0.00    +0.000 A 
ATOM     16  C   UNL     1      27.950  22.720  26.017  0.00  0.00    +0.000 A 
ATOM     17  C   UNL     1      29.180  22.305  26.481  0.00  0.00    +0.000 A 
ATOM     18  F   UNL     1      29.353  21.854  27.759  0.00  0.00    +0.000 F 
ATOM     19  C   UNL     1      30.230  22.364  25.588  0.00  0.00    +0.000 A 
ATOM     20  C   UNL     1      30.050  22.820  24.298  0.00  0.00    +0.000 A 
ENDBRANCH  12  14
ENDBRANCH   1  11
TORSDOF 3
ENDMDL
MODEL 9
REMARK VINA RESULT:      -6.2     18.894     20.509
REMARK  Name = 
REMARK  3 active torsions:
REMARK  status: ('A' for Active; 'I' for Inactive)
REMARK    1  A    between atoms: C_4  and  N_5
REMARK    2  A    between atoms: N_5  and  N_6
REMARK    3  A    between atoms: C_7  and  C_9
REMARK                            x       y       z     vdW  Elec       q    Type
REMARK                         _______ _______ _______ _____ _____    ______ ____
ROOT
ATOM      1  N   UNL     1      30.289  22.356  24.559  0.00  0.00    +0.000 NA
ENDROOT
BRANCH   1   5
ATOM      2  C   UNL     1      29.215  25.408  21.009  0.00  0.00    +0.000 C 
ATOM      3  C   UNL     1      28.669  24.104  21.855  0.00  0.00    +0.000 C 
ATOM      4  C   UNL     1      29.802  24.311  23.050  0.00  0.00    +0.000 C 
ATOM      5  C   UNL     1      29.369  23.266  24.005  0.00  0.00    +0.000 C 
ATOM      6  C   UNL     1      28.093  23.211  24.321  0.00  0.00    +0.000 C 
ATOM      7  C   UNL     1      27.072  24.115  23.793  0.00  0.00    +0.000 C 
ATOM      8  C   UNL     1      26.629  25.034  24.938  0.00  0.00    +0.000 C 
ATOM      9  C   UNL     1      25.885  23.271  23.361  0.00  0.00    +0.000 C 
ATOM     10  C   UNL     1      27.542  25.007  22.675  0.00  0.00    +0.000 C 
ENDBRANCH   1   5
BRANCH   1  11
ATOM     11  N   UNL     1      30.261  22.147  25.939  0.00  0.00    +0.000 NA
ATOM     12  C   UNL     1      31.126  22.824  26.841  0.00  0.00    +0.000 C 
ATOM     13  O   UNL     1      31.945  23.642  26.357  0.00  0.00    +0.000 OA
BRANCH  12  14
ATOM     14  C   UNL     1      31.043  22.557  28.271  0.00  0.00    +0.000 A 
ATOM     15  C   UNL     1      29.945  22.946  29.019  0.00  0.00    +0.000 A 
ATOM     16  C   UNL     1      29.867  22.692  30.377  0.00  0.00    +0.000 A 
ATOM     17  C   UNL     1      30.875  22.042  31.056  0.00  0.00    +0.000 A 
ATOM     18  F   UNL     1      30.794  21.792  32.396  0.00  0.00    +0.000 F 
ATOM     19  C   UNL     1      31.970  21.652  30.313  0.00  0.00    +0.000 A 
ATOM     20  C   UNL     1      32.045  21.907  28.959  0.00  0.00    +0.000 A 
ENDBRANCH  12  14
ENDBRANCH   1  11
TORSDOF 3
ENDMDL
MODEL 10
REMARK VINA RESULT:      -6.2     19.930     22.409
REMARK  Name = 
REMARK  3 active torsions:
REMARK  status: ('A' for Active; 'I' for Inactive)
REMARK    1  A    between atoms: C_4  and  N_5
REMARK    2  A    between atoms: N_5  and  N_6
REMARK    3  A    between atoms: C_7  and  C_9
REMARK                            x       y       z     vdW  Elec       q    Type
REMARK                         _______ _______ _______ _____ _____    ______ ____
ROOT
ATOM      1  N   UNL     1      33.435  -4.183  34.702  0.00  0.00    +0.000 NA
ENDROOT
BRANCH   1   5
ATOM      2  C   UNL     1      35.882  -0.824  37.109  0.00  0.00    +0.000 C 
ATOM      3  C   UNL     1      35.496  -1.367  35.602  0.00  0.00    +0.000 C 
ATOM      4  C   UNL     1      34.270  -2.326  36.180  0.00  0.00    +0.000 C 
ATOM      5  C   UNL     1      33.698  -2.815  34.906  0.00  0.00    +0.000 C 
ATOM      6  C   UNL     1      33.444  -1.932  33.965  0.00  0.00    +0.000 C 
ATOM      7  C   UNL     1      33.688  -0.496  34.093  0.00  0.00    +0.000 C 
ATOM      8  C   UNL     1      32.324   0.200  34.183  0.00  0.00    +0.000 C 
ATOM      9  C   UNL     1      34.387  -0.030  32.828  0.00  0.00    +0.000 C 
ATOM     10  C   UNL     1      34.461  -0.098  35.322  0.00  0.00    +0.000 C 
ENDBRANCH   1   5
BRANCH   1  11
ATOM     11  N   UNL     1      33.402  -4.660  33.391  0.00  0.00    +0.000 NA
ATOM     12  C   UNL     1      34.456  -5.422  32.818  0.00  0.00    +0.000 C 
ATOM     13  O   UNL     1      35.453  -5.667  33.539  0.00  0.00    +0.000 OA
BRANCH  12  14
ATOM     14  C   UNL     1      34.356  -5.889  31.441  0.00  0.00    +0.000 A 
ATOM     15  C   UNL     1      33.587  -5.223  30.504  0.00  0.00    +0.000 A 
ATOM     16  C   UNL     1      33.493  -5.667  29.196  0.00  0.00    +0.000 A 
ATOM     17  C   UNL     1      34.157  -6.792  28.760  0.00  0.00    +0.000 A 
ATOM     18  F   UNL     1      34.064  -7.228  27.468  0.00  0.00    +0.000 F 
ATOM     19  C   UNL     1      34.926  -7.458  29.692  0.00  0.00    +0.000 A 
ATOM     20  C   UNL     1      35.017  -7.013  30.996  0.00  0.00    +0.000 A 
ENDBRANCH  12  14
ENDBRANCH   1  11
TORSDOF 3
ENDMDL
