MODEL 1
REMARK VINA RESULT:      -8.7      0.000      0.000
REMARK  Name = 
REMARK  6 active torsions:
REMARK  status: ('A' for Active; 'I' for Inactive)
REMARK    1  A    between atoms: C_5  and  N_6
REMARK    2  A    between atoms: C_10  and  N_11
REMARK    3  A    between atoms: C_12  and  C_14
REMARK    4  A    between atoms: C_14  and  O_15
REMARK    5  A    between atoms: O_15  and  C_16
REMARK    6  A    between atoms: C_19  and  C_20
REMARK                            x       y       z     vdW  Elec       q    Type
REMARK                         _______ _______ _______ _____ _____    ______ ____
ROOT
ATOM      1  N   UNL     1      36.835   0.908  16.283  0.00  0.00    +0.000 NA
ATOM      2  C   UNL     1      36.088   1.874  15.563  0.00  0.00    +0.000 C 
ATOM      3  O   UNL     1      35.597   1.491  14.470  0.00  0.00    +0.000 OA
ENDROOT
BRANCH   1   8
ATOM      4  N   UNL     1      36.525  -2.571  15.412  0.00  0.00    +0.000 N 
ATOM      5  N   UNL     1      37.656  -2.253  14.805  0.00  0.00    +0.000 NA
ATOM      6  C   UNL     1      37.985  -0.965  14.993  0.00  0.00    +0.000 A 
ATOM      7  C   UNL     1      39.177  -0.222  14.478  0.00  0.00    +0.000 C 
ATOM      8  C   UNL     1      37.004  -0.406  15.775  0.00  0.00    +0.000 A 
ATOM      9  C   UNL     1      36.113  -1.426  16.018  0.00  0.00    +0.000 A 
ATOM     10  C   UNL     1      34.856  -1.369  16.817  0.00  0.00    +0.000 C 
BRANCH   4  15
ATOM     11  C   UNL     1      33.871  -7.656  15.564  0.00  0.00    +0.000 C 
ATOM     12  C   UNL     1      34.555  -6.317  15.512  0.00  0.00    +0.000 A 
ATOM     13  C   UNL     1      34.094  -5.302  14.701  0.00  0.00    +0.000 A 
ATOM     14  C   UNL     1      34.750  -4.066  14.673  0.00  0.00    +0.000 A 
ATOM     15  C   UNL     1      35.858  -3.830  15.443  0.00  0.00    +0.000 A 
ATOM     16  C   UNL     1      36.318  -4.845  16.253  0.00  0.00    +0.000 A 
ATOM     17  C   UNL     1      35.667  -6.085  16.287  0.00  0.00    +0.000 A 
ENDBRANCH   4  15
ENDBRANCH   1   8
BRANCH   2  18
ATOM     18  C   UNL     1      35.913   3.244  16.093  0.00  0.00    +0.000 C 
BRANCH  18  19
ATOM     19  O   UNL     1      36.927   4.060  15.559  0.00  0.00    +0.000 OA
BRANCH  19  20
ATOM     20  C   UNL     1      37.980   4.604  16.287  0.00  0.00    +0.000 A 
ATOM     21  C   UNL     1      39.019   5.305  15.712  0.00  0.00    +0.000 A 
ATOM     22  C   UNL     1      40.051   5.834  16.465  0.00  0.00    +0.000 A 
ATOM     23  C   UNL     1      40.095   5.686  17.837  0.00  0.00    +0.000 A 
ATOM     24  C   UNL     1      39.052   4.983  18.411  0.00  0.00    +0.000 A 
ATOM     25  C   UNL     1      38.021   4.455  17.660  0.00  0.00    +0.000 A 
BRANCH  23  26
ATOM     26  C   UNL     1      41.182   6.241  18.636  0.00  0.00    +0.000 A 
ATOM     27  C   UNL     1      42.356   6.583  18.000  0.00  0.00    +0.000 A 
ATOM     28  C   UNL     1      43.437   7.113  18.670  0.00  0.00    +0.000 A 
ATOM     29  C   UNL     1      43.368   7.320  20.028  0.00  0.00    +0.000 A 
ATOM     30  C   UNL     1      42.207   6.990  20.693  0.00  0.00    +0.000 A 
ATOM     31  C   UNL     1      41.121   6.453  19.995  0.00  0.00    +0.000 A 
ENDBRANCH  23  26
ENDBRANCH  19  20
ENDBRANCH  18  19
ENDBRANCH   2  18
TORSDOF 6
ENDMDL
MODEL 2
REMARK VINA RESULT:      -8.4      2.295      2.963
REMARK  Name = 
REMARK  6 active torsions:
REMARK  status: ('A' for Active; 'I' for Inactive)
REMARK    1  A    between atoms: C_5  and  N_6
REMARK    2  A    between atoms: C_10  and  N_11
REMARK    3  A    between atoms: C_12  and  C_14
REMARK    4  A    between atoms: C_14  and  O_15
REMARK    5  A    between atoms: O_15  and  C_16
REMARK    6  A    between atoms: C_19  and  C_20
REMARK                            x       y       z     vdW  Elec       q    Type
REMARK                         _______ _______ _______ _____ _____    ______ ____
ROOT
ATOM      1  N   UNL     1      37.512   0.796  16.062  0.00  0.00    +0.000 NA
ATOM      2  C   UNL     1      36.888   1.978  15.591  0.00  0.00    +0.000 C 
ATOM      3  O   UNL     1      35.630   1.992  15.628  0.00  0.00    +0.000 OA
ENDROOT
BRANCH   1   8
ATOM      4  N   UNL     1      35.716  -2.293  16.493  0.00  0.00    +0.000 N 
ATOM      5  N   UNL     1      35.513  -1.712  17.663  0.00  0.00    +0.000 NA
ATOM      6  C   UNL     1      36.107  -0.510  17.739  0.00  0.00    +0.000 A 
ATOM      7  C   UNL     1      36.116   0.455  18.882  0.00  0.00    +0.000 C 
ATOM      8  C   UNL     1      36.739  -0.294  16.539  0.00  0.00    +0.000 A 
ATOM      9  C   UNL     1      36.479  -1.417  15.788  0.00  0.00    +0.000 A 
ATOM     10  C   UNL     1      36.929  -1.710  14.398  0.00  0.00    +0.000 C 
BRANCH   4  15
ATOM     11  C   UNL     1      33.878  -7.421  14.688  0.00  0.00    +0.000 C 
ATOM     12  C   UNL     1      34.345  -6.069  15.154  0.00  0.00    +0.000 A 
ATOM     13  C   UNL     1      33.593  -4.933  14.944  0.00  0.00    +0.000 A 
ATOM     14  C   UNL     1      34.052  -3.688  15.390  0.00  0.00    +0.000 A 
ATOM     15  C   UNL     1      35.250  -3.562  16.041  0.00  0.00    +0.000 A 
ATOM     16  C   UNL     1      36.001  -4.698  16.251  0.00  0.00    +0.000 A 
ATOM     17  C   UNL     1      35.549  -5.948  15.808  0.00  0.00    +0.000 A 
ENDBRANCH   4  15
ENDBRANCH   1   8
BRANCH   2  18
ATOM     18  C   UNL     1      37.695   3.113  15.093  0.00  0.00    +0.000 C 
BRANCH  18  19
ATOM     19  O   UNL     1      38.613   3.479  16.095  0.00  0.00    +0.000 OA
BRANCH  19  20
ATOM     20  C   UNL     1      38.563   4.659  16.829  0.00  0.00    +0.000 A 
ATOM     21  C   UNL     1      38.891   4.736  18.167  0.00  0.00    +0.000 A 
ATOM     22  C   UNL     1      38.832   5.926  18.869  0.00  0.00    +0.000 A 
ATOM     23  C   UNL     1      38.439   7.103  18.264  0.00  0.00    +0.000 A 
ATOM     24  C   UNL     1      38.111   7.023  16.923  0.00  0.00    +0.000 A 
ATOM     25  C   UNL     1      38.170   5.836  16.222  0.00  0.00    +0.000 A 
BRANCH  23  26
ATOM     26  C   UNL     1      38.374   8.361  19.000  0.00  0.00    +0.000 A 
ATOM     27  C   UNL     1      38.820   8.382  20.304  0.00  0.00    +0.000 A 
ATOM     28  C   UNL     1      38.798   9.521  21.079  0.00  0.00    +0.000 A 
ATOM     29  C   UNL     1      38.316  10.698  20.554  0.00  0.00    +0.000 A 
ATOM     30  C   UNL     1      37.864  10.710  19.252  0.00  0.00    +0.000 A 
ATOM     31  C   UNL     1      37.895   9.543  18.483  0.00  0.00    +0.000 A 
ENDBRANCH  23  26
ENDBRANCH  19  20
ENDBRANCH  18  19
ENDBRANCH   2  18
TORSDOF 6
ENDMDL
MODEL 3
REMARK VINA RESULT:      -8.4      2.948      5.381
REMARK  Name = 
REMARK  6 active torsions:
REMARK  status: ('A' for Active; 'I' for Inactive)
REMARK    1  A    between atoms: C_5  and  N_6
REMARK    2  A    between atoms: C_10  and  N_11
REMARK    3  A    between atoms: C_12  and  C_14
REMARK    4  A    between atoms: C_14  and  O_15
REMARK    5  A    between atoms: O_15  and  C_16
REMARK    6  A    between atoms: C_19  and  C_20
REMARK                            x       y       z     vdW  Elec       q    Type
REMARK                         _______ _______ _______ _____ _____    ______ ____
ROOT
ATOM      1  N   UNL     1      37.947  -0.503  16.056  0.00  0.00    +0.000 NA
ATOM      2  C   UNL     1      36.895  -0.311  15.126  0.00  0.00    +0.000 C 
ATOM      3  O   UNL     1      36.946  -1.010  14.081  0.00  0.00    +0.000 OA
ENDROOT
BRANCH   1   8
ATOM      4  N   UNL     1      40.886  -2.233  14.907  0.00  0.00    +0.000 N 
ATOM      5  N   UNL     1      40.337  -3.149  15.686  0.00  0.00    +0.000 NA
ATOM      6  C   UNL     1      39.194  -2.717  16.243  0.00  0.00    +0.000 A 
ATOM      7  C   UNL     1      38.279  -3.445  17.176  0.00  0.00    +0.000 C 
ATOM      8  C   UNL     1      38.985  -1.436  15.798  0.00  0.00    +0.000 A 
ATOM      9  C   UNL     1      40.051  -1.163  14.971  0.00  0.00    +0.000 A 
ATOM     10  C   UNL     1      40.325   0.095  14.220  0.00  0.00    +0.000 C 
BRANCH   4  15
ATOM     11  C   UNL     1      45.761  -2.554  11.896  0.00  0.00    +0.000 C 
ATOM     12  C   UNL     1      44.475  -2.479  12.672  0.00  0.00    +0.000 A 
ATOM     13  C   UNL     1      43.310  -3.041  12.196  0.00  0.00    +0.000 A 
ATOM     14  C   UNL     1      42.127  -2.956  12.939  0.00  0.00    +0.000 A 
ATOM     15  C   UNL     1      42.092  -2.318  14.151  0.00  0.00    +0.000 A 
ATOM     16  C   UNL     1      43.257  -1.757  14.627  0.00  0.00    +0.000 A 
ATOM     17  C   UNL     1      44.445  -1.838  13.889  0.00  0.00    +0.000 A 
ENDBRANCH   4  15
ENDBRANCH   1   8
BRANCH   2  18
ATOM     18  C   UNL     1      35.814   0.662  15.396  0.00  0.00    +0.000 C 
BRANCH  18  19
ATOM     19  O   UNL     1      36.228   1.925  14.937  0.00  0.00    +0.000 OA
BRANCH  19  20
ATOM     20  C   UNL     1      37.048   2.801  15.642  0.00  0.00    +0.000 A 
ATOM     21  C   UNL     1      36.832   3.149  16.959  0.00  0.00    +0.000 A 
ATOM     22  C   UNL     1      37.667   4.023  17.631  0.00  0.00    +0.000 A 
ATOM     23  C   UNL     1      38.763   4.594  17.015  0.00  0.00    +0.000 A 
ATOM     24  C   UNL     1      38.977   4.242  15.696  0.00  0.00    +0.000 A 
ATOM     25  C   UNL     1      38.145   3.370  15.024  0.00  0.00    +0.000 A 
BRANCH  23  26
ATOM     26  C   UNL     1      39.646   5.516  17.720  0.00  0.00    +0.000 A 
ATOM     27  C   UNL     1      39.389   5.789  19.047  0.00  0.00    +0.000 A 
ATOM     28  C   UNL     1      40.166   6.646  19.794  0.00  0.00    +0.000 A 
ATOM     29  C   UNL     1      41.248   7.270  19.218  0.00  0.00    +0.000 A 
ATOM     30  C   UNL     1      41.533   7.018  17.894  0.00  0.00    +0.000 A 
ATOM     31  C   UNL     1      40.732   6.144  17.152  0.00  0.00    +0.000 A 
ENDBRANCH  23  26
ENDBRANCH  19  20
ENDBRANCH  18  19
ENDBRANCH   2  18
TORSDOF 6
ENDMDL
MODEL 4
REMARK VINA RESULT:      -8.3      1.631      3.095
REMARK  Name = 
REMARK  6 active torsions:
REMARK  status: ('A' for Active; 'I' for Inactive)
REMARK    1  A    between atoms: C_5  and  N_6
REMARK    2  A    between atoms: C_10  and  N_11
REMARK    3  A    between atoms: C_12  and  C_14
REMARK    4  A    between atoms: C_14  and  O_15
REMARK    5  A    between atoms: O_15  and  C_16
REMARK    6  A    between atoms: C_19  and  C_20
REMARK                            x       y       z     vdW  Elec       q    Type
REMARK                         _______ _______ _______ _____ _____    ______ ____
ROOT
ATOM      1  N   UNL     1      37.648   2.931  14.863  0.00  0.00    +0.000 NA
ATOM      2  C   UNL     1      38.271   3.738  15.848  0.00  0.00    +0.000 C 
ATOM      3  O   UNL     1      38.039   3.429  17.045  0.00  0.00    +0.000 OA
ENDROOT
BRANCH   1   8
ATOM      4  N   UNL     1      36.253  -0.282  15.691  0.00  0.00    +0.000 N 
ATOM      5  N   UNL     1      35.199   0.503  15.840  0.00  0.00    +0.000 NA
ATOM      6  C   UNL     1      35.486   1.788  15.578  0.00  0.00    +0.000 A 
ATOM      7  C   UNL     1      34.578   2.975  15.630  0.00  0.00    +0.000 C 
ATOM      8  C   UNL     1      36.814   1.845  15.235  0.00  0.00    +0.000 A 
ATOM      9  C   UNL     1      37.263   0.546  15.314  0.00  0.00    +0.000 A 
ATOM     10  C   UNL     1      38.638   0.037  15.045  0.00  0.00    +0.000 C 
BRANCH   4  15
ATOM     11  C   UNL     1      36.629  -5.953  16.481  0.00  0.00    +0.000 C 
ATOM     12  C   UNL     1      36.524  -4.469  16.257  0.00  0.00    +0.000 A 
ATOM     13  C   UNL     1      36.057  -3.949  15.069  0.00  0.00    +0.000 A 
ATOM     14  C   UNL     1      35.969  -2.564  14.888  0.00  0.00    +0.000 A 
ATOM     15  C   UNL     1      36.342  -1.692  15.877  0.00  0.00    +0.000 A 
ATOM     16  C   UNL     1      36.808  -2.213  17.064  0.00  0.00    +0.000 A 
ATOM     17  C   UNL     1      36.899  -3.598  17.253  0.00  0.00    +0.000 A 
ENDBRANCH   4  15
ENDBRANCH   1   8
BRANCH   2  18
ATOM     18  C   UNL     1      39.140   4.871  15.460  0.00  0.00    +0.000 C 
BRANCH  18  19
ATOM     19  O   UNL     1      39.034   5.870  16.445  0.00  0.00    +0.000 OA
BRANCH  19  20
ATOM     20  C   UNL     1      39.971   6.107  17.445  0.00  0.00    +0.000 A 
ATOM     21  C   UNL     1      41.298   6.384  17.193  0.00  0.00    +0.000 A 
ATOM     22  C   UNL     1      42.205   6.615  18.212  0.00  0.00    +0.000 A 
ATOM     23  C   UNL     1      41.825   6.580  19.539  0.00  0.00    +0.000 A 
ATOM     24  C   UNL     1      40.494   6.302  19.788  0.00  0.00    +0.000 A 
ATOM     25  C   UNL     1      39.589   6.072  18.773  0.00  0.00    +0.000 A 
BRANCH  23  26
ATOM     26  C   UNL     1      42.778   6.823  20.616  0.00  0.00    +0.000 A 
ATOM     27  C   UNL     1      43.274   8.098  20.781  0.00  0.00    +0.000 A 
ATOM     28  C   UNL     1      44.177   8.423  21.769  0.00  0.00    +0.000 A 
ATOM     29  C   UNL     1      44.619   7.455  22.640  0.00  0.00    +0.000 A 
ATOM     30  C   UNL     1      44.142   6.170  22.503  0.00  0.00    +0.000 A 
ATOM     31  C   UNL     1      43.225   5.860  21.493  0.00  0.00    +0.000 A 
ENDBRANCH  23  26
ENDBRANCH  19  20
ENDBRANCH  18  19
ENDBRANCH   2  18
TORSDOF 6
ENDMDL
MODEL 5
REMARK VINA RESULT:      -8.0      3.560      9.620
REMARK  Name = 
REMARK  6 active torsions:
REMARK  status: ('A' for Active; 'I' for Inactive)
REMARK    1  A    between atoms: C_5  and  N_6
REMARK    2  A    between atoms: C_10  and  N_11
REMARK    3  A    between atoms: C_12  and  C_14
REMARK    4  A    between atoms: C_14  and  O_15
REMARK    5  A    between atoms: O_15  and  C_16
REMARK    6  A    between atoms: C_19  and  C_20
REMARK                            x       y       z     vdW  Elec       q    Type
REMARK                         _______ _______ _______ _____ _____    ______ ____
ROOT
ATOM      1  N   UNL     1      36.765   6.100  15.054  0.00  0.00    +0.000 NA
ATOM      2  C   UNL     1      37.047   5.345  13.887  0.00  0.00    +0.000 C 
ATOM      3  O   UNL     1      38.249   5.331  13.515  0.00  0.00    +0.000 OA
ENDROOT
BRANCH   1   8
ATOM      4  N   UNL     1      39.474   7.097  17.203  0.00  0.00    +0.000 N 
ATOM      5  N   UNL     1      39.258   8.212  16.527  0.00  0.00    +0.000 NA
ATOM      6  C   UNL     1      38.261   8.078  15.638  0.00  0.00    +0.000 A 
ATOM      7  C   UNL     1      37.714   9.097  14.690  0.00  0.00    +0.000 C 
ATOM      8  C   UNL     1      37.797   6.790  15.741  0.00  0.00    +0.000 A 
ATOM      9  C   UNL     1      38.569   6.206  16.719  0.00  0.00    +0.000 A 
ATOM     10  C   UNL     1      38.490   4.808  17.231  0.00  0.00    +0.000 C 
BRANCH   4  15
ATOM     11  C   UNL     1      43.393   6.108  21.277  0.00  0.00    +0.000 C 
ATOM     12  C   UNL     1      42.352   6.365  20.221  0.00  0.00    +0.000 A 
ATOM     13  C   UNL     1      41.009   6.405  20.526  0.00  0.00    +0.000 A 
ATOM     14  C   UNL     1      40.063   6.648  19.524  0.00  0.00    +0.000 A 
ATOM     15  C   UNL     1      40.440   6.850  18.222  0.00  0.00    +0.000 A 
ATOM     16  C   UNL     1      41.783   6.811  17.919  0.00  0.00    +0.000 A 
ATOM     17  C   UNL     1      42.736   6.569  18.916  0.00  0.00    +0.000 A 
ENDBRANCH   4  15
ENDBRANCH   1   8
BRANCH   2  18
ATOM     18  C   UNL     1      35.970   4.627  13.172  0.00  0.00    +0.000 C 
BRANCH  18  19
ATOM     19  O   UNL     1      35.209   3.913  14.116  0.00  0.00    +0.000 OA
BRANCH  19  20
ATOM     20  C   UNL     1      35.658   2.810  14.833  0.00  0.00    +0.000 A 
ATOM     21  C   UNL     1      36.289   1.730  14.251  0.00  0.00    +0.000 A 
ATOM     22  C   UNL     1      36.725   0.648  14.993  0.00  0.00    +0.000 A 
ATOM     23  C   UNL     1      36.549   0.592  16.361  0.00  0.00    +0.000 A 
ATOM     24  C   UNL     1      35.916   1.676  16.942  0.00  0.00    +0.000 A 
ATOM     25  C   UNL     1      35.482   2.756  16.203  0.00  0.00    +0.000 A 
BRANCH  23  26
ATOM     26  C   UNL     1      37.006  -0.548  17.149  0.00  0.00    +0.000 A 
ATOM     27  C   UNL     1      36.617  -0.633  18.469  0.00  0.00    +0.000 A 
ATOM     28  C   UNL     1      36.998  -1.671  19.290  0.00  0.00    +0.000 A 
ATOM     29  C   UNL     1      37.800  -2.675  18.800  0.00  0.00    +0.000 A 
ATOM     30  C   UNL     1      38.206  -2.619  17.484  0.00  0.00    +0.000 A 
ATOM     31  C   UNL     1      37.807  -1.557  16.666  0.00  0.00    +0.000 A 
ENDBRANCH  23  26
ENDBRANCH  19  20
ENDBRANCH  18  19
ENDBRANCH   2  18
TORSDOF 6
ENDMDL
MODEL 6
REMARK VINA RESULT:      -7.9      1.503      2.143
REMARK  Name = 
REMARK  6 active torsions:
REMARK  status: ('A' for Active; 'I' for Inactive)
REMARK    1  A    between atoms: C_5  and  N_6
REMARK    2  A    between atoms: C_10  and  N_11
REMARK    3  A    between atoms: C_12  and  C_14
REMARK    4  A    between atoms: C_14  and  O_15
REMARK    5  A    between atoms: O_15  and  C_16
REMARK    6  A    between atoms: C_19  and  C_20
REMARK                            x       y       z     vdW  Elec       q    Type
REMARK                         _______ _______ _______ _____ _____    ______ ____
ROOT
ATOM      1  N   UNL     1      36.957   1.924  13.992  0.00  0.00    +0.000 NA
ATOM      2  C   UNL     1      37.927   2.728  14.641  0.00  0.00    +0.000 C 
ATOM      3  O   UNL     1      38.970   2.136  15.023  0.00  0.00    +0.000 OA
ENDROOT
BRANCH   1   8
ATOM      4  N   UNL     1      37.068  -1.665  14.234  0.00  0.00    +0.000 N 
ATOM      5  N   UNL     1      37.740  -1.462  13.114  0.00  0.00    +0.000 NA
ATOM      6  C   UNL     1      37.832  -0.157  12.810  0.00  0.00    +0.000 A 
ATOM      7  C   UNL     1      38.505   0.482  11.637  0.00  0.00    +0.000 C 
ATOM      8  C   UNL     1      37.176   0.535  13.797  0.00  0.00    +0.000 A 
ATOM      9  C   UNL     1      36.713  -0.427  14.666  0.00  0.00    +0.000 A 
ATOM     10  C   UNL     1      35.928  -0.226  15.917  0.00  0.00    +0.000 C 
BRANCH   4  15
ATOM     11  C   UNL     1      35.808  -6.646  16.790  0.00  0.00    +0.000 C 
ATOM     12  C   UNL     1      36.154  -5.340  16.129  0.00  0.00    +0.000 A 
ATOM     13  C   UNL     1      37.332  -4.680  16.406  0.00  0.00    +0.000 A 
ATOM     14  C   UNL     1      37.628  -3.466  15.776  0.00  0.00    +0.000 A 
ATOM     15  C   UNL     1      36.764  -2.902  14.874  0.00  0.00    +0.000 A 
ATOM     16  C   UNL     1      35.587  -3.562  14.598  0.00  0.00    +0.000 A 
ATOM     17  C   UNL     1      35.284  -4.778  15.224  0.00  0.00    +0.000 A 
ENDBRANCH   4  15
ENDBRANCH   1   8
BRANCH   2  18
ATOM     18  C   UNL     1      37.698   4.175  14.844  0.00  0.00    +0.000 C 
BRANCH  18  19
ATOM     19  O   UNL     1      37.643   4.426  16.227  0.00  0.00    +0.000 OA
BRANCH  19  20
ATOM     20  C   UNL     1      38.668   4.997  16.976  0.00  0.00    +0.000 A 
ATOM     21  C   UNL     1      38.630   5.114  18.350  0.00  0.00    +0.000 A 
ATOM     22  C   UNL     1      39.667   5.687  19.065  0.00  0.00    +0.000 A 
ATOM     23  C   UNL     1      40.796   6.173  18.437  0.00  0.00    +0.000 A 
ATOM     24  C   UNL     1      40.831   6.053  17.060  0.00  0.00    +0.000 A 
ATOM     25  C   UNL     1      39.797   5.482  16.345  0.00  0.00    +0.000 A 
BRANCH  23  26
ATOM     26  C   UNL     1      41.891   6.778  19.186  0.00  0.00    +0.000 A 
ATOM     27  C   UNL     1      42.693   7.701  18.549  0.00  0.00    +0.000 A 
ATOM     28  C   UNL     1      43.750   8.324  19.174  0.00  0.00    +0.000 A 
ATOM     29  C   UNL     1      44.041   8.032  20.486  0.00  0.00    +0.000 A 
ATOM     30  C   UNL     1      43.258   7.114  21.152  0.00  0.00    +0.000 A 
ATOM     31  C   UNL     1      42.188   6.492  20.499  0.00  0.00    +0.000 A 
ENDBRANCH  23  26
ENDBRANCH  19  20
ENDBRANCH  18  19
ENDBRANCH   2  18
TORSDOF 6
ENDMDL
MODEL 7
REMARK VINA RESULT:      -7.8      3.524      9.205
REMARK  Name = 
REMARK  6 active torsions:
REMARK  status: ('A' for Active; 'I' for Inactive)
REMARK    1  A    between atoms: C_5  and  N_6
REMARK    2  A    between atoms: C_10  and  N_11
REMARK    3  A    between atoms: C_12  and  C_14
REMARK    4  A    between atoms: C_14  and  O_15
REMARK    5  A    between atoms: O_15  and  C_16
REMARK    6  A    between atoms: C_19  and  C_20
REMARK                            x       y       z     vdW  Elec       q    Type
REMARK                         _______ _______ _______ _____ _____    ______ ____
ROOT
ATOM      1  N   UNL     1      36.914   4.442  13.375  0.00  0.00    +0.000 NA
ATOM      2  C   UNL     1      37.672   3.948  12.284  0.00  0.00    +0.000 C 
ATOM      3  O   UNL     1      38.832   4.419  12.159  0.00  0.00    +0.000 OA
ENDROOT
BRANCH   1   8
ATOM      4  N   UNL     1      38.643   6.214  15.988  0.00  0.00    +0.000 N 
ATOM      5  N   UNL     1      38.057   7.210  15.346  0.00  0.00    +0.000 NA
ATOM      6  C   UNL     1      37.333   6.779  14.300  0.00  0.00    +0.000 A 
ATOM      7  C   UNL     1      36.525   7.583  13.331  0.00  0.00    +0.000 C 
ATOM      8  C   UNL     1      37.456   5.413  14.257  0.00  0.00    +0.000 A 
ATOM      9  C   UNL     1      38.275   5.091  15.316  0.00  0.00    +0.000 A 
ATOM     10  C   UNL     1      38.738   3.738  15.733  0.00  0.00    +0.000 C 
BRANCH   4  15
ATOM     11  C   UNL     1      42.067   6.453  20.586  0.00  0.00    +0.000 C 
ATOM     12  C   UNL     1      41.155   6.388  19.392  0.00  0.00    +0.000 A 
ATOM     13  C   UNL     1      39.791   6.249  19.531  0.00  0.00    +0.000 A 
ATOM     14  C   UNL     1      38.966   6.192  18.402  0.00  0.00    +0.000 A 
ATOM     15  C   UNL     1      39.485   6.272  17.137  0.00  0.00    +0.000 A 
ATOM     16  C   UNL     1      40.848   6.412  16.998  0.00  0.00    +0.000 A 
ATOM     17  C   UNL     1      41.681   6.470  18.123  0.00  0.00    +0.000 A 
ENDBRANCH   4  15
ENDBRANCH   1   8
BRANCH   2  18
ATOM     18  C   UNL     1      37.105   2.937  11.365  0.00  0.00    +0.000 C 
BRANCH  18  19
ATOM     19  O   UNL     1      37.695   1.693  11.655  0.00  0.00    +0.000 OA
BRANCH  19  20
ATOM     20  C   UNL     1      37.669   1.068  12.897  0.00  0.00    +0.000 A 
ATOM     21  C   UNL     1      38.802   0.639  13.556  0.00  0.00    +0.000 A 
ATOM     22  C   UNL     1      38.741   0.020  14.792  0.00  0.00    +0.000 A 
ATOM     23  C   UNL     1      37.537  -0.201  15.431  0.00  0.00    +0.000 A 
ATOM     24  C   UNL     1      36.404   0.230  14.768  0.00  0.00    +0.000 A 
ATOM     25  C   UNL     1      36.463   0.848  13.535  0.00  0.00    +0.000 A 
BRANCH  23  26
ATOM     26  C   UNL     1      37.468  -0.853  16.734  0.00  0.00    +0.000 A 
ATOM     27  C   UNL     1      38.371  -1.857  17.015  0.00  0.00    +0.000 A 
ATOM     28  C   UNL     1      38.382  -2.530  18.217  0.00  0.00    +0.000 A 
ATOM     29  C   UNL     1      37.467  -2.210  19.192  0.00  0.00    +0.000 A 
ATOM     30  C   UNL     1      36.551  -1.211  18.942  0.00  0.00    +0.000 A 
ATOM     31  C   UNL     1      36.556  -0.539  17.715  0.00  0.00    +0.000 A 
ENDBRANCH  23  26
ENDBRANCH  19  20
ENDBRANCH  18  19
ENDBRANCH   2  18
TORSDOF 6
ENDMDL
MODEL 8
REMARK VINA RESULT:      -7.7      2.318      4.591
REMARK  Name = 
REMARK  6 active torsions:
REMARK  status: ('A' for Active; 'I' for Inactive)
REMARK    1  A    between atoms: C_5  and  N_6
REMARK    2  A    between atoms: C_10  and  N_11
REMARK    3  A    between atoms: C_12  and  C_14
REMARK    4  A    between atoms: C_14  and  O_15
REMARK    5  A    between atoms: O_15  and  C_16
REMARK    6  A    between atoms: C_19  and  C_20
REMARK                            x       y       z     vdW  Elec       q    Type
REMARK                         _______ _______ _______ _____ _____    ______ ____
ROOT
ATOM      1  N   UNL     1      37.050   1.056  14.868  0.00  0.00    +0.000 NA
ATOM      2  C   UNL     1      36.678   1.426  16.185  0.00  0.00    +0.000 C 
ATOM      3  O   UNL     1      37.032   0.639  17.102  0.00  0.00    +0.000 OA
ENDROOT
BRANCH   1   8
ATOM      4  N   UNL     1      39.541  -1.428  14.106  0.00  0.00    +0.000 N 
ATOM      5  N   UNL     1      38.487  -2.187  14.351  0.00  0.00    +0.000 NA
ATOM      6  C   UNL     1      37.404  -1.460  14.668  0.00  0.00    +0.000 A 
ATOM      7  C   UNL     1      36.028  -1.937  15.009  0.00  0.00    +0.000 C 
ATOM      8  C   UNL     1      37.776  -0.139  14.627  0.00  0.00    +0.000 A 
ATOM      9  C   UNL     1      39.107  -0.151  14.276  0.00  0.00    +0.000 A 
ATOM     10  C   UNL     1      40.012   1.018  14.089  0.00  0.00    +0.000 C 
BRANCH   4  15
ATOM     11  C   UNL     1      44.862  -3.030  12.676  0.00  0.00    +0.000 C 
ATOM     12  C   UNL     1      43.461  -2.617  13.035  0.00  0.00    +0.000 A 
ATOM     13  C   UNL     1      42.394  -2.885  12.205  0.00  0.00    +0.000 A 
ATOM     14  C   UNL     1      41.100  -2.490  12.565  0.00  0.00    +0.000 A 
ATOM     15  C   UNL     1      40.859  -1.830  13.741  0.00  0.00    +0.000 A 
ATOM     16  C   UNL     1      41.926  -1.563  14.570  0.00  0.00    +0.000 A 
ATOM     17  C   UNL     1      43.224  -1.956  14.217  0.00  0.00    +0.000 A 
ENDBRANCH   4  15
ENDBRANCH   1   8
BRANCH   2  18
ATOM     18  C   UNL     1      35.920   2.671  16.437  0.00  0.00    +0.000 C 
BRANCH  18  19
ATOM     19  O   UNL     1      36.651   3.750  15.905  0.00  0.00    +0.000 OA
BRANCH  19  20
ATOM     20  C   UNL     1      37.751   4.345  16.513  0.00  0.00    +0.000 A 
ATOM     21  C   UNL     1      37.930   4.393  17.880  0.00  0.00    +0.000 A 
ATOM     22  C   UNL     1      39.037   4.992  18.453  0.00  0.00    +0.000 A 
ATOM     23  C   UNL     1      40.023   5.576  17.683  0.00  0.00    +0.000 A 
ATOM     24  C   UNL     1      39.841   5.525  16.313  0.00  0.00    +0.000 A 
ATOM     25  C   UNL     1      38.737   4.927  15.740  0.00  0.00    +0.000 A 
BRANCH  23  26
ATOM     26  C   UNL     1      41.192   6.209  18.283  0.00  0.00    +0.000 A 
ATOM     27  C   UNL     1      42.248   6.551  17.464  0.00  0.00    +0.000 A 
ATOM     28  C   UNL     1      43.393   7.152  17.939  0.00  0.00    +0.000 A 
ATOM     29  C   UNL     1      43.514   7.433  19.280  0.00  0.00    +0.000 A 
ATOM     30  C   UNL     1      42.476   7.105  20.125  0.00  0.00    +0.000 A 
ATOM     31  C   UNL     1      41.322   6.496  19.623  0.00  0.00    +0.000 A 
ENDBRANCH  23  26
ENDBRANCH  19  20
ENDBRANCH  18  19
ENDBRANCH   2  18
TORSDOF 6
ENDMDL
MODEL 9
REMARK VINA RESULT:      -7.6      4.294      8.841
REMARK  Name = 
REMARK  6 active torsions:
REMARK  status: ('A' for Active; 'I' for Inactive)
REMARK    1  A    between atoms: C_5  and  N_6
REMARK    2  A    between atoms: C_10  and  N_11
REMARK    3  A    between atoms: C_12  and  C_14
REMARK    4  A    between atoms: C_14  and  O_15
REMARK    5  A    between atoms: O_15  and  C_16
REMARK    6  A    between atoms: C_19  and  C_20
REMARK                            x       y       z     vdW  Elec       q    Type
REMARK                         _______ _______ _______ _____ _____    ______ ____
ROOT
ATOM      1  N   UNL     1      37.012  -1.696  16.712  0.00  0.00    +0.000 NA
ATOM      2  C   UNL     1      38.144  -2.159  17.428  0.00  0.00    +0.000 C 
ATOM      3  O   UNL     1      38.682  -1.330  18.208  0.00  0.00    +0.000 OA
ENDROOT
BRANCH   1   8
ATOM      4  N   UNL     1      36.183   1.791  16.380  0.00  0.00    +0.000 N 
ATOM      5  N   UNL     1      35.633   1.506  17.548  0.00  0.00    +0.000 NA
ATOM      6  C   UNL     1      35.818   0.221  17.893  0.00  0.00    +0.000 A 
ATOM      7  C   UNL     1      35.357  -0.490  19.125  0.00  0.00    +0.000 C 
ATOM      8  C   UNL     1      36.536  -0.370  16.882  0.00  0.00    +0.000 A 
ATOM      9  C   UNL     1      36.747   0.628  15.959  0.00  0.00    +0.000 A 
ATOM     10  C   UNL     1      37.474   0.533  14.661  0.00  0.00    +0.000 C 
BRANCH   4  15
ATOM     11  C   UNL     1      36.283   6.815  13.610  0.00  0.00    +0.000 C 
ATOM     12  C   UNL     1      36.240   5.495  14.329  0.00  0.00    +0.000 A 
ATOM     13  C   UNL     1      35.159   4.647  14.219  0.00  0.00    +0.000 A 
ATOM     14  C   UNL     1      35.147   3.424  14.899  0.00  0.00    +0.000 A 
ATOM     15  C   UNL     1      36.198   3.037  15.688  0.00  0.00    +0.000 A 
ATOM     16  C   UNL     1      37.278   3.884  15.797  0.00  0.00    +0.000 A 
ATOM     17  C   UNL     1      37.299   5.110  15.119  0.00  0.00    +0.000 A 
ENDBRANCH   4  15
ENDBRANCH   1   8
BRANCH   2  18
ATOM     18  C   UNL     1      38.640  -3.541  17.250  0.00  0.00    +0.000 C 
BRANCH  18  19
ATOM     19  O   UNL     1      39.783  -3.500  16.431  0.00  0.00    +0.000 OA
BRANCH  19  20
ATOM     20  C   UNL     1      39.839  -2.922  15.167  0.00  0.00    +0.000 A 
ATOM     21  C   UNL     1      40.807  -2.015  14.788  0.00  0.00    +0.000 A 
ATOM     22  C   UNL     1      40.834  -1.459  13.522  0.00  0.00    +0.000 A 
ATOM     23  C   UNL     1      39.890  -1.785  12.569  0.00  0.00    +0.000 A 
ATOM     24  C   UNL     1      38.922  -2.694  12.952  0.00  0.00    +0.000 A 
ATOM     25  C   UNL     1      38.893  -3.250  14.215  0.00  0.00    +0.000 A 
BRANCH  23  26
ATOM     26  C   UNL     1      39.914  -1.201  11.233  0.00  0.00    +0.000 A 
ATOM     27  C   UNL     1      40.466  -1.934  10.204  0.00  0.00    +0.000 A 
ATOM     28  C   UNL     1      40.534  -1.466   8.911  0.00  0.00    +0.000 A 
ATOM     29  C   UNL     1      40.040  -0.220   8.605  0.00  0.00    +0.000 A 
ATOM     30  C   UNL     1      39.481   0.539   9.611  0.00  0.00    +0.000 A 
ATOM     31  C   UNL     1      39.421   0.045  10.918  0.00  0.00    +0.000 A 
ENDBRANCH  23  26
ENDBRANCH  19  20
ENDBRANCH  18  19
ENDBRANCH   2  18
TORSDOF 6
ENDMDL
MODEL 10
REMARK VINA RESULT:      -7.6      6.315     11.286
REMARK  Name = 
REMARK  6 active torsions:
REMARK  status: ('A' for Active; 'I' for Inactive)
REMARK    1  A    between atoms: C_5  and  N_6
REMARK    2  A    between atoms: C_10  and  N_11
REMARK    3  A    between atoms: C_12  and  C_14
REMARK    4  A    between atoms: C_14  and  O_15
REMARK    5  A    between atoms: O_15  and  C_16
REMARK    6  A    between atoms: C_19  and  C_20
REMARK                            x       y       z     vdW  Elec       q    Type
REMARK                         _______ _______ _______ _____ _____    ______ ____
ROOT
ATOM      1  N   UNL     1      36.663   5.775  13.104  0.00  0.00    +0.000 NA
ATOM      2  C   UNL     1      35.327   6.246  13.089  0.00  0.00    +0.000 C 
ATOM      3  O   UNL     1      34.702   6.173  14.179  0.00  0.00    +0.000 OA
ENDROOT
BRANCH   1   8
ATOM      4  N   UNL     1      38.472   5.236  16.169  0.00  0.00    +0.000 N 
ATOM      5  N   UNL     1      37.886   4.062  16.006  0.00  0.00    +0.000 NA
ATOM      6  C   UNL     1      37.135   4.024  14.894  0.00  0.00    +0.000 A 
ATOM      7  C   UNL     1      36.319   2.889  14.359  0.00  0.00    +0.000 C 
ATOM      8  C   UNL     1      37.237   5.253  14.293  0.00  0.00    +0.000 A 
ATOM      9  C   UNL     1      38.072   5.984  15.107  0.00  0.00    +0.000 A 
ATOM     10  C   UNL     1      38.523   7.393  14.924  0.00  0.00    +0.000 C 
BRANCH   4  15
ATOM     11  C   UNL     1      41.994   6.933  20.370  0.00  0.00    +0.000 C 
ATOM     12  C   UNL     1      41.057   6.486  19.281  0.00  0.00    +0.000 A 
ATOM     13  C   UNL     1      39.743   6.166  19.545  0.00  0.00    +0.000 A 
ATOM     14  C   UNL     1      38.894   5.754  18.512  0.00  0.00    +0.000 A 
ATOM     15  C   UNL     1      39.339   5.657  17.220  0.00  0.00    +0.000 A 
ATOM     16  C   UNL     1      40.652   5.978  16.957  0.00  0.00    +0.000 A 
ATOM     17  C   UNL     1      41.509   6.391  17.985  0.00  0.00    +0.000 A 
ENDBRANCH   4  15
ENDBRANCH   1   8
BRANCH   2  18
ATOM     18  C   UNL     1      34.729   6.789  11.849  0.00  0.00    +0.000 C 
BRANCH  18  19
ATOM     19  O   UNL     1      35.706   6.760  10.836  0.00  0.00    +0.000 OA
BRANCH  19  20
ATOM     20  C   UNL     1      35.626   6.001   9.674  0.00  0.00    +0.000 A 
ATOM     21  C   UNL     1      35.001   6.436   8.524  0.00  0.00    +0.000 A 
ATOM     22  C   UNL     1      34.940   5.656   7.383  0.00  0.00    +0.000 A 
ATOM     23  C   UNL     1      35.504   4.397   7.337  0.00  0.00    +0.000 A 
ATOM     24  C   UNL     1      36.130   3.964   8.491  0.00  0.00    +0.000 A 
ATOM     25  C   UNL     1      36.192   4.741   9.630  0.00  0.00    +0.000 A 
BRANCH  23  26
ATOM     26  C   UNL     1      35.442   3.571   6.137  0.00  0.00    +0.000 A 
ATOM     27  C   UNL     1      34.833   4.088   5.013  0.00  0.00    +0.000 A 
ATOM     28  C   UNL     1      34.725   3.384   3.835  0.00  0.00    +0.000 A 
ATOM     29  C   UNL     1      35.237   2.110   3.748  0.00  0.00    +0.000 A 
ATOM     30  C   UNL     1      35.853   1.564   4.853  0.00  0.00    +0.000 A 
ATOM     31  C   UNL     1      35.952   2.296   6.040  0.00  0.00    +0.000 A 
ENDBRANCH  23  26
ENDBRANCH  19  20
ENDBRANCH  18  19
ENDBRANCH   2  18
TORSDOF 6
ENDMDL
