MODEL 1
REMARK VINA RESULT:      -8.0      0.000      0.000
REMARK  Name = 
REMARK  8 active torsions:
REMARK  status: ('A' for Active; 'I' for Inactive)
REMARK    1  A    between atoms: C_2  and  C_3
REMARK    2  A    between atoms: C_3  and  C_4
REMARK    3  A    between atoms: C_4  and  C_5
REMARK    4  A    between atoms: C_5  and  N_6
REMARK    5  A    between atoms: C_7  and  C_9
REMARK    6  A    between atoms: N_12  and  C_13
REMARK    7  A    between atoms: C_13  and  C_14
REMARK    8  A    between atoms: C_14  and  C_15
REMARK                            x       y       z     vdW  Elec       q    Type
REMARK                         _______ _______ _______ _____ _____    ______ ____
ROOT
ATOM      1  C   UNL     1      37.271   2.181  15.627  0.00  0.00    +0.000 A 
ATOM      2  C   UNL     1      36.149   1.482  16.009  0.00  0.00    +0.000 A 
ATOM      3  N   UNL     1      34.961   2.112  16.472  0.00  0.00    +0.000 NA
ATOM      4  N   UNL     1      36.382   0.157  15.868  0.00  0.00    +0.000 N 
ATOM      5  C   UNL     1      37.632  -0.056  15.400  0.00  0.00    +0.000 A 
ATOM      6  N   UNL     1      38.324  -1.169  15.097  0.00  0.00    +0.000 NA
ATOM      7  C   UNL     1      39.585  -1.082  14.636  0.00  0.00    +0.000 A 
ATOM      8  C   UNL     1      40.300  -2.246  14.322  0.00  0.00    +0.000 A 
ATOM      9  C   UNL     1      41.591  -2.146  13.851  0.00  0.00    +0.000 A 
ATOM     10  C   UNL     1      42.144  -0.890  13.701  0.00  0.00    +0.000 A 
ATOM     11  C   UNL     1      41.440   0.255  14.011  0.00  0.00    +0.000 A 
ATOM     12  C   UNL     1      40.135   0.174  14.488  0.00  0.00    +0.000 A 
ATOM     13  N   UNL     1      39.440   1.288  14.792  0.00  0.00    +0.000 NA
ATOM     14  C   UNL     1      38.179   1.212  15.253  0.00  0.00    +0.000 A 
ENDROOT
BRANCH   1  16
ATOM     15  N   UNL     1      38.149   4.290  16.658  0.00  0.00    +0.000 NA
ATOM     16  C   UNL     1      37.446   3.625  15.624  0.00  0.00    +0.000 C 
ATOM     17  O   UNL     1      36.966   4.299  14.688  0.00  0.00    +0.000 OA
BRANCH  15  18
ATOM     18  C   UNL     1      38.329   5.730  16.662  0.00  0.00    +0.000 C 
BRANCH  18  19
ATOM     19  C   UNL     1      38.409   6.216  18.093  0.00  0.00    +0.000 C 
BRANCH  19  20
ATOM     20  C   UNL     1      39.455   5.408  18.827  0.00  0.00    +0.000 C 
BRANCH  20  22
ATOM     21  C   UNL     1      39.330   7.383  20.287  0.00  0.00    +0.000 C 
ATOM     22  C   UNL     1      40.267   6.345  19.681  0.00  0.00    +0.000 C 
ENDBRANCH  20  22
ENDBRANCH  19  20
ENDBRANCH  18  19
ENDBRANCH  15  18
ENDBRANCH   1  16
BRANCH   4  23
ATOM     23  C   UNL     1      35.375  -0.818  16.190  0.00  0.00    +0.000 C 
BRANCH  23  24
ATOM     24  C   UNL     1      35.576  -1.264  17.617  0.00  0.00    +0.000 C 
BRANCH  24  25
ATOM     25  C   UNL     1      36.564  -2.363  17.641  0.00  0.00    +0.000 A 
ATOM     26  C   UNL     1      36.402  -3.472  16.859  0.00  0.00    +0.000 A 
ATOM     27  C   UNL     1      37.356  -4.476  16.915  0.00  0.00    +0.000 A 
ATOM     28  C   UNL     1      38.464  -4.399  17.731  0.00  0.00    +0.000 A 
ATOM     29  C   UNL     1      38.616  -3.275  18.515  0.00  0.00    +0.000 A 
ATOM     30  C   UNL     1      37.671  -2.258  18.471  0.00  0.00    +0.000 A 
ATOM     31  F   UNL     1      37.795  -1.151  19.226  0.00  0.00    +0.000 F 
ENDBRANCH  24  25
ENDBRANCH  23  24
ENDBRANCH   4  23
TORSDOF 8
ENDMDL
MODEL 2
REMARK VINA RESULT:      -7.3      2.358      6.391
REMARK  Name = 
REMARK  8 active torsions:
REMARK  status: ('A' for Active; 'I' for Inactive)
REMARK    1  A    between atoms: C_2  and  C_3
REMARK    2  A    between atoms: C_3  and  C_4
REMARK    3  A    between atoms: C_4  and  C_5
REMARK    4  A    between atoms: C_5  and  N_6
REMARK    5  A    between atoms: C_7  and  C_9
REMARK    6  A    between atoms: N_12  and  C_13
REMARK    7  A    between atoms: C_13  and  C_14
REMARK    8  A    between atoms: C_14  and  C_15
REMARK                            x       y       z     vdW  Elec       q    Type
REMARK                         _______ _______ _______ _____ _____    ______ ____
ROOT
ATOM      1  C   UNL     1      36.738   2.204  16.104  0.00  0.00    +0.000 A 
ATOM      2  C   UNL     1      36.859   2.012  14.747  0.00  0.00    +0.000 A 
ATOM      3  N   UNL     1      36.112   1.036  14.031  0.00  0.00    +0.000 NA
ATOM      4  N   UNL     1      37.772   2.880  14.254  0.00  0.00    +0.000 N 
ATOM      5  C   UNL     1      38.270   3.653  15.245  0.00  0.00    +0.000 A 
ATOM      6  N   UNL     1      39.180   4.644  15.268  0.00  0.00    +0.000 NA
ATOM      7  C   UNL     1      39.489   5.255  16.426  0.00  0.00    +0.000 A 
ATOM      8  C   UNL     1      40.439   6.286  16.445  0.00  0.00    +0.000 A 
ATOM      9  C   UNL     1      40.748   6.906  17.636  0.00  0.00    +0.000 A 
ATOM     10  C   UNL     1      40.107   6.488  18.784  0.00  0.00    +0.000 A 
ATOM     11  C   UNL     1      39.174   5.472  18.766  0.00  0.00    +0.000 A 
ATOM     12  C   UNL     1      38.848   4.834  17.573  0.00  0.00    +0.000 A 
ATOM     13  N   UNL     1      37.937   3.842  17.547  0.00  0.00    +0.000 NA
ATOM     14  C   UNL     1      37.620   3.225  16.394  0.00  0.00    +0.000 A 
ENDROOT
BRANCH   1  16
ATOM     15  N   UNL     1      36.387   0.601  17.998  0.00  0.00    +0.000 NA
ATOM     16  C   UNL     1      35.868   1.482  17.018  0.00  0.00    +0.000 C 
ATOM     17  O   UNL     1      34.630   1.640  16.941  0.00  0.00    +0.000 OA
BRANCH  15  18
ATOM     18  C   UNL     1      35.525  -0.123  18.914  0.00  0.00    +0.000 C 
BRANCH  18  19
ATOM     19  C   UNL     1      36.280  -1.309  19.473  0.00  0.00    +0.000 C 
BRANCH  19  20
ATOM     20  C   UNL     1      37.665  -1.338  18.868  0.00  0.00    +0.000 C 
BRANCH  20  22
ATOM     21  C   UNL     1      38.830  -2.992  17.469  0.00  0.00    +0.000 C 
ATOM     22  C   UNL     1      38.127  -2.769  18.803  0.00  0.00    +0.000 C 
ENDBRANCH  20  22
ENDBRANCH  19  20
ENDBRANCH  18  19
ENDBRANCH  15  18
ENDBRANCH   1  16
BRANCH   4  23
ATOM     23  C   UNL     1      38.098   2.908  12.854  0.00  0.00    +0.000 C 
BRANCH  23  24
ATOM     24  C   UNL     1      39.522   2.440  12.683  0.00  0.00    +0.000 C 
BRANCH  24  25
ATOM     25  C   UNL     1      39.611   1.019  13.078  0.00  0.00    +0.000 A 
ATOM     26  C   UNL     1      40.197   0.652  14.257  0.00  0.00    +0.000 A 
ATOM     27  C   UNL     1      40.256  -0.693  14.585  0.00  0.00    +0.000 A 
ATOM     28  C   UNL     1      39.746  -1.678  13.767  0.00  0.00    +0.000 A 
ATOM     29  C   UNL     1      39.156  -1.295  12.580  0.00  0.00    +0.000 A 
ATOM     30  C   UNL     1      39.088   0.049  12.235  0.00  0.00    +0.000 A 
ATOM     31  F   UNL     1      38.518   0.450  11.084  0.00  0.00    +0.000 F 
ENDBRANCH  24  25
ENDBRANCH  23  24
ENDBRANCH   4  23
TORSDOF 8
ENDMDL
MODEL 3
REMARK VINA RESULT:      -7.3      1.548      2.286
REMARK  Name = 
REMARK  8 active torsions:
REMARK  status: ('A' for Active; 'I' for Inactive)
REMARK    1  A    between atoms: C_2  and  C_3
REMARK    2  A    between atoms: C_3  and  C_4
REMARK    3  A    between atoms: C_4  and  C_5
REMARK    4  A    between atoms: C_5  and  N_6
REMARK    5  A    between atoms: C_7  and  C_9
REMARK    6  A    between atoms: N_12  and  C_13
REMARK    7  A    between atoms: C_13  and  C_14
REMARK    8  A    between atoms: C_14  and  C_15
REMARK                            x       y       z     vdW  Elec       q    Type
REMARK                         _______ _______ _______ _____ _____    ______ ____
ROOT
ATOM      1  C   UNL     1      38.383   1.320  14.733  0.00  0.00    +0.000 A 
ATOM      2  C   UNL     1      37.281   0.496  14.755  0.00  0.00    +0.000 A 
ATOM      3  N   UNL     1      35.968   0.963  15.039  0.00  0.00    +0.000 NA
ATOM      4  N   UNL     1      37.666  -0.769  14.471  0.00  0.00    +0.000 N 
ATOM      5  C   UNL     1      39.001  -0.819  14.258  0.00  0.00    +0.000 A 
ATOM      6  N   UNL     1      39.845  -1.820  13.949  0.00  0.00    +0.000 NA
ATOM      7  C   UNL     1      41.158  -1.575  13.790  0.00  0.00    +0.000 A 
ATOM      8  C   UNL     1      42.033  -2.622  13.468  0.00  0.00    +0.000 A 
ATOM      9  C   UNL     1      43.377  -2.361  13.307  0.00  0.00    +0.000 A 
ATOM     10  C   UNL     1      43.822  -1.066  13.469  0.00  0.00    +0.000 A 
ATOM     11  C   UNL     1      42.961  -0.036  13.787  0.00  0.00    +0.000 A 
ATOM     12  C   UNL     1      41.601  -0.279  13.953  0.00  0.00    +0.000 A 
ATOM     13  N   UNL     1      40.753   0.721  14.263  0.00  0.00    +0.000 NA
ATOM     14  C   UNL     1      39.438   0.488  14.424  0.00  0.00    +0.000 A 
ENDROOT
BRANCH   1  16
ATOM     15  N   UNL     1      38.339   3.278  16.297  0.00  0.00    +0.000 NA
ATOM     16  C   UNL     1      38.412   2.753  14.984  0.00  0.00    +0.000 C 
ATOM     17  O   UNL     1      38.503   3.543  14.020  0.00  0.00    +0.000 OA
BRANCH  15  18
ATOM     18  C   UNL     1      38.368   4.706  16.555  0.00  0.00    +0.000 C 
BRANCH  18  19
ATOM     19  C   UNL     1      38.624   4.939  18.029  0.00  0.00    +0.000 C 
BRANCH  19  20
ATOM     20  C   UNL     1      39.322   6.268  18.202  0.00  0.00    +0.000 C 
BRANCH  20  22
ATOM     21  C   UNL     1      39.331   7.466  20.349  0.00  0.00    +0.000 C 
ATOM     22  C   UNL     1      39.942   6.305  19.573  0.00  0.00    +0.000 C 
ENDBRANCH  20  22
ENDBRANCH  19  20
ENDBRANCH  18  19
ENDBRANCH  15  18
ENDBRANCH   1  16
BRANCH   4  23
ATOM     23  C   UNL     1      36.716  -1.846  14.418  0.00  0.00    +0.000 C 
BRANCH  23  24
ATOM     24  C   UNL     1      36.984  -2.780  15.573  0.00  0.00    +0.000 C 
BRANCH  24  25
ATOM     25  C   UNL     1      36.658  -2.087  16.836  0.00  0.00    +0.000 A 
ATOM     26  C   UNL     1      37.641  -1.741  17.722  0.00  0.00    +0.000 A 
ATOM     27  C   UNL     1      37.286  -1.091  18.893  0.00  0.00    +0.000 A 
ATOM     28  C   UNL     1      35.979  -0.779  19.201  0.00  0.00    +0.000 A 
ATOM     29  C   UNL     1      34.998  -1.133  18.299  0.00  0.00    +0.000 A 
ATOM     30  C   UNL     1      35.334  -1.785  17.120  0.00  0.00    +0.000 A 
ATOM     31  F   UNL     1      34.397  -2.142  16.223  0.00  0.00    +0.000 F 
ENDBRANCH  24  25
ENDBRANCH  23  24
ENDBRANCH   4  23
TORSDOF 8
ENDMDL
MODEL 4
REMARK VINA RESULT:      -7.2      2.173      5.161
REMARK  Name = 
REMARK  8 active torsions:
REMARK  status: ('A' for Active; 'I' for Inactive)
REMARK    1  A    between atoms: C_2  and  C_3
REMARK    2  A    between atoms: C_3  and  C_4
REMARK    3  A    between atoms: C_4  and  C_5
REMARK    4  A    between atoms: C_5  and  N_6
REMARK    5  A    between atoms: C_7  and  C_9
REMARK    6  A    between atoms: N_12  and  C_13
REMARK    7  A    between atoms: C_13  and  C_14
REMARK    8  A    between atoms: C_14  and  C_15
REMARK                            x       y       z     vdW  Elec       q    Type
REMARK                         _______ _______ _______ _____ _____    ______ ____
ROOT
ATOM      1  C   UNL     1      38.260   2.121  15.014  0.00  0.00    +0.000 A 
ATOM      2  C   UNL     1      39.211   1.571  14.186  0.00  0.00    +0.000 A 
ATOM      3  N   UNL     1      40.262   2.329  13.599  0.00  0.00    +0.000 NA
ATOM      4  N   UNL     1      38.966   0.248  14.044  0.00  0.00    +0.000 N 
ATOM      5  C   UNL     1      37.874  -0.108  14.757  0.00  0.00    +0.000 A 
ATOM      6  N   UNL     1      37.238  -1.280  14.942  0.00  0.00    +0.000 NA
ATOM      7  C   UNL     1      36.147  -1.345  15.726  0.00  0.00    +0.000 A 
ATOM      8  C   UNL     1      35.490  -2.568  15.914  0.00  0.00    +0.000 A 
ATOM      9  C   UNL     1      34.373  -2.624  16.720  0.00  0.00    +0.000 A 
ATOM     10  C   UNL     1      33.934  -1.463  17.322  0.00  0.00    +0.000 A 
ATOM     11  C   UNL     1      34.581  -0.259  17.136  0.00  0.00    +0.000 A 
ATOM     12  C   UNL     1      35.710  -0.182  16.327  0.00  0.00    +0.000 A 
ATOM     13  N   UNL     1      36.348   0.990  16.140  0.00  0.00    +0.000 NA
ATOM     14  C   UNL     1      37.441   1.066  15.358  0.00  0.00    +0.000 A 
ENDROOT
BRANCH   1  16
ATOM     15  N   UNL     1      38.679   3.962  16.663  0.00  0.00    +0.000 NA
ATOM     16  C   UNL     1      38.154   3.512  15.427  0.00  0.00    +0.000 C 
ATOM     17  O   UNL     1      37.587   4.333  14.675  0.00  0.00    +0.000 OA
BRANCH  15  18
ATOM     18  C   UNL     1      38.578   5.348  17.081  0.00  0.00    +0.000 C 
BRANCH  18  19
ATOM     19  C   UNL     1      39.082   5.475  18.503  0.00  0.00    +0.000 C 
BRANCH  19  20
ATOM     20  C   UNL     1      38.739   6.853  19.023  0.00  0.00    +0.000 C 
BRANCH  20  22
ATOM     21  C   UNL     1      40.882   6.197  20.036  0.00  0.00    +0.000 C 
ATOM     22  C   UNL     1      39.785   7.255  20.028  0.00  0.00    +0.000 C 
ENDBRANCH  20  22
ENDBRANCH  19  20
ENDBRANCH  18  19
ENDBRANCH  15  18
ENDBRANCH   1  16
BRANCH   4  23
ATOM     23  C   UNL     1      39.810  -0.586  13.233  0.00  0.00    +0.000 C 
BRANCH  23  24
ATOM     24  C   UNL     1      40.556  -1.537  14.136  0.00  0.00    +0.000 C 
BRANCH  24  25
ATOM     25  C   UNL     1      42.008  -1.354  13.930  0.00  0.00    +0.000 A 
ATOM     26  C   UNL     1      42.629  -0.194  14.299  0.00  0.00    +0.000 A 
ATOM     27  C   UNL     1      43.994  -0.069  14.087  0.00  0.00    +0.000 A 
ATOM     28  C   UNL     1      44.749  -1.071  13.517  0.00  0.00    +0.000 A 
ATOM     29  C   UNL     1      44.110  -2.236  13.149  0.00  0.00    +0.000 A 
ATOM     30  C   UNL     1      42.744  -2.379  13.355  0.00  0.00    +0.000 A 
ATOM     31  F   UNL     1      42.096  -3.506  13.006  0.00  0.00    +0.000 F 
ENDBRANCH  24  25
ENDBRANCH  23  24
ENDBRANCH   4  23
TORSDOF 8
ENDMDL
MODEL 5
REMARK VINA RESULT:      -7.2      2.933      5.717
REMARK  Name = 
REMARK  8 active torsions:
REMARK  status: ('A' for Active; 'I' for Inactive)
REMARK    1  A    between atoms: C_2  and  C_3
REMARK    2  A    between atoms: C_3  and  C_4
REMARK    3  A    between atoms: C_4  and  C_5
REMARK    4  A    between atoms: C_5  and  N_6
REMARK    5  A    between atoms: C_7  and  C_9
REMARK    6  A    between atoms: N_12  and  C_13
REMARK    7  A    between atoms: C_13  and  C_14
REMARK    8  A    between atoms: C_14  and  C_15
REMARK                            x       y       z     vdW  Elec       q    Type
REMARK                         _______ _______ _______ _____ _____    ______ ____
ROOT
ATOM      1  C   UNL     1      38.090   2.372  15.028  0.00  0.00    +0.000 A 
ATOM      2  C   UNL     1      39.029   1.986  14.099  0.00  0.00    +0.000 A 
ATOM      3  N   UNL     1      39.991   2.879  13.550  0.00  0.00    +0.000 NA
ATOM      4  N   UNL     1      38.870   0.671  13.825  0.00  0.00    +0.000 N 
ATOM      5  C   UNL     1      37.846   0.160  14.546  0.00  0.00    +0.000 A 
ATOM      6  N   UNL     1      37.306  -1.069  14.630  0.00  0.00    +0.000 NA
ATOM      7  C   UNL     1      36.267  -1.300  15.454  0.00  0.00    +0.000 A 
ATOM      8  C   UNL     1      35.708  -2.582  15.537  0.00  0.00    +0.000 A 
ATOM      9  C   UNL     1      34.645  -2.808  16.385  0.00  0.00    +0.000 A 
ATOM     10  C   UNL     1      34.160  -1.754  17.132  0.00  0.00    +0.000 A 
ATOM     11  C   UNL     1      34.711  -0.491  17.049  0.00  0.00    +0.000 A 
ATOM     12  C   UNL     1      35.785  -0.244  16.199  0.00  0.00    +0.000 A 
ATOM     13  N   UNL     1      36.328   0.986  16.113  0.00  0.00    +0.000 NA
ATOM     14  C   UNL     1      37.367   1.227  15.293  0.00  0.00    +0.000 A 
ENDROOT
BRANCH   1  16
ATOM     15  N   UNL     1      38.664   4.135  16.714  0.00  0.00    +0.000 NA
ATOM     16  C   UNL     1      37.912   3.698  15.597  0.00  0.00    +0.000 C 
ATOM     17  O   UNL     1      37.075   4.475  15.089  0.00  0.00    +0.000 OA
BRANCH  15  18
ATOM     18  C   UNL     1      38.491   5.458  17.286  0.00  0.00    +0.000 C 
BRANCH  18  19
ATOM     19  C   UNL     1      39.037   5.463  18.698  0.00  0.00    +0.000 C 
BRANCH  19  20
ATOM     20  C   UNL     1      40.394   6.130  18.696  0.00  0.00    +0.000 C 
BRANCH  20  22
ATOM     21  C   UNL     1      39.295   7.498  20.419  0.00  0.00    +0.000 C 
ATOM     22  C   UNL     1      40.595   6.804  20.028  0.00  0.00    +0.000 C 
ENDBRANCH  20  22
ENDBRANCH  19  20
ENDBRANCH  18  19
ENDBRANCH  15  18
ENDBRANCH   1  16
BRANCH   4  23
ATOM     23  C   UNL     1      39.723  -0.006  12.887  0.00  0.00    +0.000 C 
BRANCH  23  24
ATOM     24  C   UNL     1      38.875  -0.514  11.746  0.00  0.00    +0.000 C 
BRANCH  24  25
ATOM     25  C   UNL     1      38.634   0.592  10.797  0.00  0.00    +0.000 A 
ATOM     26  C   UNL     1      39.648   1.093  10.030  0.00  0.00    +0.000 A 
ATOM     27  C   UNL     1      39.373   2.132   9.153  0.00  0.00    +0.000 A 
ATOM     28  C   UNL     1      38.115   2.679   9.026  0.00  0.00    +0.000 A 
ATOM     29  C   UNL     1      37.101   2.164   9.805  0.00  0.00    +0.000 A 
ATOM     30  C   UNL     1      37.358   1.124  10.689  0.00  0.00    +0.000 A 
ATOM     31  F   UNL     1      36.387   0.603  11.461  0.00  0.00    +0.000 F 
ENDBRANCH  24  25
ENDBRANCH  23  24
ENDBRANCH   4  23
TORSDOF 8
ENDMDL
MODEL 6
REMARK VINA RESULT:      -7.1      2.255      4.957
REMARK  Name = 
REMARK  8 active torsions:
REMARK  status: ('A' for Active; 'I' for Inactive)
REMARK    1  A    between atoms: C_2  and  C_3
REMARK    2  A    between atoms: C_3  and  C_4
REMARK    3  A    between atoms: C_4  and  C_5
REMARK    4  A    between atoms: C_5  and  N_6
REMARK    5  A    between atoms: C_7  and  C_9
REMARK    6  A    between atoms: N_12  and  C_13
REMARK    7  A    between atoms: C_13  and  C_14
REMARK    8  A    between atoms: C_14  and  C_15
REMARK                            x       y       z     vdW  Elec       q    Type
REMARK                         _______ _______ _______ _____ _____    ______ ____
ROOT
ATOM      1  C   UNL     1      38.208   2.859  15.409  0.00  0.00    +0.000 A 
ATOM      2  C   UNL     1      39.080   2.565  14.386  0.00  0.00    +0.000 A 
ATOM      3  N   UNL     1      40.023   3.500  13.878  0.00  0.00    +0.000 NA
ATOM      4  N   UNL     1      38.877   1.291  13.980  0.00  0.00    +0.000 N 
ATOM      5  C   UNL     1      37.890   0.717  14.705  0.00  0.00    +0.000 A 
ATOM      6  N   UNL     1      37.331  -0.507  14.689  0.00  0.00    +0.000 NA
ATOM      7  C   UNL     1      36.341  -0.812  15.547  0.00  0.00    +0.000 A 
ATOM      8  C   UNL     1      35.762  -2.088  15.526  0.00  0.00    +0.000 A 
ATOM      9  C   UNL     1      34.749  -2.392  16.410  0.00  0.00    +0.000 A 
ATOM     10  C   UNL     1      34.333  -1.420  17.296  0.00  0.00    +0.000 A 
ATOM     11  C   UNL     1      34.903  -0.164  17.317  0.00  0.00    +0.000 A 
ATOM     12  C   UNL     1      35.927   0.161  16.433  0.00  0.00    +0.000 A 
ATOM     13  N   UNL     1      36.489   1.386  16.446  0.00  0.00    +0.000 NA
ATOM     14  C   UNL     1      37.480   1.702  15.593  0.00  0.00    +0.000 A 
ENDROOT
BRANCH   1  16
ATOM     15  N   UNL     1      38.669   4.297  17.409  0.00  0.00    +0.000 NA
ATOM     16  C   UNL     1      38.092   4.117  16.129  0.00  0.00    +0.000 C 
ATOM     17  O   UNL     1      37.467   5.066  15.608  0.00  0.00    +0.000 OA
BRANCH  15  18
ATOM     18  C   UNL     1      38.558   5.550  18.133  0.00  0.00    +0.000 C 
BRANCH  18  19
ATOM     19  C   UNL     1      39.944   6.102  18.385  0.00  0.00    +0.000 C 
BRANCH  19  20
ATOM     20  C   UNL     1      40.064   6.481  19.844  0.00  0.00    +0.000 C 
BRANCH  20  22
ATOM     21  C   UNL     1      42.317   6.591  18.864  0.00  0.00    +0.000 C 
ATOM     22  C   UNL     1      41.518   6.717  20.156  0.00  0.00    +0.000 C 
ENDBRANCH  20  22
ENDBRANCH  19  20
ENDBRANCH  18  19
ENDBRANCH  15  18
ENDBRANCH   1  16
BRANCH   4  23
ATOM     23  C   UNL     1      39.657   0.710  12.922  0.00  0.00    +0.000 C 
BRANCH  23  24
ATOM     24  C   UNL     1      40.762  -0.114  13.535  0.00  0.00    +0.000 C 
BRANCH  24  25
ATOM     25  C   UNL     1      41.001  -1.302  12.689  0.00  0.00    +0.000 A 
ATOM     26  C   UNL     1      40.155  -1.615  11.663  0.00  0.00    +0.000 A 
ATOM     27  C   UNL     1      40.422  -2.739  10.896  0.00  0.00    +0.000 A 
ATOM     28  C   UNL     1      41.508  -3.554  11.130  0.00  0.00    +0.000 A 
ATOM     29  C   UNL     1      42.354  -3.226  12.168  0.00  0.00    +0.000 A 
ATOM     30  C   UNL     1      42.104  -2.104  12.947  0.00  0.00    +0.000 A 
ATOM     31  F   UNL     1      42.913  -1.761  13.966  0.00  0.00    +0.000 F 
ENDBRANCH  24  25
ENDBRANCH  23  24
ENDBRANCH   4  23
TORSDOF 8
ENDMDL
MODEL 7
REMARK VINA RESULT:      -7.0      3.203      6.362
REMARK  Name = 
REMARK  8 active torsions:
REMARK  status: ('A' for Active; 'I' for Inactive)
REMARK    1  A    between atoms: C_2  and  C_3
REMARK    2  A    between atoms: C_3  and  C_4
REMARK    3  A    between atoms: C_4  and  C_5
REMARK    4  A    between atoms: C_5  and  N_6
REMARK    5  A    between atoms: C_7  and  C_9
REMARK    6  A    between atoms: N_12  and  C_13
REMARK    7  A    between atoms: C_13  and  C_14
REMARK    8  A    between atoms: C_14  and  C_15
REMARK                            x       y       z     vdW  Elec       q    Type
REMARK                         _______ _______ _______ _____ _____    ______ ____
ROOT
ATOM      1  C   UNL     1      37.185   3.329  14.030  0.00  0.00    +0.000 A 
ATOM      2  C   UNL     1      36.202   2.568  14.620  0.00  0.00    +0.000 A 
ATOM      3  N   UNL     1      35.279   1.781  13.878  0.00  0.00    +0.000 NA
ATOM      4  N   UNL     1      36.279   2.706  15.964  0.00  0.00    +0.000 N 
ATOM      5  C   UNL     1      37.290   3.541  16.295  0.00  0.00    +0.000 A 
ATOM      6  N   UNL     1      37.764   3.988  17.472  0.00  0.00    +0.000 NA
ATOM      7  C   UNL     1      38.811   4.833  17.505  0.00  0.00    +0.000 A 
ATOM      8  C   UNL     1      39.301   5.296  18.734  0.00  0.00    +0.000 A 
ATOM      9  C   UNL     1      40.373   6.161  18.758  0.00  0.00    +0.000 A 
ATOM     10  C   UNL     1      40.936   6.548  17.559  0.00  0.00    +0.000 A 
ATOM     11  C   UNL     1      40.453   6.093  16.349  0.00  0.00    +0.000 A 
ATOM     12  C   UNL     1      39.371   5.219  16.305  0.00  0.00    +0.000 A 
ATOM     13  N   UNL     1      38.894   4.770  15.128  0.00  0.00    +0.000 NA
ATOM     14  C   UNL     1      37.848   3.924  15.083  0.00  0.00    +0.000 A 
ENDROOT
BRANCH   1  16
ATOM     15  N   UNL     1      38.157   2.472  11.885  0.00  0.00    +0.000 NA
ATOM     16  C   UNL     1      37.453   3.466  12.607  0.00  0.00    +0.000 C 
ATOM     17  O   UNL     1      37.053   4.484  12.003  0.00  0.00    +0.000 OA
BRANCH  15  18
ATOM     18  C   UNL     1      38.428   2.601  10.465  0.00  0.00    +0.000 C 
BRANCH  18  19
ATOM     19  C   UNL     1      37.935   1.360   9.751  0.00  0.00    +0.000 C 
BRANCH  19  20
ATOM     20  C   UNL     1      36.602   1.663   9.106  0.00  0.00    +0.000 C 
BRANCH  20  22
ATOM     21  C   UNL     1      36.777   0.844   6.794  0.00  0.00    +0.000 C 
ATOM     22  C   UNL     1      36.847   2.082   7.681  0.00  0.00    +0.000 C 
ENDBRANCH  20  22
ENDBRANCH  19  20
ENDBRANCH  18  19
ENDBRANCH  15  18
ENDBRANCH   1  16
BRANCH   4  23
ATOM     23  C   UNL     1      35.372   2.016  16.840  0.00  0.00    +0.000 C 
BRANCH  23  24
ATOM     24  C   UNL     1      36.124   0.903  17.529  0.00  0.00    +0.000 C 
BRANCH  24  25
ATOM     25  C   UNL     1      35.676  -0.392  16.976  0.00  0.00    +0.000 A 
ATOM     26  C   UNL     1      34.574  -1.027  17.478  0.00  0.00    +0.000 A 
ATOM     27  C   UNL     1      34.192  -2.240  16.926  0.00  0.00    +0.000 A 
ATOM     28  C   UNL     1      34.881  -2.832  15.890  0.00  0.00    +0.000 A 
ATOM     29  C   UNL     1      35.990  -2.181  15.393  0.00  0.00    +0.000 A 
ATOM     30  C   UNL     1      36.388  -0.964  15.932  0.00  0.00    +0.000 A 
ATOM     31  F   UNL     1      37.466  -0.308  15.466  0.00  0.00    +0.000 F 
ENDBRANCH  24  25
ENDBRANCH  23  24
ENDBRANCH   4  23
TORSDOF 8
ENDMDL
MODEL 8
REMARK VINA RESULT:      -6.9      2.007      5.003
REMARK  Name = 
REMARK  8 active torsions:
REMARK  status: ('A' for Active; 'I' for Inactive)
REMARK    1  A    between atoms: C_2  and  C_3
REMARK    2  A    between atoms: C_3  and  C_4
REMARK    3  A    between atoms: C_4  and  C_5
REMARK    4  A    between atoms: C_5  and  N_6
REMARK    5  A    between atoms: C_7  and  C_9
REMARK    6  A    between atoms: N_12  and  C_13
REMARK    7  A    between atoms: C_13  and  C_14
REMARK    8  A    between atoms: C_14  and  C_15
REMARK                            x       y       z     vdW  Elec       q    Type
REMARK                         _______ _______ _______ _____ _____    ______ ____
ROOT
ATOM      1  C   UNL     1      37.202   0.181  14.604  0.00  0.00    +0.000 A 
ATOM      2  C   UNL     1      37.616  -0.467  13.462  0.00  0.00    +0.000 A 
ATOM      3  N   UNL     1      37.477   0.088  12.160  0.00  0.00    +0.000 NA
ATOM      4  N   UNL     1      38.147  -1.664  13.799  0.00  0.00    +0.000 N 
ATOM      5  C   UNL     1      38.103  -1.840  15.139  0.00  0.00    +0.000 A 
ATOM      6  N   UNL     1      38.499  -2.839  15.949  0.00  0.00    +0.000 NA
ATOM      7  C   UNL     1      38.329  -2.742  17.280  0.00  0.00    +0.000 A 
ATOM      8  C   UNL     1      38.744  -3.786  18.118  0.00  0.00    +0.000 A 
ATOM      9  C   UNL     1      38.565  -3.678  19.480  0.00  0.00    +0.000 A 
ATOM     10  C   UNL     1      37.979  -2.534  19.980  0.00  0.00    +0.000 A 
ATOM     11  C   UNL     1      37.570  -1.506  19.155  0.00  0.00    +0.000 A 
ATOM     12  C   UNL     1      37.742  -1.597  17.777  0.00  0.00    +0.000 A 
ATOM     13  N   UNL     1      37.346  -0.599  16.964  0.00  0.00    +0.000 NA
ATOM     14  C   UNL     1      37.512  -0.685  15.632  0.00  0.00    +0.000 A 
ENDROOT
BRANCH   1  16
ATOM     15  N   UNL     1      37.343   2.681  14.708  0.00  0.00    +0.000 NA
ATOM     16  C   UNL     1      36.576   1.491  14.690  0.00  0.00    +0.000 C 
ATOM     17  O   UNL     1      35.330   1.573  14.751  0.00  0.00    +0.000 OA
BRANCH  15  18
ATOM     18  C   UNL     1      36.725   3.992  14.793  0.00  0.00    +0.000 C 
BRANCH  18  19
ATOM     19  C   UNL     1      37.716   4.969  15.390  0.00  0.00    +0.000 C 
BRANCH  19  20
ATOM     20  C   UNL     1      38.662   4.216  16.297  0.00  0.00    +0.000 C 
BRANCH  20  22
ATOM     21  C   UNL     1      39.346   5.470  18.299  0.00  0.00    +0.000 C 
ATOM     22  C   UNL     1      38.298   4.523  17.725  0.00  0.00    +0.000 C 
ENDBRANCH  20  22
ENDBRANCH  19  20
ENDBRANCH  18  19
ENDBRANCH  15  18
ENDBRANCH   1  16
BRANCH   4  23
ATOM     23  C   UNL     1      38.670  -2.558  12.802  0.00  0.00    +0.000 C 
BRANCH  23  24
ATOM     24  C   UNL     1      40.147  -2.745  13.050  0.00  0.00    +0.000 C 
BRANCH  24  25
ATOM     25  C   UNL     1      40.843  -1.469  12.783  0.00  0.00    +0.000 A 
ATOM     26  C   UNL     1      40.850  -0.921  11.531  0.00  0.00    +0.000 A 
ATOM     27  C   UNL     1      41.516   0.278  11.329  0.00  0.00    +0.000 A 
ATOM     28  C   UNL     1      42.174   0.939  12.344  0.00  0.00    +0.000 A 
ATOM     29  C   UNL     1      42.159   0.375  13.602  0.00  0.00    +0.000 A 
ATOM     30  C   UNL     1      41.496  -0.825  13.823  0.00  0.00    +0.000 A 
ATOM     31  F   UNL     1      41.467  -1.397  15.041  0.00  0.00    +0.000 F 
ENDBRANCH  24  25
ENDBRANCH  23  24
ENDBRANCH   4  23
TORSDOF 8
ENDMDL
MODEL 9
REMARK VINA RESULT:      -6.8      2.586      5.510
REMARK  Name = 
REMARK  8 active torsions:
REMARK  status: ('A' for Active; 'I' for Inactive)
REMARK    1  A    between atoms: C_2  and  C_3
REMARK    2  A    between atoms: C_3  and  C_4
REMARK    3  A    between atoms: C_4  and  C_5
REMARK    4  A    between atoms: C_5  and  N_6
REMARK    5  A    between atoms: C_7  and  C_9
REMARK    6  A    between atoms: N_12  and  C_13
REMARK    7  A    between atoms: C_13  and  C_14
REMARK    8  A    between atoms: C_14  and  C_15
REMARK                            x       y       z     vdW  Elec       q    Type
REMARK                         _______ _______ _______ _____ _____    ______ ____
ROOT
ATOM      1  C   UNL     1      38.889   1.445  14.641  0.00  0.00    +0.000 A 
ATOM      2  C   UNL     1      39.848   0.645  14.065  0.00  0.00    +0.000 A 
ATOM      3  N   UNL     1      41.011   1.161  13.430  0.00  0.00    +0.000 NA
ATOM      4  N   UNL     1      39.491  -0.652  14.210  0.00  0.00    +0.000 N 
ATOM      5  C   UNL     1      38.315  -0.747  14.870  0.00  0.00    +0.000 A 
ATOM      6  N   UNL     1      37.559  -1.790  15.255  0.00  0.00    +0.000 NA
ATOM      7  C   UNL     1      36.406  -1.586  15.917  0.00  0.00    +0.000 A 
ATOM      8  C   UNL     1      35.621  -2.677  16.315  0.00  0.00    +0.000 A 
ATOM      9  C   UNL     1      34.442  -2.457  16.994  0.00  0.00    +0.000 A 
ATOM     10  C   UNL     1      34.067  -1.156  17.262  0.00  0.00    +0.000 A 
ATOM     11  C   UNL     1      34.839  -0.082  16.869  0.00  0.00    +0.000 A 
ATOM     12  C   UNL     1      36.033  -0.284  16.184  0.00  0.00    +0.000 A 
ATOM     13  N   UNL     1      36.793   0.759  15.797  0.00  0.00    +0.000 NA
ATOM     14  C   UNL     1      37.948   0.566  15.135  0.00  0.00    +0.000 A 
ENDROOT
BRANCH   1  16
ATOM     15  N   UNL     1      38.870   3.585  15.945  0.00  0.00    +0.000 NA
ATOM     16  C   UNL     1      38.883   2.898  14.707  0.00  0.00    +0.000 C 
ATOM     17  O   UNL     1      38.889   3.560  13.648  0.00  0.00    +0.000 OA
BRANCH  15  18
ATOM     18  C   UNL     1      38.864   5.035  16.019  0.00  0.00    +0.000 C 
BRANCH  18  19
ATOM     19  C   UNL     1      39.814   5.480  17.110  0.00  0.00    +0.000 C 
BRANCH  19  20
ATOM     20  C   UNL     1      39.017   5.795  18.356  0.00  0.00    +0.000 C 
BRANCH  20  22
ATOM     21  C   UNL     1      39.379   7.308  20.261  0.00  0.00    +0.000 C 
ATOM     22  C   UNL     1      39.978   6.160  19.456  0.00  0.00    +0.000 C 
ENDBRANCH  20  22
ENDBRANCH  19  20
ENDBRANCH  18  19
ENDBRANCH  15  18
ENDBRANCH   1  16
BRANCH   4  23
ATOM     23  C   UNL     1      40.316  -1.716  13.705  0.00  0.00    +0.000 C 
BRANCH  23  24
ATOM     24  C   UNL     1      39.546  -2.457  12.640  0.00  0.00    +0.000 C 
BRANCH  24  25
ATOM     25  C   UNL     1      40.221  -2.267  11.339  0.00  0.00    +0.000 A 
ATOM     26  C   UNL     1      41.145  -3.168  10.889  0.00  0.00    +0.000 A 
ATOM     27  C   UNL     1      41.751  -2.948   9.662  0.00  0.00    +0.000 A 
ATOM     28  C   UNL     1      41.459  -1.853   8.878  0.00  0.00    +0.000 A 
ATOM     29  C   UNL     1      40.525  -0.951   9.344  0.00  0.00    +0.000 A 
ATOM     30  C   UNL     1      39.906  -1.157  10.570  0.00  0.00    +0.000 A 
ATOM     31  F   UNL     1      38.992  -0.293  11.049  0.00  0.00    +0.000 F 
ENDBRANCH  24  25
ENDBRANCH  23  24
ENDBRANCH   4  23
TORSDOF 8
ENDMDL
MODEL 10
REMARK VINA RESULT:      -6.7      2.984      6.618
REMARK  Name = 
REMARK  8 active torsions:
REMARK  status: ('A' for Active; 'I' for Inactive)
REMARK    1  A    between atoms: C_2  and  C_3
REMARK    2  A    between atoms: C_3  and  C_4
REMARK    3  A    between atoms: C_4  and  C_5
REMARK    4  A    between atoms: C_5  and  N_6
REMARK    5  A    between atoms: C_7  and  C_9
REMARK    6  A    between atoms: N_12  and  C_13
REMARK    7  A    between atoms: C_13  and  C_14
REMARK    8  A    between atoms: C_14  and  C_15
REMARK                            x       y       z     vdW  Elec       q    Type
REMARK                         _______ _______ _______ _____ _____    ______ ____
ROOT
ATOM      1  C   UNL     1      38.063   2.479  13.528  0.00  0.00    +0.000 A 
ATOM      2  C   UNL     1      37.876   1.985  14.799  0.00  0.00    +0.000 A 
ATOM      3  N   UNL     1      38.633   0.905  15.331  0.00  0.00    +0.000 NA
ATOM      4  N   UNL     1      36.892   2.685  15.408  0.00  0.00    +0.000 N 
ATOM      5  C   UNL     1      36.410   3.639  14.580  0.00  0.00    +0.000 A 
ATOM      6  N   UNL     1      35.451   4.573  14.714  0.00  0.00    +0.000 NA
ATOM      7  C   UNL     1      35.175   5.414  13.700  0.00  0.00    +0.000 A 
ATOM      8  C   UNL     1      34.175   6.385  13.845  0.00  0.00    +0.000 A 
ATOM      9  C   UNL     1      33.900   7.241  12.801  0.00  0.00    +0.000 A 
ATOM     10  C   UNL     1      34.626   7.114  11.635  0.00  0.00    +0.000 A 
ATOM     11  C   UNL     1      35.610   6.158  11.491  0.00  0.00    +0.000 A 
ATOM     12  C   UNL     1      35.902   5.284  12.535  0.00  0.00    +0.000 A 
ATOM     13  N   UNL     1      36.862   4.348  12.403  0.00  0.00    +0.000 NA
ATOM     14  C   UNL     1      37.146   3.503  13.411  0.00  0.00    +0.000 A 
ENDROOT
BRANCH   1  16
ATOM     15  N   UNL     1      38.867   0.766  11.886  0.00  0.00    +0.000 NA
ATOM     16  C   UNL     1      39.021   2.013  12.538  0.00  0.00    +0.000 C 
ATOM     17  O   UNL     1      40.005   2.729  12.252  0.00  0.00    +0.000 OA
BRANCH  15  18
ATOM     18  C   UNL     1      39.818   0.294  10.896  0.00  0.00    +0.000 C 
BRANCH  18  19
ATOM     19  C   UNL     1      39.944  -1.210  11.006  0.00  0.00    +0.000 C 
BRANCH  19  20
ATOM     20  C   UNL     1      39.228  -1.672  12.255  0.00  0.00    +0.000 C 
BRANCH  20  22
ATOM     21  C   UNL     1      40.092  -2.291  14.473  0.00  0.00    +0.000 C 
ATOM     22  C   UNL     1      40.124  -2.635  12.988  0.00  0.00    +0.000 C 
ENDBRANCH  20  22
ENDBRANCH  19  20
ENDBRANCH  18  19
ENDBRANCH  15  18
ENDBRANCH   1  16
BRANCH   4  23
ATOM     23  C   UNL     1      36.486   2.389  16.755  0.00  0.00    +0.000 C 
BRANCH  23  24
ATOM     24  C   UNL     1      35.223   1.566  16.706  0.00  0.00    +0.000 C 
BRANCH  24  25
ATOM     25  C   UNL     1      35.565   0.147  16.937  0.00  0.00    +0.000 A 
ATOM     26  C   UNL     1      35.586  -0.748  15.903  0.00  0.00    +0.000 A 
ATOM     27  C   UNL     1      35.914  -2.068  16.169  0.00  0.00    +0.000 A 
ATOM     28  C   UNL     1      36.220  -2.515  17.436  0.00  0.00    +0.000 A 
ATOM     29  C   UNL     1      36.195  -1.602  18.470  0.00  0.00    +0.000 A 
ATOM     30  C   UNL     1      35.870  -0.275  18.223  0.00  0.00    +0.000 A 
ATOM     31  F   UNL     1      35.838   0.636  19.212  0.00  0.00    +0.000 F 
ENDBRANCH  24  25
ENDBRANCH  23  24
ENDBRANCH   4  23
TORSDOF 8
ENDMDL
