MODEL 1
REMARK VINA RESULT:      -7.7      0.000      0.000
REMARK  Name = 
REMARK  8 active torsions:
REMARK  status: ('A' for Active; 'I' for Inactive)
REMARK    1  A    between atoms: C_5  and  N_6
REMARK    2  A    between atoms: C_7  and  C_9
REMARK    3  A    between atoms: C_9  and  C_10
REMARK    4  A    between atoms: C_9  and  N_17
REMARK    5  A    between atoms: C_10  and  C_11
REMARK    6  A    between atoms: C_18  and  O_20
REMARK    7  A    between atoms: O_20  and  C_21
REMARK    8  A    between atoms: C_21  and  C_22
REMARK                            x       y       z     vdW  Elec       q    Type
REMARK                         _______ _______ _______ _____ _____    ______ ____
ROOT
ATOM      1  C   UNL     1      37.139   2.066  15.151  0.00  0.00    +0.000 C 
ENDROOT
BRANCH   1   3
ATOM      2  N   UNL     1      38.609   3.841  16.433  0.00  0.00    +0.000 NA
ATOM      3  C   UNL     1      37.451   3.504  15.750  0.00  0.00    +0.000 C 
ATOM      4  O   UNL     1      36.523   4.281  15.552  0.00  0.00    +0.000 OA
BRANCH   2   9
ATOM      5  C   UNL     1      39.316   8.667  19.332  0.00  0.00    +0.000 C 
ATOM      6  C   UNL     1      39.144   7.422  18.574  0.00  0.00    +0.000 A 
ATOM      7  C   UNL     1      39.196   6.182  19.186  0.00  0.00    +0.000 A 
ATOM      8  C   UNL     1      39.031   5.069  18.410  0.00  0.00    +0.000 A 
ATOM      9  C   UNL     1      38.803   5.131  17.009  0.00  0.00    +0.000 A 
ATOM     10  C   UNL     1      38.766   6.340  16.440  0.00  0.00    +0.000 A 
ATOM     11  C   UNL     1      38.932   7.476  17.213  0.00  0.00    +0.000 A 
ATOM     12  C   UNL     1      38.854   8.802  16.525  0.00  0.00    +0.000 C 
ENDBRANCH   2   9
ENDBRANCH   1   3
BRANCH   1  13
ATOM     13  N   UNL     1      37.069   1.403  16.528  0.00  0.00    +0.000 NA
ATOM     14  C   UNL     1      35.959   1.179  17.286  0.00  0.00    +0.000 C 
ATOM     15  O   UNL     1      34.820   1.549  16.811  0.00  0.00    +0.000 OA
BRANCH  14  16
ATOM     16  O   UNL     1      35.978   0.588  18.530  0.00  0.00    +0.000 OA
BRANCH  16  17
ATOM     17  C   UNL     1      35.667  -0.593  19.039  0.00  0.00    +0.000 C 
BRANCH  17  18
ATOM     18  C   UNL     1      36.477  -1.710  18.434  0.00  0.00    +0.000 A 
ATOM     19  C   UNL     1      37.753  -1.817  19.043  0.00  0.00    +0.000 A 
ATOM     20  C   UNL     1      38.582  -2.882  18.557  0.00  0.00    +0.000 A 
ATOM     21  C   UNL     1      38.147  -3.696  17.603  0.00  0.00    +0.000 A 
ATOM     22  C   UNL     1      36.906  -3.594  17.007  0.00  0.00    +0.000 A 
ATOM     23  C   UNL     1      36.070  -2.530  17.487  0.00  0.00    +0.000 A 
ENDBRANCH  17  18
ENDBRANCH  16  17
ENDBRANCH  14  16
ENDBRANCH   1  13
BRANCH   1  24
ATOM     24  C   UNL     1      38.568   1.509  14.682  0.00  0.00    +0.000 C 
BRANCH  24  25
ATOM     25  C   UNL     1      38.549   0.069  14.430  0.00  0.00    +0.000 A 
ATOM     26  C   UNL     1      37.573  -0.591  13.781  0.00  0.00    +0.000 A 
ATOM     27  C   UNL     1      37.612  -1.940  13.622  0.00  0.00    +0.000 A 
ATOM     28  C   UNL     1      38.646  -2.684  14.114  0.00  0.00    +0.000 A 
ATOM     29  C   UNL     1      39.703  -2.035  14.794  0.00  0.00    +0.000 A 
ATOM     30  C   UNL     1      39.632  -0.676  14.938  0.00  0.00    +0.000 A 
ENDBRANCH  24  25
ENDBRANCH   1  24
TORSDOF 8
ENDMDL
MODEL 2
REMARK VINA RESULT:      -7.5      1.876      7.229
REMARK  Name = 
REMARK  8 active torsions:
REMARK  status: ('A' for Active; 'I' for Inactive)
REMARK    1  A    between atoms: C_5  and  N_6
REMARK    2  A    between atoms: C_7  and  C_9
REMARK    3  A    between atoms: C_9  and  C_10
REMARK    4  A    between atoms: C_9  and  N_17
REMARK    5  A    between atoms: C_10  and  C_11
REMARK    6  A    between atoms: C_18  and  O_20
REMARK    7  A    between atoms: O_20  and  C_21
REMARK    8  A    between atoms: C_21  and  C_22
REMARK                            x       y       z     vdW  Elec       q    Type
REMARK                         _______ _______ _______ _____ _____    ______ ____
ROOT
ATOM      1  C   UNL     1      36.070   0.377  16.058  0.00  0.00    +0.000 C 
ENDROOT
BRANCH   1   3
ATOM      2  N   UNL     1      38.614  -0.263  15.799  0.00  0.00    +0.000 NA
ATOM      3  C   UNL     1      37.342  -0.149  15.263  0.00  0.00    +0.000 C 
ATOM      4  O   UNL     1      37.061  -0.422  14.101  0.00  0.00    +0.000 OA
BRANCH   2   9
ATOM      5  C   UNL     1      43.019  -2.503  13.008  0.00  0.00    +0.000 C 
ATOM      6  C   UNL     1      41.875  -1.918  13.718  0.00  0.00    +0.000 A 
ATOM      7  C   UNL     1      41.012  -2.693  14.473  0.00  0.00    +0.000 A 
ATOM      8  C   UNL     1      39.967  -2.074  15.101  0.00  0.00    +0.000 A 
ATOM      9  C   UNL     1      39.733  -0.676  15.015  0.00  0.00    +0.000 A 
ATOM     10  C   UNL     1      40.575   0.049  14.271  0.00  0.00    +0.000 A 
ATOM     11  C   UNL     1      41.638  -0.563  13.631  0.00  0.00    +0.000 A 
ATOM     12  C   UNL     1      42.562   0.303  12.835  0.00  0.00    +0.000 C 
ENDBRANCH   2   9
ENDBRANCH   1   3
BRANCH   1  13
ATOM     13  N   UNL     1      36.849   1.489  16.759  0.00  0.00    +0.000 NA
ATOM     14  C   UNL     1      36.692   2.835  16.612  0.00  0.00    +0.000 C 
ATOM     15  O   UNL     1      35.781   3.249  15.799  0.00  0.00    +0.000 OA
BRANCH  14  16
ATOM     16  O   UNL     1      37.447   3.780  17.269  0.00  0.00    +0.000 OA
BRANCH  16  17
ATOM     17  C   UNL     1      38.470   4.567  16.977  0.00  0.00    +0.000 C 
BRANCH  17  18
ATOM     18  C   UNL     1      38.629   5.693  17.965  0.00  0.00    +0.000 A 
ATOM     19  C   UNL     1      39.690   5.445  18.871  0.00  0.00    +0.000 A 
ATOM     20  C   UNL     1      39.942   6.485  19.826  0.00  0.00    +0.000 A 
ATOM     21  C   UNL     1      39.212   7.594  19.828  0.00  0.00    +0.000 A 
ATOM     22  C   UNL     1      38.177   7.838  18.947  0.00  0.00    +0.000 A 
ATOM     23  C   UNL     1      37.918   6.802  17.989  0.00  0.00    +0.000 A 
ENDBRANCH  17  18
ENDBRANCH  16  17
ENDBRANCH  14  16
ENDBRANCH   1  13
BRANCH   1  24
ATOM     24  C   UNL     1      35.921  -0.637  17.291  0.00  0.00    +0.000 C 
BRANCH  24  25
ATOM     25  C   UNL     1      35.835  -2.032  16.858  0.00  0.00    +0.000 A 
ATOM     26  C   UNL     1      36.756  -2.978  17.109  0.00  0.00    +0.000 A 
ATOM     27  C   UNL     1      36.620  -4.245  16.637  0.00  0.00    +0.000 A 
ATOM     28  C   UNL     1      35.539  -4.612  15.887  0.00  0.00    +0.000 A 
ATOM     29  C   UNL     1      34.536  -3.655  15.605  0.00  0.00    +0.000 A 
ATOM     30  C   UNL     1      34.705  -2.389  16.095  0.00  0.00    +0.000 A 
ENDBRANCH  24  25
ENDBRANCH   1  24
TORSDOF 8
ENDMDL
MODEL 3
REMARK VINA RESULT:      -7.4      2.815      4.476
REMARK  Name = 
REMARK  8 active torsions:
REMARK  status: ('A' for Active; 'I' for Inactive)
REMARK    1  A    between atoms: C_5  and  N_6
REMARK    2  A    between atoms: C_7  and  C_9
REMARK    3  A    between atoms: C_9  and  C_10
REMARK    4  A    between atoms: C_9  and  N_17
REMARK    5  A    between atoms: C_10  and  C_11
REMARK    6  A    between atoms: C_18  and  O_20
REMARK    7  A    between atoms: O_20  and  C_21
REMARK    8  A    between atoms: C_21  and  C_22
REMARK                            x       y       z     vdW  Elec       q    Type
REMARK                         _______ _______ _______ _____ _____    ______ ____
ROOT
ATOM      1  C   UNL     1      36.661   4.059  15.445  0.00  0.00    +0.000 C 
ENDROOT
BRANCH   1   3
ATOM      2  N   UNL     1      38.200   5.595  16.937  0.00  0.00    +0.000 NA
ATOM      3  C   UNL     1      37.989   4.415  16.242  0.00  0.00    +0.000 C 
ATOM      4  O   UNL     1      38.821   3.519  16.147  0.00  0.00    +0.000 OA
BRANCH   2   9
ATOM      5  C   UNL     1      42.773   6.865  20.047  0.00  0.00    +0.000 C 
ATOM      6  C   UNL     1      41.597   6.526  19.237  0.00  0.00    +0.000 A 
ATOM      7  C   UNL     1      40.366   6.265  19.812  0.00  0.00    +0.000 A 
ATOM      8  C   UNL     1      39.319   5.952  18.990  0.00  0.00    +0.000 A 
ATOM      9  C   UNL     1      39.441   5.889  17.576  0.00  0.00    +0.000 A 
ATOM     10  C   UNL     1      40.643   6.135  17.045  0.00  0.00    +0.000 A 
ATOM     11  C   UNL     1      41.711   6.454  17.865  0.00  0.00    +0.000 A 
ATOM     12  C   UNL     1      43.025   6.746  17.213  0.00  0.00    +0.000 C 
ENDBRANCH   2   9
ENDBRANCH   1   3
BRANCH   1  13
ATOM     13  N   UNL     1      36.975   2.563  15.402  0.00  0.00    +0.000 NA
ATOM     14  C   UNL     1      36.129   1.545  15.077  0.00  0.00    +0.000 C 
ATOM     15  O   UNL     1      34.918   1.849  14.756  0.00  0.00    +0.000 OA
BRANCH  14  16
ATOM     16  O   UNL     1      36.483   0.214  15.076  0.00  0.00    +0.000 OA
BRANCH  16  17
ATOM     17  C   UNL     1      36.010  -0.906  15.598  0.00  0.00    +0.000 C 
BRANCH  17  18
ATOM     18  C   UNL     1      36.902  -1.456  16.681  0.00  0.00    +0.000 A 
ATOM     19  C   UNL     1      36.586  -0.902  17.947  0.00  0.00    +0.000 A 
ATOM     20  C   UNL     1      37.359  -1.398  19.048  0.00  0.00    +0.000 A 
ATOM     21  C   UNL     1      38.297  -2.318  18.857  0.00  0.00    +0.000 A 
ATOM     22  C   UNL     1      38.608  -2.858  17.625  0.00  0.00    +0.000 A 
ATOM     23  C   UNL     1      37.840  -2.367  16.517  0.00  0.00    +0.000 A 
ENDBRANCH  17  18
ENDBRANCH  16  17
ENDBRANCH  14  16
ENDBRANCH   1  13
BRANCH   1  24
ATOM     24  C   UNL     1      36.998   4.427  13.922  0.00  0.00    +0.000 C 
BRANCH  24  25
ATOM     25  C   UNL     1      35.982   5.290  13.320  0.00  0.00    +0.000 A 
ATOM     26  C   UNL     1      36.004   5.746  12.055  0.00  0.00    +0.000 A 
ATOM     27  C   UNL     1      35.038   6.577  11.583  0.00  0.00    +0.000 A 
ATOM     28  C   UNL     1      34.002   6.985  12.373  0.00  0.00    +0.000 A 
ATOM     29  C   UNL     1      33.927   6.524  13.708  0.00  0.00    +0.000 A 
ATOM     30  C   UNL     1      34.916   5.689  14.152  0.00  0.00    +0.000 A 
ENDBRANCH  24  25
ENDBRANCH   1  24
TORSDOF 8
ENDMDL
MODEL 4
REMARK VINA RESULT:      -7.3      2.893      6.613
REMARK  Name = 
REMARK  8 active torsions:
REMARK  status: ('A' for Active; 'I' for Inactive)
REMARK    1  A    between atoms: C_5  and  N_6
REMARK    2  A    between atoms: C_7  and  C_9
REMARK    3  A    between atoms: C_9  and  C_10
REMARK    4  A    between atoms: C_9  and  N_17
REMARK    5  A    between atoms: C_10  and  C_11
REMARK    6  A    between atoms: C_18  and  O_20
REMARK    7  A    between atoms: O_20  and  C_21
REMARK    8  A    between atoms: C_21  and  C_22
REMARK                            x       y       z     vdW  Elec       q    Type
REMARK                         _______ _______ _______ _____ _____    ______ ____
ROOT
ATOM      1  C   UNL     1      36.538   2.962  14.854  0.00  0.00    +0.000 C 
ENDROOT
BRANCH   1   3
ATOM      2  N   UNL     1      37.810   4.783  16.274  0.00  0.00    +0.000 NA
ATOM      3  C   UNL     1      37.783   3.547  15.648  0.00  0.00    +0.000 C 
ATOM      4  O   UNL     1      38.735   2.774  15.619  0.00  0.00    +0.000 OA
BRANCH   2   9
ATOM      5  C   UNL     1      42.096   6.825  19.383  0.00  0.00    +0.000 C 
ATOM      6  C   UNL     1      40.996   6.287  18.573  0.00  0.00    +0.000 A 
ATOM      7  C   UNL     1      39.823   5.829  19.148  0.00  0.00    +0.000 A 
ATOM      8  C   UNL     1      38.847   5.339  18.326  0.00  0.00    +0.000 A 
ATOM      9  C   UNL     1      38.983   5.285  16.913  0.00  0.00    +0.000 A 
ATOM     10  C   UNL     1      40.129   5.724  16.383  0.00  0.00    +0.000 A 
ATOM     11  C   UNL     1      41.126   6.224  17.202  0.00  0.00    +0.000 A 
ATOM     12  C   UNL     1      42.375   6.726  16.550  0.00  0.00    +0.000 C 
ENDBRANCH   2   9
ENDBRANCH   1   3
BRANCH   1  13
ATOM     13  N   UNL     1      35.919   4.340  14.620  0.00  0.00    +0.000 NA
ATOM     14  C   UNL     1      35.892   5.053  13.459  0.00  0.00    +0.000 C 
ATOM     15  O   UNL     1      36.437   4.526  12.416  0.00  0.00    +0.000 OA
BRANCH  14  16
ATOM     16  O   UNL     1      35.327   6.302  13.330  0.00  0.00    +0.000 OA
BRANCH  16  17
ATOM     17  C   UNL     1      35.726   7.557  13.463  0.00  0.00    +0.000 C 
BRANCH  17  18
ATOM     18  C   UNL     1      35.078   8.244  14.637  0.00  0.00    +0.000 A 
ATOM     19  C   UNL     1      36.031   8.928  15.431  0.00  0.00    +0.000 A 
ATOM     20  C   UNL     1      35.498   9.647  16.552  0.00  0.00    +0.000 A 
ATOM     21  C   UNL     1      34.193   9.652  16.795  0.00  0.00    +0.000 A 
ATOM     22  C   UNL     1      33.262   8.985  16.023  0.00  0.00    +0.000 A 
ATOM     23  C   UNL     1      33.787   8.262  14.900  0.00  0.00    +0.000 A 
ENDBRANCH  17  18
ENDBRANCH  16  17
ENDBRANCH  14  16
ENDBRANCH   1  13
BRANCH   1  24
ATOM     24  C   UNL     1      35.545   2.435  15.998  0.00  0.00    +0.000 C 
BRANCH  24  25
ATOM     25  C   UNL     1      35.527   0.976  16.091  0.00  0.00    +0.000 A 
ATOM     26  C   UNL     1      36.195   0.140  15.277  0.00  0.00    +0.000 A 
ATOM     27  C   UNL     1      36.095  -1.209  15.407  0.00  0.00    +0.000 A 
ATOM     28  C   UNL     1      35.311  -1.774  16.371  0.00  0.00    +0.000 A 
ATOM     29  C   UNL     1      34.596  -0.937  17.260  0.00  0.00    +0.000 A 
ATOM     30  C   UNL     1      34.720   0.417  17.102  0.00  0.00    +0.000 A 
ENDBRANCH  24  25
ENDBRANCH   1  24
TORSDOF 8
ENDMDL
MODEL 5
REMARK VINA RESULT:      -7.2      2.696      6.424
REMARK  Name = 
REMARK  8 active torsions:
REMARK  status: ('A' for Active; 'I' for Inactive)
REMARK    1  A    between atoms: C_5  and  N_6
REMARK    2  A    between atoms: C_7  and  C_9
REMARK    3  A    between atoms: C_9  and  C_10
REMARK    4  A    between atoms: C_9  and  N_17
REMARK    5  A    between atoms: C_10  and  C_11
REMARK    6  A    between atoms: C_18  and  O_20
REMARK    7  A    between atoms: O_20  and  C_21
REMARK    8  A    between atoms: C_21  and  C_22
REMARK                            x       y       z     vdW  Elec       q    Type
REMARK                         _______ _______ _______ _____ _____    ______ ____
ROOT
ATOM      1  C   UNL     1      36.876   2.803  15.744  0.00  0.00    +0.000 C 
ENDROOT
BRANCH   1   3
ATOM      2  N   UNL     1      37.928   5.034  16.677  0.00  0.00    +0.000 NA
ATOM      3  C   UNL     1      37.445   3.752  16.884  0.00  0.00    +0.000 C 
ATOM      4  O   UNL     1      37.426   3.197  17.978  0.00  0.00    +0.000 OA
BRANCH   2   9
ATOM      5  C   UNL     1      39.778   8.643  20.646  0.00  0.00    +0.000 C 
ATOM      6  C   UNL     1      39.299   7.700  19.629  0.00  0.00    +0.000 A 
ATOM      7  C   UNL     1      38.185   7.967  18.852  0.00  0.00    +0.000 A 
ATOM      8  C   UNL     1      37.799   7.036  17.929  0.00  0.00    +0.000 A 
ATOM      9  C   UNL     1      38.493   5.813  17.731  0.00  0.00    +0.000 A 
ATOM     10  C   UNL     1      39.560   5.572  18.500  0.00  0.00    +0.000 A 
ATOM     11  C   UNL     1      39.962   6.506  19.438  0.00  0.00    +0.000 A 
ATOM     12  C   UNL     1      41.179   6.195  20.250  0.00  0.00    +0.000 C 
ENDBRANCH   2   9
ENDBRANCH   1   3
BRANCH   1  13
ATOM     13  N   UNL     1      36.140   3.940  15.034  0.00  0.00    +0.000 NA
ATOM     14  C   UNL     1      36.145   4.230  13.702  0.00  0.00    +0.000 C 
ATOM     15  O   UNL     1      36.835   3.469  12.923  0.00  0.00    +0.000 OA
BRANCH  14  16
ATOM     16  O   UNL     1      35.467   5.287  13.136  0.00  0.00    +0.000 OA
BRANCH  16  17
ATOM     17  C   UNL     1      35.748   6.531  12.782  0.00  0.00    +0.000 C 
BRANCH  17  18
ATOM     18  C   UNL     1      35.393   7.527  13.855  0.00  0.00    +0.000 A 
ATOM     19  C   UNL     1      33.994   7.571  14.081  0.00  0.00    +0.000 A 
ATOM     20  C   UNL     1      33.565   8.465  15.117  0.00  0.00    +0.000 A 
ATOM     21  C   UNL     1      34.448   9.185  15.799  0.00  0.00    +0.000 A 
ATOM     22  C   UNL     1      35.810   9.145  15.579  0.00  0.00    +0.000 A 
ATOM     23  C   UNL     1      36.249   8.254  14.544  0.00  0.00    +0.000 A 
ENDBRANCH  17  18
ENDBRANCH  16  17
ENDBRANCH  14  16
ENDBRANCH   1  13
BRANCH   1  24
ATOM     24  C   UNL     1      35.616   2.077  16.419  0.00  0.00    +0.000 C 
BRANCH  24  25
ATOM     25  C   UNL     1      35.634   0.629  16.215  0.00  0.00    +0.000 A 
ATOM     26  C   UNL     1      36.341  -0.011  15.268  0.00  0.00    +0.000 A 
ATOM     27  C   UNL     1      36.272  -1.360  15.120  0.00  0.00    +0.000 A 
ATOM     28  C   UNL     1      35.481  -2.125  15.929  0.00  0.00    +0.000 A 
ATOM     29  C   UNL     1      34.726  -1.500  16.949  0.00  0.00    +0.000 A 
ATOM     30  C   UNL     1      34.818  -0.140  17.070  0.00  0.00    +0.000 A 
ENDBRANCH  24  25
ENDBRANCH   1  24
TORSDOF 8
ENDMDL
MODEL 6
REMARK VINA RESULT:      -7.2      2.447      8.553
REMARK  Name = 
REMARK  8 active torsions:
REMARK  status: ('A' for Active; 'I' for Inactive)
REMARK    1  A    between atoms: C_5  and  N_6
REMARK    2  A    between atoms: C_7  and  C_9
REMARK    3  A    between atoms: C_9  and  C_10
REMARK    4  A    between atoms: C_9  and  N_17
REMARK    5  A    between atoms: C_10  and  C_11
REMARK    6  A    between atoms: C_18  and  O_20
REMARK    7  A    between atoms: O_20  and  C_21
REMARK    8  A    between atoms: C_21  and  C_22
REMARK                            x       y       z     vdW  Elec       q    Type
REMARK                         _______ _______ _______ _____ _____    ______ ____
ROOT
ATOM      1  C   UNL     1      37.317   2.975  15.047  0.00  0.00    +0.000 C 
ENDROOT
BRANCH   1   3
ATOM      2  N   UNL     1      37.577   0.371  14.730  0.00  0.00    +0.000 NA
ATOM      3  C   UNL     1      37.191   1.457  15.498  0.00  0.00    +0.000 C 
ATOM      4  O   UNL     1      36.683   1.362  16.610  0.00  0.00    +0.000 OA
BRANCH   2   9
ATOM      5  C   UNL     1      37.435  -4.986  16.599  0.00  0.00    +0.000 C 
ATOM      6  C   UNL     1      37.460  -3.598  16.122  0.00  0.00    +0.000 A 
ATOM      7  C   UNL     1      38.538  -2.763  16.361  0.00  0.00    +0.000 A 
ATOM      8  C   UNL     1      38.484  -1.482  15.888  0.00  0.00    +0.000 A 
ATOM      9  C   UNL     1      37.374  -0.975  15.160  0.00  0.00    +0.000 A 
ATOM     10  C   UNL     1      36.341  -1.797  14.951  0.00  0.00    +0.000 A 
ATOM     11  C   UNL     1      36.382  -3.096  15.423  0.00  0.00    +0.000 A 
ATOM     12  C   UNL     1      35.209  -3.978  15.135  0.00  0.00    +0.000 C 
ENDBRANCH   2   9
ENDBRANCH   1   3
BRANCH   1  13
ATOM     13  N   UNL     1      37.696   3.459  16.447  0.00  0.00    +0.000 NA
ATOM     14  C   UNL     1      38.555   4.465  16.774  0.00  0.00    +0.000 C 
ATOM     15  O   UNL     1      39.123   5.109  15.813  0.00  0.00    +0.000 OA
BRANCH  14  16
ATOM     16  O   UNL     1      38.860   4.833  18.066  0.00  0.00    +0.000 OA
BRANCH  16  17
ATOM     17  C   UNL     1      39.642   5.726  18.652  0.00  0.00    +0.000 C 
BRANCH  17  18
ATOM     18  C   UNL     1      38.876   6.926  19.143  0.00  0.00    +0.000 A 
ATOM     19  C   UNL     1      39.404   7.417  20.364  0.00  0.00    +0.000 A 
ATOM     20  C   UNL     1      38.760   8.586  20.889  0.00  0.00    +0.000 A 
ATOM     21  C   UNL     1      37.744   9.147  20.243  0.00  0.00    +0.000 A 
ATOM     22  C   UNL     1      37.227   8.670  19.056  0.00  0.00    +0.000 A 
ATOM     23  C   UNL     1      37.864   7.500  18.524  0.00  0.00    +0.000 A 
ENDBRANCH  17  18
ENDBRANCH  16  17
ENDBRANCH  14  16
ENDBRANCH   1  13
BRANCH   1  24
ATOM     24  C   UNL     1      35.805   3.506  15.002  0.00  0.00    +0.000 C 
BRANCH  24  25
ATOM     25  C   UNL     1      35.610   4.545  13.991  0.00  0.00    +0.000 A 
ATOM     26  C   UNL     1      36.353   4.694  12.881  0.00  0.00    +0.000 A 
ATOM     27  C   UNL     1      36.130   5.712  12.008  0.00  0.00    +0.000 A 
ATOM     28  C   UNL     1      35.140   6.628  12.222  0.00  0.00    +0.000 A 
ATOM     29  C   UNL     1      34.323   6.508  13.370  0.00  0.00    +0.000 A 
ATOM     30  C   UNL     1      34.574   5.472  14.228  0.00  0.00    +0.000 A 
ENDBRANCH  24  25
ENDBRANCH   1  24
TORSDOF 8
ENDMDL
MODEL 7
REMARK VINA RESULT:      -7.1      3.266      5.157
REMARK  Name = 
REMARK  8 active torsions:
REMARK  status: ('A' for Active; 'I' for Inactive)
REMARK    1  A    between atoms: C_5  and  N_6
REMARK    2  A    between atoms: C_7  and  C_9
REMARK    3  A    between atoms: C_9  and  C_10
REMARK    4  A    between atoms: C_9  and  N_17
REMARK    5  A    between atoms: C_10  and  C_11
REMARK    6  A    between atoms: C_18  and  O_20
REMARK    7  A    between atoms: O_20  and  C_21
REMARK    8  A    between atoms: C_21  and  C_22
REMARK                            x       y       z     vdW  Elec       q    Type
REMARK                         _______ _______ _______ _____ _____    ______ ____
ROOT
ATOM      1  C   UNL     1      36.872   2.784  16.222  0.00  0.00    +0.000 C 
ENDROOT
BRANCH   1   3
ATOM      2  N   UNL     1      35.473   4.112  14.424  0.00  0.00    +0.000 NA
ATOM      3  C   UNL     1      36.551   4.031  15.291  0.00  0.00    +0.000 C 
ATOM      4  O   UNL     1      37.396   4.911  15.417  0.00  0.00    +0.000 OA
BRANCH   2   9
ATOM      5  C   UNL     1      34.134   8.697  11.361  0.00  0.00    +0.000 C 
ATOM      6  C   UNL     1      34.493   7.515  12.153  0.00  0.00    +0.000 A 
ATOM      7  C   UNL     1      33.895   7.243  13.371  0.00  0.00    +0.000 A 
ATOM      8  C   UNL     1      34.287   6.125  14.051  0.00  0.00    +0.000 A 
ATOM      9  C   UNL     1      35.276   5.231  13.560  0.00  0.00    +0.000 A 
ATOM     10  C   UNL     1      35.847   5.520  12.387  0.00  0.00    +0.000 A 
ATOM     11  C   UNL     1      35.459   6.649  11.687  0.00  0.00    +0.000 A 
ATOM     12  C   UNL     1      36.112   6.906  10.366  0.00  0.00    +0.000 C 
ENDBRANCH   2   9
ENDBRANCH   1   3
BRANCH   1  13
ATOM     13  N   UNL     1      37.190   1.864  15.043  0.00  0.00    +0.000 NA
ATOM     14  C   UNL     1      38.417   1.565  14.529  0.00  0.00    +0.000 C 
ATOM     15  O   UNL     1      39.449   2.098  15.088  0.00  0.00    +0.000 OA
BRANCH  14  16
ATOM     16  O   UNL     1      38.624   0.737  13.449  0.00  0.00    +0.000 OA
BRANCH  16  17
ATOM     17  C   UNL     1      39.166  -0.452  13.238  0.00  0.00    +0.000 C 
BRANCH  17  18
ATOM     18  C   UNL     1      38.801  -1.447  14.309  0.00  0.00    +0.000 A 
ATOM     19  C   UNL     1      37.683  -2.232  13.931  0.00  0.00    +0.000 A 
ATOM     20  C   UNL     1      37.287  -3.237  14.875  0.00  0.00    +0.000 A 
ATOM     21  C   UNL     1      37.951  -3.395  16.014  0.00  0.00    +0.000 A 
ATOM     22  C   UNL     1      39.039  -2.630  16.385  0.00  0.00    +0.000 A 
ATOM     23  C   UNL     1      39.441  -1.622  15.447  0.00  0.00    +0.000 A 
ENDBRANCH  17  18
ENDBRANCH  16  17
ENDBRANCH  14  16
ENDBRANCH   1  13
BRANCH   1  24
ATOM     24  C   UNL     1      35.432   2.196  16.613  0.00  0.00    +0.000 C 
BRANCH  24  25
ATOM     25  C   UNL     1      35.523   0.888  17.262  0.00  0.00    +0.000 A 
ATOM     26  C   UNL     1      36.176   0.638  18.410  0.00  0.00    +0.000 A 
ATOM     27  C   UNL     1      36.245  -0.616  18.929  0.00  0.00    +0.000 A 
ATOM     28  C   UNL     1      35.653  -1.677  18.306  0.00  0.00    +0.000 A 
ATOM     29  C   UNL     1      34.943  -1.464  17.101  0.00  0.00    +0.000 A 
ATOM     30  C   UNL     1      34.894  -0.189  16.606  0.00  0.00    +0.000 A 
ENDBRANCH  24  25
ENDBRANCH   1  24
TORSDOF 8
ENDMDL
MODEL 8
REMARK VINA RESULT:      -7.1      2.942      8.317
REMARK  Name = 
REMARK  8 active torsions:
REMARK  status: ('A' for Active; 'I' for Inactive)
REMARK    1  A    between atoms: C_5  and  N_6
REMARK    2  A    between atoms: C_7  and  C_9
REMARK    3  A    between atoms: C_9  and  C_10
REMARK    4  A    between atoms: C_9  and  N_17
REMARK    5  A    between atoms: C_10  and  C_11
REMARK    6  A    between atoms: C_18  and  O_20
REMARK    7  A    between atoms: O_20  and  C_21
REMARK    8  A    between atoms: C_21  and  C_22
REMARK                            x       y       z     vdW  Elec       q    Type
REMARK                         _______ _______ _______ _____ _____    ______ ____
ROOT
ATOM      1  C   UNL     1      37.070   3.707  14.512  0.00  0.00    +0.000 C 
ENDROOT
BRANCH   1   3
ATOM      2  N   UNL     1      37.100   1.393  15.775  0.00  0.00    +0.000 NA
ATOM      3  C   UNL     1      36.857   2.137  14.632  0.00  0.00    +0.000 C 
ATOM      4  O   UNL     1      36.469   1.657  13.573  0.00  0.00    +0.000 OA
BRANCH   2   9
ATOM      5  C   UNL     1      37.161  -4.280  15.620  0.00  0.00    +0.000 C 
ATOM      6  C   UNL     1      37.140  -2.813  15.673  0.00  0.00    +0.000 A 
ATOM      7  C   UNL     1      38.288  -2.060  15.498  0.00  0.00    +0.000 A 
ATOM      8  C   UNL     1      38.187  -0.698  15.565  0.00  0.00    +0.000 A 
ATOM      9  C   UNL     1      36.957  -0.027  15.802  0.00  0.00    +0.000 A 
ATOM     10  C   UNL     1      35.864  -0.777  15.978  0.00  0.00    +0.000 A 
ATOM     11  C   UNL     1      35.952  -2.156  15.911  0.00  0.00    +0.000 A 
ATOM     12  C   UNL     1      34.691  -2.941  16.088  0.00  0.00    +0.000 C 
ENDBRANCH   2   9
ENDBRANCH   1   3
BRANCH   1  13
ATOM     13  N   UNL     1      37.697   3.824  15.902  0.00  0.00    +0.000 NA
ATOM     14  C   UNL     1      38.294   4.917  16.455  0.00  0.00    +0.000 C 
ATOM     15  O   UNL     1      38.343   5.997  15.752  0.00  0.00    +0.000 OA
BRANCH  14  16
ATOM     16  O   UNL     1      38.854   4.940  17.713  0.00  0.00    +0.000 OA
BRANCH  16  17
ATOM     17  C   UNL     1      38.983   5.821  18.692  0.00  0.00    +0.000 C 
BRANCH  17  18
ATOM     18  C   UNL     1      40.425   6.139  18.993  0.00  0.00    +0.000 A 
ATOM     19  C   UNL     1      41.178   6.310  17.805  0.00  0.00    +0.000 A 
ATOM     20  C   UNL     1      42.558   6.655  17.993  0.00  0.00    +0.000 A 
ATOM     21  C   UNL     1      43.058   6.802  19.214  0.00  0.00    +0.000 A 
ATOM     22  C   UNL     1      42.327   6.635  20.373  0.00  0.00    +0.000 A 
ATOM     23  C   UNL     1      40.946   6.288  20.194  0.00  0.00    +0.000 A 
ENDBRANCH  17  18
ENDBRANCH  16  17
ENDBRANCH  14  16
ENDBRANCH   1  13
BRANCH   1  24
ATOM     24  C   UNL     1      35.630   4.332  14.838  0.00  0.00    +0.000 C 
BRANCH  24  25
ATOM     25  C   UNL     1      35.219   5.328  13.849  0.00  0.00    +0.000 A 
ATOM     26  C   UNL     1      34.220   6.214  14.011  0.00  0.00    +0.000 A 
ATOM     27  C   UNL     1      33.875   7.083  13.026  0.00  0.00    +0.000 A 
ATOM     28  C   UNL     1      34.528   7.095  11.827  0.00  0.00    +0.000 A 
ATOM     29  C   UNL     1      35.594   6.190  11.611  0.00  0.00    +0.000 A 
ATOM     30  C   UNL     1      35.916   5.328  12.624  0.00  0.00    +0.000 A 
ENDBRANCH  24  25
ENDBRANCH   1  24
TORSDOF 8
ENDMDL
MODEL 9
REMARK VINA RESULT:      -7.0      2.091      7.305
REMARK  Name = 
REMARK  8 active torsions:
REMARK  status: ('A' for Active; 'I' for Inactive)
REMARK    1  A    between atoms: C_5  and  N_6
REMARK    2  A    between atoms: C_7  and  C_9
REMARK    3  A    between atoms: C_9  and  C_10
REMARK    4  A    between atoms: C_9  and  N_17
REMARK    5  A    between atoms: C_10  and  C_11
REMARK    6  A    between atoms: C_18  and  O_20
REMARK    7  A    between atoms: O_20  and  C_21
REMARK    8  A    between atoms: C_21  and  C_22
REMARK                            x       y       z     vdW  Elec       q    Type
REMARK                         _______ _______ _______ _____ _____    ______ ____
ROOT
ATOM      1  C   UNL     1      36.314   2.745  15.099  0.00  0.00    +0.000 C 
ENDROOT
BRANCH   1   3
ATOM      2  N   UNL     1      38.471   1.234  15.211  0.00  0.00    +0.000 NA
ATOM      3  C   UNL     1      37.269   1.573  14.611  0.00  0.00    +0.000 C 
ATOM      4  O   UNL     1      36.820   1.016  13.616  0.00  0.00    +0.000 OA
BRANCH   2   9
ATOM      5  C   UNL     1      41.669  -3.190  13.658  0.00  0.00    +0.000 C 
ATOM      6  C   UNL     1      40.837  -2.045  14.047  0.00  0.00    +0.000 A 
ATOM      7  C   UNL     1      39.874  -2.144  15.035  0.00  0.00    +0.000 A 
ATOM      8  C   UNL     1      39.137  -1.033  15.337  0.00  0.00    +0.000 A 
ATOM      9  C   UNL     1      39.322   0.216  14.685  0.00  0.00    +0.000 A 
ATOM     10  C   UNL     1      40.252   0.284  13.727  0.00  0.00    +0.000 A 
ATOM     11  C   UNL     1      41.005  -0.833  13.412  0.00  0.00    +0.000 A 
ATOM     12  C   UNL     1      42.050  -0.689  12.350  0.00  0.00    +0.000 C 
ENDBRANCH   2   9
ENDBRANCH   1   3
BRANCH   1  13
ATOM     13  N   UNL     1      37.153   3.039  16.343  0.00  0.00    +0.000 NA
ATOM     14  C   UNL     1      37.868   4.167  16.616  0.00  0.00    +0.000 C 
ATOM     15  O   UNL     1      37.846   5.119  15.746  0.00  0.00    +0.000 OA
BRANCH  14  16
ATOM     16  O   UNL     1      38.616   4.353  17.757  0.00  0.00    +0.000 OA
BRANCH  16  17
ATOM     17  C   UNL     1      38.803   5.324  18.637  0.00  0.00    +0.000 C 
BRANCH  17  18
ATOM     18  C   UNL     1      40.198   5.889  18.581  0.00  0.00    +0.000 A 
ATOM     19  C   UNL     1      40.703   6.158  19.878  0.00  0.00    +0.000 A 
ATOM     20  C   UNL     1      42.044   6.664  19.926  0.00  0.00    +0.000 A 
ATOM     21  C   UNL     1      42.738   6.849  18.809  0.00  0.00    +0.000 A 
ATOM     22  C   UNL     1      42.248   6.589  17.545  0.00  0.00    +0.000 A 
ATOM     23  C   UNL     1      40.906   6.084  17.487  0.00  0.00    +0.000 A 
ENDBRANCH  17  18
ENDBRANCH  16  17
ENDBRANCH  14  16
ENDBRANCH   1  13
BRANCH   1  24
ATOM     24  C   UNL     1      35.085   1.993  15.802  0.00  0.00    +0.000 C 
BRANCH  24  25
ATOM     25  C   UNL     1      35.525   0.931  16.706  0.00  0.00    +0.000 A 
ATOM     26  C   UNL     1      36.043   1.123  17.932  0.00  0.00    +0.000 A 
ATOM     27  C   UNL     1      36.465   0.081  18.696  0.00  0.00    +0.000 A 
ATOM     28  C   UNL     1      36.381  -1.207  18.251  0.00  0.00    +0.000 A 
ATOM     29  C   UNL     1      35.833  -1.463  16.972  0.00  0.00    +0.000 A 
ATOM     30  C   UNL     1      35.418  -0.391  16.228  0.00  0.00    +0.000 A 
ENDBRANCH  24  25
ENDBRANCH   1  24
TORSDOF 8
ENDMDL
MODEL 10
REMARK VINA RESULT:      -7.0      3.029      8.412
REMARK  Name = 
REMARK  8 active torsions:
REMARK  status: ('A' for Active; 'I' for Inactive)
REMARK    1  A    between atoms: C_5  and  N_6
REMARK    2  A    between atoms: C_7  and  C_9
REMARK    3  A    between atoms: C_9  and  C_10
REMARK    4  A    between atoms: C_9  and  N_17
REMARK    5  A    between atoms: C_10  and  C_11
REMARK    6  A    between atoms: C_18  and  O_20
REMARK    7  A    between atoms: O_20  and  C_21
REMARK    8  A    between atoms: C_21  and  C_22
REMARK                            x       y       z     vdW  Elec       q    Type
REMARK                         _______ _______ _______ _____ _____    ______ ____
ROOT
ATOM      1  C   UNL     1      36.638   4.167  14.293  0.00  0.00    +0.000 C 
ENDROOT
BRANCH   1   3
ATOM      2  N   UNL     1      36.909   1.668  15.089  0.00  0.00    +0.000 NA
ATOM      3  C   UNL     1      36.103   2.740  14.743  0.00  0.00    +0.000 C 
ATOM      4  O   UNL     1      34.877   2.697  14.725  0.00  0.00    +0.000 OA
BRANCH   2   9
ATOM      5  C   UNL     1      35.041  -3.642  15.813  0.00  0.00    +0.000 C 
ATOM      6  C   UNL     1      35.528  -2.269  15.639  0.00  0.00    +0.000 A 
ATOM      7  C   UNL     1      36.474  -1.945  14.682  0.00  0.00    +0.000 A 
ATOM      8  C   UNL     1      36.880  -0.643  14.585  0.00  0.00    +0.000 A 
ATOM      9  C   UNL     1      36.370   0.388  15.418  0.00  0.00    +0.000 A 
ATOM     10  C   UNL     1      35.465   0.049  16.342  0.00  0.00    +0.000 A 
ATOM     11  C   UNL     1      35.044  -1.265  16.451  0.00  0.00    +0.000 A 
ATOM     12  C   UNL     1      34.009  -1.580  17.484  0.00  0.00    +0.000 C 
ENDBRANCH   2   9
ENDBRANCH   1   3
BRANCH   1  13
ATOM     13  N   UNL     1      37.195   4.500  15.678  0.00  0.00    +0.000 NA
ATOM     14  C   UNL     1      38.498   4.477  16.077  0.00  0.00    +0.000 C 
ATOM     15  O   UNL     1      39.390   4.149  15.205  0.00  0.00    +0.000 OA
BRANCH  14  16
ATOM     16  O   UNL     1      38.923   4.775  17.353  0.00  0.00    +0.000 OA
BRANCH  16  17
ATOM     17  C   UNL     1      39.747   5.647  17.913  0.00  0.00    +0.000 C 
BRANCH  17  18
ATOM     18  C   UNL     1      39.016   6.704  18.699  0.00  0.00    +0.000 A 
ATOM     19  C   UNL     1      39.617   6.921  19.964  0.00  0.00    +0.000 A 
ATOM     20  C   UNL     1      39.011   7.943  20.768  0.00  0.00    +0.000 A 
ATOM     21  C   UNL     1      37.960   8.621  20.322  0.00  0.00    +0.000 A 
ATOM     22  C   UNL     1      37.372   8.411  19.091  0.00  0.00    +0.000 A 
ATOM     23  C   UNL     1      37.971   7.390  18.280  0.00  0.00    +0.000 A 
ENDBRANCH  17  18
ENDBRANCH  16  17
ENDBRANCH  14  16
ENDBRANCH   1  13
BRANCH   1  24
ATOM     24  C   UNL     1      35.340   5.107  14.316  0.00  0.00    +0.000 C 
BRANCH  24  25
ATOM     25  C   UNL     1      35.147   5.820  13.053  0.00  0.00    +0.000 A 
ATOM     26  C   UNL     1      34.180   6.723  12.814  0.00  0.00    +0.000 A 
ATOM     27  C   UNL     1      34.045   7.314  11.599  0.00  0.00    +0.000 A 
ATOM     28  C   UNL     1      34.887   7.016  10.566  0.00  0.00    +0.000 A 
ATOM     29  C   UNL     1      35.928   6.081  10.770  0.00  0.00    +0.000 A 
ATOM     30  C   UNL     1      36.036   5.504  12.006  0.00  0.00    +0.000 A 
ENDBRANCH  24  25
ENDBRANCH   1  24
TORSDOF 8
ENDMDL
