MODEL 1
REMARK VINA RESULT:      -6.5      0.000      0.000
REMARK  Name = 
REMARK  4 active torsions:
REMARK  status: ('A' for Active; 'I' for Inactive)
REMARK    1  A    between atoms: C_7  and  S_8
REMARK    2  A    between atoms: S_8  and  C_9
REMARK    3  A    between atoms: C_9  and  S_12
REMARK    4  A    between atoms: S_12  and  C_13
REMARK                            x       y       z     vdW  Elec       q    Type
REMARK                         _______ _______ _______ _____ _____    ______ ____
ROOT
ATOM      1  C   UNL     1      19.198  10.425  38.164  0.00  0.00    +0.000 C 
ATOM      2  C   UNL     1      20.511   9.993  37.532  0.00  0.00    +0.000 C 
ATOM      3  C   UNL     1      18.996  11.895  37.901  0.00  0.00    +0.000 C 
ENDROOT
BRANCH   1   4
ATOM      4  S   UNL     1      19.345  10.177  39.936  0.00  0.00    +0.000 S 
BRANCH   4  11
ATOM      5  C   UNL     1      19.455   4.891  40.148  0.00  0.00    +0.000 C 
ATOM      6  C   UNL     1      18.726   6.184  40.393  0.00  0.00    +0.000 A 
ATOM      7  C   UNL     1      17.465   6.115  40.931  0.00  0.00    +0.000 A 
ATOM      8  C   UNL     1      16.790   7.309  41.159  0.00  0.00    +0.000 A 
ATOM      9  C   UNL     1      17.347   8.523  40.863  0.00  0.00    +0.000 A 
ATOM     10  O   UNL     1      16.677   9.724  41.090  0.00  0.00    +0.000 OA
ATOM     11  C   UNL     1      18.624   8.586  40.321  0.00  0.00    +0.000 A 
ATOM     12  C   UNL     1      19.293   7.402  40.094  0.00  0.00    +0.000 A 
ENDBRANCH   4  11
ENDBRANCH   1   4
BRANCH   1  13
ATOM     13  S   UNL     1      17.883   9.502  37.393  0.00  0.00    +0.000 S 
BRANCH  13  14
ATOM     14  C   UNL     1      16.732  10.481  36.488  0.00  0.00    +0.000 A 
ATOM     15  C   UNL     1      15.616  11.079  37.028  0.00  0.00    +0.000 A 
ATOM     16  C   UNL     1      14.784  11.835  36.226  0.00  0.00    +0.000 A 
ATOM     17  C   UNL     1      13.576  12.493  36.782  0.00  0.00    +0.000 C 
ATOM     18  C   UNL     1      15.042  12.011  34.882  0.00  0.00    +0.000 A 
ATOM     19  C   UNL     1      16.146  11.420  34.332  0.00  0.00    +0.000 A 
ATOM     20  C   UNL     1      16.970  10.667  35.142  0.00  0.00    +0.000 A 
ATOM     21  O   UNL     1      18.078  10.101  34.489  0.00  0.00    +0.000 OA
ENDBRANCH  13  14
ENDBRANCH   1  13
TORSDOF 4
ENDMDL
MODEL 2
REMARK VINA RESULT:      -6.4     18.605     21.387
REMARK  Name = 
REMARK  4 active torsions:
REMARK  status: ('A' for Active; 'I' for Inactive)
REMARK    1  A    between atoms: C_7  and  S_8
REMARK    2  A    between atoms: S_8  and  C_9
REMARK    3  A    between atoms: C_9  and  S_12
REMARK    4  A    between atoms: S_12  and  C_13
REMARK                            x       y       z     vdW  Elec       q    Type
REMARK                         _______ _______ _______ _____ _____    ______ ____
ROOT
ATOM      1  C   UNL     1      25.891  25.216  25.827  0.00  0.00    +0.000 C 
ATOM      2  C   UNL     1      24.693  25.753  25.061  0.00  0.00    +0.000 C 
ATOM      3  C   UNL     1      27.136  25.889  25.310  0.00  0.00    +0.000 C 
ENDROOT
BRANCH   1   4
ATOM      4  S   UNL     1      26.008  23.458  25.483  0.00  0.00    +0.000 S 
BRANCH   4  11
ATOM      5  C   UNL     1      30.746  22.141  27.436  0.00  0.00    +0.000 C 
ATOM      6  C   UNL     1      29.874  22.459  26.253  0.00  0.00    +0.000 A 
ATOM      7  C   UNL     1      30.453  22.435  25.008  0.00  0.00    +0.000 A 
ATOM      8  C   UNL     1      29.648  22.728  23.912  0.00  0.00    +0.000 A 
ATOM      9  C   UNL     1      28.322  23.034  24.050  0.00  0.00    +0.000 A 
ATOM     10  O   UNL     1      27.509  23.329  22.956  0.00  0.00    +0.000 OA
ATOM     11  C   UNL     1      27.743  23.056  25.312  0.00  0.00    +0.000 A 
ATOM     12  C   UNL     1      28.541  22.766  26.398  0.00  0.00    +0.000 A 
ENDBRANCH   4  11
ENDBRANCH   1   4
BRANCH   1  13
ATOM     13  S   UNL     1      25.672  25.621  27.549  0.00  0.00    +0.000 S 
BRANCH  13  14
ATOM     14  C   UNL     1      26.539  24.571  28.666  0.00  0.00    +0.000 A 
ATOM     15  C   UNL     1      26.047  23.391  29.175  0.00  0.00    +0.000 A 
ATOM     16  C   UNL     1      26.817  22.639  30.039  0.00  0.00    +0.000 A 
ATOM     17  C   UNL     1      26.312  21.362  30.601  0.00  0.00    +0.000 C 
ATOM     18  C   UNL     1      28.084  23.041  30.411  0.00  0.00    +0.000 A 
ATOM     19  C   UNL     1      28.585  24.212  29.915  0.00  0.00    +0.000 A 
ATOM     20  C   UNL     1      27.806  24.956  29.053  0.00  0.00    +0.000 A 
ATOM     21  O   UNL     1      28.405  26.142  28.594  0.00  0.00    +0.000 OA
ENDBRANCH  13  14
ENDBRANCH   1  13
TORSDOF 4
ENDMDL
MODEL 3
REMARK VINA RESULT:      -6.4      0.283      6.726
REMARK  Name = 
REMARK  4 active torsions:
REMARK  status: ('A' for Active; 'I' for Inactive)
REMARK    1  A    between atoms: C_7  and  S_8
REMARK    2  A    between atoms: S_8  and  C_9
REMARK    3  A    between atoms: C_9  and  S_12
REMARK    4  A    between atoms: S_12  and  C_13
REMARK                            x       y       z     vdW  Elec       q    Type
REMARK                         _______ _______ _______ _____ _____    ______ ____
ROOT
ATOM      1  C   UNL     1      19.033  10.395  37.933  0.00  0.00    +0.000 C 
ATOM      2  C   UNL     1      18.696  11.846  37.631  0.00  0.00    +0.000 C 
ATOM      3  C   UNL     1      20.452  10.130  37.502  0.00  0.00    +0.000 C 
ENDROOT
BRANCH   1   4
ATOM      4  S   UNL     1      17.937   9.370  36.948  0.00  0.00    +0.000 S 
BRANCH   4  11
ATOM      5  C   UNL     1      13.614  12.421  36.919  0.00  0.00    +0.000 C 
ATOM      6  C   UNL     1      14.787  11.827  36.188  0.00  0.00    +0.000 A 
ATOM      7  C   UNL     1      14.937  12.139  34.860  0.00  0.00    +0.000 A 
ATOM      8  C   UNL     1      16.021  11.592  34.183  0.00  0.00    +0.000 A 
ATOM      9  C   UNL     1      16.918  10.764  34.802  0.00  0.00    +0.000 A 
ATOM     10  O   UNL     1      18.007  10.212  34.129  0.00  0.00    +0.000 OA
ATOM     11  C   UNL     1      16.760  10.453  36.146  0.00  0.00    +0.000 A 
ATOM     12  C   UNL     1      15.685  10.996  36.817  0.00  0.00    +0.000 A 
ENDBRANCH   4  11
ENDBRANCH   1   4
BRANCH   1  13
ATOM     13  S   UNL     1      18.896  10.149  39.692  0.00  0.00    +0.000 S 
BRANCH  13  14
ATOM     14  C   UNL     1      18.405   8.527  40.171  0.00  0.00    +0.000 A 
ATOM     15  C   UNL     1      19.132   7.384  39.926  0.00  0.00    +0.000 A 
ATOM     16  C   UNL     1      18.657   6.160  40.355  0.00  0.00    +0.000 A 
ATOM     17  C   UNL     1      19.421   4.913  40.107  0.00  0.00    +0.000 C 
ATOM     18  C   UNL     1      17.458   6.049  41.031  0.00  0.00    +0.000 A 
ATOM     19  C   UNL     1      16.726   7.176  41.278  0.00  0.00    +0.000 A 
ATOM     20  C   UNL     1      17.210   8.393  40.845  0.00  0.00    +0.000 A 
ATOM     21  O   UNL     1      16.389   9.493  41.146  0.00  0.00    +0.000 OA
ENDBRANCH  13  14
ENDBRANCH   1  13
TORSDOF 4
ENDMDL
MODEL 4
REMARK VINA RESULT:      -6.3     18.622     21.141
REMARK  Name = 
REMARK  4 active torsions:
REMARK  status: ('A' for Active; 'I' for Inactive)
REMARK    1  A    between atoms: C_7  and  S_8
REMARK    2  A    between atoms: S_8  and  C_9
REMARK    3  A    between atoms: C_9  and  S_12
REMARK    4  A    between atoms: S_12  and  C_13
REMARK                            x       y       z     vdW  Elec       q    Type
REMARK                         _______ _______ _______ _____ _____    ______ ____
ROOT
ATOM      1  C   UNL     1      25.783  25.280  25.909  0.00  0.00    +0.000 C 
ATOM      2  C   UNL     1      27.034  26.027  25.475  0.00  0.00    +0.000 C 
ATOM      3  C   UNL     1      24.640  25.698  25.021  0.00  0.00    +0.000 C 
ENDROOT
BRANCH   1   4
ATOM      4  S   UNL     1      25.411  25.783  27.592  0.00  0.00    +0.000 S 
BRANCH   4  11
ATOM      5  C   UNL     1      26.366  21.469  30.505  0.00  0.00    +0.000 C 
ATOM      6  C   UNL     1      26.807  22.814  29.996  0.00  0.00    +0.000 A 
ATOM      7  C   UNL     1      28.033  23.280  30.401  0.00  0.00    +0.000 A 
ATOM      8  C   UNL     1      28.443  24.523  29.931  0.00  0.00    +0.000 A 
ATOM      9  C   UNL     1      27.664  25.272  29.093  0.00  0.00    +0.000 A 
ATOM     10  O   UNL     1      28.069  26.519  28.617  0.00  0.00    +0.000 OA
ATOM     11  C   UNL     1      26.425  24.795  28.687  0.00  0.00    +0.000 A 
ATOM     12  C   UNL     1      26.018  23.563  29.153  0.00  0.00    +0.000 A 
ENDBRANCH   4  11
ENDBRANCH   1   4
BRANCH   1  13
ATOM     13  S   UNL     1      26.082  23.535  25.705  0.00  0.00    +0.000 S 
BRANCH  13  14
ATOM     14  C   UNL     1      27.779  23.096  25.535  0.00  0.00    +0.000 A 
ATOM     15  C   UNL     1      28.622  22.806  26.583  0.00  0.00    +0.000 A 
ATOM     16  C   UNL     1      29.937  22.464  26.336  0.00  0.00    +0.000 A 
ATOM     17  C   UNL     1      30.867  22.144  27.447  0.00  0.00    +0.000 C 
ATOM     18  C   UNL     1      30.436  22.403  25.050  0.00  0.00    +0.000 A 
ATOM     19  C   UNL     1      29.610  22.690  24.000  0.00  0.00    +0.000 A 
ATOM     20  C   UNL     1      28.298  23.032  24.259  0.00  0.00    +0.000 A 
ATOM     21  O   UNL     1      27.527  23.309  23.118  0.00  0.00    +0.000 OA
ENDBRANCH  13  14
ENDBRANCH   1  13
TORSDOF 4
ENDMDL
MODEL 5
REMARK VINA RESULT:      -6.2     20.198     23.125
REMARK  Name = 
REMARK  4 active torsions:
REMARK  status: ('A' for Active; 'I' for Inactive)
REMARK    1  A    between atoms: C_7  and  S_8
REMARK    2  A    between atoms: S_8  and  C_9
REMARK    3  A    between atoms: C_9  and  S_12
REMARK    4  A    between atoms: S_12  and  C_13
REMARK                            x       y       z     vdW  Elec       q    Type
REMARK                         _______ _______ _______ _____ _____    ______ ____
ROOT
ATOM      1  C   UNL     1      26.063  24.668  26.457  0.00  0.00    +0.000 C 
ATOM      2  C   UNL     1      24.934  24.728  27.473  0.00  0.00    +0.000 C 
ATOM      3  C   UNL     1      27.130  25.651  26.864  0.00  0.00    +0.000 C 
ENDROOT
BRANCH   1   4
ATOM      4  S   UNL     1      25.391  25.179  24.873  0.00  0.00    +0.000 S 
BRANCH   4  11
ATOM      5  C   UNL     1      29.717  26.929  22.378  0.00  0.00    +0.000 C 
ATOM      6  C   UNL     1      28.661  25.873  22.557  0.00  0.00    +0.000 A 
ATOM      7  C   UNL     1      28.721  24.765  21.748  0.00  0.00    +0.000 A 
ATOM      8  C   UNL     1      27.747  23.787  21.913  0.00  0.00    +0.000 A 
ATOM      9  C   UNL     1      26.751  23.907  22.843  0.00  0.00    +0.000 A 
ATOM     10  O   UNL     1      25.771  22.930  23.015  0.00  0.00    +0.000 OA
ATOM     11  C   UNL     1      26.697  25.030  23.659  0.00  0.00    +0.000 A 
ATOM     12  C   UNL     1      27.662  26.000  23.496  0.00  0.00    +0.000 A 
ENDBRANCH   4  11
ENDBRANCH   1   4
BRANCH   1  13
ATOM     13  S   UNL     1      26.740  23.020  26.479  0.00  0.00    +0.000 S 
BRANCH  13  14
ATOM     14  C   UNL     1      28.499  22.949  26.505  0.00  0.00    +0.000 A 
ATOM     15  C   UNL     1      29.308  23.153  25.410  0.00  0.00    +0.000 A 
ATOM     16  C   UNL     1      30.681  23.083  25.545  0.00  0.00    +0.000 A 
ATOM     17  C   UNL     1      31.576  23.301  24.381  0.00  0.00    +0.000 C 
ATOM     18  C   UNL     1      31.272  22.812  26.761  0.00  0.00    +0.000 A 
ATOM     19  C   UNL     1      30.481  22.606  27.857  0.00  0.00    +0.000 A 
ATOM     20  C   UNL     1      29.111  22.677  27.710  0.00  0.00    +0.000 A 
ATOM     21  O   UNL     1      28.382  22.452  28.890  0.00  0.00    +0.000 OA
ENDBRANCH  13  14
ENDBRANCH   1  13
TORSDOF 4
ENDMDL
MODEL 6
REMARK VINA RESULT:      -6.1      1.525      2.745
REMARK  Name = 
REMARK  4 active torsions:
REMARK  status: ('A' for Active; 'I' for Inactive)
REMARK    1  A    between atoms: C_7  and  S_8
REMARK    2  A    between atoms: S_8  and  C_9
REMARK    3  A    between atoms: C_9  and  S_12
REMARK    4  A    between atoms: S_12  and  C_13
REMARK                            x       y       z     vdW  Elec       q    Type
REMARK                         _______ _______ _______ _____ _____    ______ ____
ROOT
ATOM      1  C   UNL     1      19.505  10.022  37.728  0.00  0.00    +0.000 C 
ATOM      2  C   UNL     1      20.618   9.862  36.705  0.00  0.00    +0.000 C 
ATOM      3  C   UNL     1      19.246  11.492  37.931  0.00  0.00    +0.000 C 
ENDROOT
BRANCH   1   4
ATOM      4  S   UNL     1      20.092   9.327  39.276  0.00  0.00    +0.000 S 
BRANCH   4  11
ATOM      5  C   UNL     1      15.177   9.225  41.236  0.00  0.00    +0.000 C 
ATOM      6  C   UNL     1      16.469   8.514  40.935  0.00  0.00    +0.000 A 
ATOM      7  C   UNL     1      16.566   7.190  41.284  0.00  0.00    +0.000 A 
ATOM      8  C   UNL     1      17.759   6.532  41.006  0.00  0.00    +0.000 A 
ATOM      9  C   UNL     1      18.813   7.166  40.408  0.00  0.00    +0.000 A 
ATOM     10  O   UNL     1      20.012   6.512  40.126  0.00  0.00    +0.000 OA
ATOM     11  C   UNL     1      18.707   8.505  40.057  0.00  0.00    +0.000 A 
ATOM     12  C   UNL     1      17.525   9.159  40.333  0.00  0.00    +0.000 A 
ENDBRANCH   4  11
ENDBRANCH   1   4
BRANCH   1  13
ATOM     13  S   UNL     1      18.039   9.249  37.076  0.00  0.00    +0.000 S 
BRANCH  13  14
ATOM     14  C   UNL     1      17.033  10.302  36.085  0.00  0.00    +0.000 A 
ATOM     15  C   UNL     1      17.180  10.476  34.728  0.00  0.00    +0.000 A 
ATOM     16  C   UNL     1      16.327  11.321  34.045  0.00  0.00    +0.000 A 
ATOM     17  C   UNL     1      16.462  11.526  32.582  0.00  0.00    +0.000 C 
ATOM     18  C   UNL     1      15.318  12.004  34.693  0.00  0.00    +0.000 A 
ATOM     19  C   UNL     1      15.162  11.842  36.041  0.00  0.00    +0.000 A 
ATOM     20  C   UNL     1      16.020  10.995  36.713  0.00  0.00    +0.000 A 
ATOM     21  O   UNL     1      15.781  10.892  38.094  0.00  0.00    +0.000 OA
ENDBRANCH  13  14
ENDBRANCH   1  13
TORSDOF 4
ENDMDL
MODEL 7
REMARK VINA RESULT:      -6.1     19.301     21.204
REMARK  Name = 
REMARK  4 active torsions:
REMARK  status: ('A' for Active; 'I' for Inactive)
REMARK    1  A    between atoms: C_7  and  S_8
REMARK    2  A    between atoms: S_8  and  C_9
REMARK    3  A    between atoms: C_9  and  S_12
REMARK    4  A    between atoms: S_12  and  C_13
REMARK                            x       y       z     vdW  Elec       q    Type
REMARK                         _______ _______ _______ _____ _____    ______ ____
ROOT
ATOM      1  C   UNL     1      28.812  23.118  28.503  0.00  0.00    +0.000 C 
ATOM      2  C   UNL     1      28.850  24.551  27.998  0.00  0.00    +0.000 C 
ATOM      3  C   UNL     1      29.678  23.016  29.731  0.00  0.00    +0.000 C 
ENDROOT
BRANCH   1   4
ATOM      4  S   UNL     1      29.515  22.075  27.222  0.00  0.00    +0.000 S 
BRANCH   4  11
ATOM      5  C   UNL     1      25.557  23.378  23.961  0.00  0.00    +0.000 C 
ATOM      6  C   UNL     1      27.031  23.216  24.211  0.00  0.00    +0.000 A 
ATOM      7  C   UNL     1      27.890  23.515  23.182  0.00  0.00    +0.000 A 
ATOM      8  C   UNL     1      29.254  23.367  23.412  0.00  0.00    +0.000 A 
ATOM      9  C   UNL     1      29.742  22.937  24.615  0.00  0.00    +0.000 A 
ATOM     10  O   UNL     1      31.108  22.786  24.853  0.00  0.00    +0.000 OA
ATOM     11  C   UNL     1      28.868  22.638  25.651  0.00  0.00    +0.000 A 
ATOM     12  C   UNL     1      27.516  22.784  25.424  0.00  0.00    +0.000 A 
ENDBRANCH   4  11
ENDBRANCH   1   4
BRANCH   1  13
ATOM     13  S   UNL     1      27.128  22.728  28.934  0.00  0.00    +0.000 S 
BRANCH  13  14
ATOM     14  C   UNL     1      26.004  24.078  28.800  0.00  0.00    +0.000 A 
ATOM     15  C   UNL     1      25.469  24.538  27.619  0.00  0.00    +0.000 A 
ATOM     16  C   UNL     1      24.588  25.601  27.629  0.00  0.00    +0.000 A 
ATOM     17  C   UNL     1      23.994  26.115  26.370  0.00  0.00    +0.000 C 
ATOM     18  C   UNL     1      24.224  26.223  28.806  0.00  0.00    +0.000 A 
ATOM     19  C   UNL     1      24.749  25.778  29.986  0.00  0.00    +0.000 A 
ATOM     20  C   UNL     1      25.629  24.716  29.964  0.00  0.00    +0.000 A 
ATOM     21  O   UNL     1      26.116  24.329  31.224  0.00  0.00    +0.000 OA
ENDBRANCH  13  14
ENDBRANCH   1  13
TORSDOF 4
ENDMDL
MODEL 8
REMARK VINA RESULT:      -6.0     18.677     20.992
REMARK  Name = 
REMARK  4 active torsions:
REMARK  status: ('A' for Active; 'I' for Inactive)
REMARK    1  A    between atoms: C_7  and  S_8
REMARK    2  A    between atoms: S_8  and  C_9
REMARK    3  A    between atoms: C_9  and  S_12
REMARK    4  A    between atoms: S_12  and  C_13
REMARK                            x       y       z     vdW  Elec       q    Type
REMARK                         _______ _______ _______ _____ _____    ______ ____
ROOT
ATOM      1  C   UNL     1      31.159  23.899  28.123  0.00  0.00    +0.000 C 
ATOM      2  C   UNL     1      32.665  23.754  28.267  0.00  0.00    +0.000 C 
ATOM      3  C   UNL     1      30.871  25.073  27.223  0.00  0.00    +0.000 C 
ENDROOT
BRANCH   1   4
ATOM      4  S   UNL     1      30.493  24.252  29.751  0.00  0.00    +0.000 S 
BRANCH   4  11
ATOM      5  C   UNL     1      25.451  24.972  28.312  0.00  0.00    +0.000 C 
ATOM      6  C   UNL     1      26.487  24.172  29.055  0.00  0.00    +0.000 A 
ATOM      7  C   UNL     1      26.064  23.060  29.741  0.00  0.00    +0.000 A 
ATOM      8  C   UNL     1      27.020  22.319  30.427  0.00  0.00    +0.000 A 
ATOM      9  C   UNL     1      28.342  22.672  30.433  0.00  0.00    +0.000 A 
ATOM     10  O   UNL     1      29.306  21.934  31.119  0.00  0.00    +0.000 OA
ATOM     11  C   UNL     1      28.762  23.797  29.737  0.00  0.00    +0.000 A 
ATOM     12  C   UNL     1      27.815  24.533  29.057  0.00  0.00    +0.000 A 
ENDBRANCH   4  11
ENDBRANCH   1   4
BRANCH   1  13
ATOM     13  S   UNL     1      30.530  22.411  27.371  0.00  0.00    +0.000 S 
BRANCH  13  14
ATOM     14  C   UNL     1      29.431  22.679  26.020  0.00  0.00    +0.000 A 
ATOM     15  C   UNL     1      28.061  22.751  26.127  0.00  0.00    +0.000 A 
ATOM     16  C   UNL     1      27.293  22.974  25.001  0.00  0.00    +0.000 A 
ATOM     17  C   UNL     1      25.814  23.058  25.088  0.00  0.00    +0.000 C 
ATOM     18  C   UNL     1      27.868  23.130  23.756  0.00  0.00    +0.000 A 
ATOM     19  C   UNL     1      29.227  23.059  23.636  0.00  0.00    +0.000 A 
ATOM     20  C   UNL     1      29.985  22.835  24.767  0.00  0.00    +0.000 A 
ATOM     21  O   UNL     1      31.371  22.779  24.544  0.00  0.00    +0.000 OA
ENDBRANCH  13  14
ENDBRANCH   1  13
TORSDOF 4
ENDMDL
MODEL 9
REMARK VINA RESULT:      -5.9     20.128     22.778
REMARK  Name = 
REMARK  4 active torsions:
REMARK  status: ('A' for Active; 'I' for Inactive)
REMARK    1  A    between atoms: C_7  and  S_8
REMARK    2  A    between atoms: S_8  and  C_9
REMARK    3  A    between atoms: C_9  and  S_12
REMARK    4  A    between atoms: S_12  and  C_13
REMARK                            x       y       z     vdW  Elec       q    Type
REMARK                         _______ _______ _______ _____ _____    ______ ____
ROOT
ATOM      1  C   UNL     1      17.838 -10.059  27.804  0.00  0.00    +0.000 C 
ATOM      2  C   UNL     1      16.586 -10.622  28.458  0.00  0.00    +0.000 C 
ATOM      3  C   UNL     1      18.477  -9.078  28.752  0.00  0.00    +0.000 C 
ENDROOT
BRANCH   1   4
ATOM      4  S   UNL     1      17.324  -9.174  26.329  0.00  0.00    +0.000 S 
BRANCH   4  11
ATOM      5  C   UNL     1      21.742  -6.608  24.952  0.00  0.00    +0.000 C 
ATOM      6  C   UNL     1      20.365  -6.587  25.557  0.00  0.00    +0.000 A 
ATOM      7  C   UNL     1      19.890  -5.386  26.023  0.00  0.00    +0.000 A 
ATOM      8  C   UNL     1      18.617  -5.364  26.581  0.00  0.00    +0.000 A 
ATOM      9  C   UNL     1      17.848  -6.492  26.675  0.00  0.00    +0.000 A 
ATOM     10  O   UNL     1      16.571  -6.478  27.233  0.00  0.00    +0.000 OA
ATOM     11  C   UNL     1      18.335  -7.703  26.201  0.00  0.00    +0.000 A 
ATOM     12  C   UNL     1      19.597  -7.725  25.648  0.00  0.00    +0.000 A 
ENDBRANCH   4  11
ENDBRANCH   1   4
BRANCH   1  13
ATOM     13  S   UNL     1      18.961 -11.409  27.506  0.00  0.00    +0.000 S 
BRANCH  13  14
ATOM     14  C   UNL     1      20.354 -10.998  26.509  0.00  0.00    +0.000 A 
ATOM     15  C   UNL     1      20.382 -11.065  25.135  0.00  0.00    +0.000 A 
ATOM     16  C   UNL     1      21.528 -10.710  24.451  0.00  0.00    +0.000 A 
ATOM     17  C   UNL     1      21.584 -10.771  22.969  0.00  0.00    +0.000 C 
ATOM     18  C   UNL     1      22.660 -10.283  25.114  0.00  0.00    +0.000 A 
ATOM     19  C   UNL     1      22.647 -10.214  26.479  0.00  0.00    +0.000 A 
ATOM     20  C   UNL     1      21.497 -10.572  27.153  0.00  0.00    +0.000 A 
ATOM     21  O   UNL     1      21.579 -10.467  28.551  0.00  0.00    +0.000 OA
ENDBRANCH  13  14
ENDBRANCH   1  13
TORSDOF 4
ENDMDL
MODEL 10
REMARK VINA RESULT:      -5.9     18.779     21.395
REMARK  Name = 
REMARK  4 active torsions:
REMARK  status: ('A' for Active; 'I' for Inactive)
REMARK    1  A    between atoms: C_7  and  S_8
REMARK    2  A    between atoms: S_8  and  C_9
REMARK    3  A    between atoms: C_9  and  S_12
REMARK    4  A    between atoms: S_12  and  C_13
REMARK                            x       y       z     vdW  Elec       q    Type
REMARK                         _______ _______ _______ _____ _____    ______ ____
ROOT
ATOM      1  C   UNL     1      25.989  25.082  26.748  0.00  0.00    +0.000 C 
ATOM      2  C   UNL     1      24.753  25.802  26.233  0.00  0.00    +0.000 C 
ATOM      3  C   UNL     1      27.211  25.845  26.306  0.00  0.00    +0.000 C 
ENDROOT
BRANCH   1   4
ATOM      4  S   UNL     1      26.024  23.457  25.986  0.00  0.00    +0.000 S 
BRANCH   4  11
ATOM      5  C   UNL     1      30.914  21.953  27.337  0.00  0.00    +0.000 C 
ATOM      6  C   UNL     1      29.936  22.387  26.279  0.00  0.00    +0.000 A 
ATOM      7  C   UNL     1      30.393  22.486  24.989  0.00  0.00    +0.000 A 
ATOM      8  C   UNL     1      29.491  22.886  24.009  0.00  0.00    +0.000 A 
ATOM      9  C   UNL     1      28.187  23.177  24.303  0.00  0.00    +0.000 A 
ATOM     10  O   UNL     1      27.276  23.578  23.326  0.00  0.00    +0.000 OA
ATOM     11  C   UNL     1      27.731  23.073  25.611  0.00  0.00    +0.000 A 
ATOM     12  C   UNL     1      28.626  22.678  26.582  0.00  0.00    +0.000 A 
ENDBRANCH   4  11
ENDBRANCH   1   4
BRANCH   1  13
ATOM     13  S   UNL     1      25.916  25.065  28.529  0.00  0.00    +0.000 S 
BRANCH  13  14
ATOM     14  C   UNL     1      27.314  24.334  29.313  0.00  0.00    +0.000 A 
ATOM     15  C   UNL     1      28.570  24.895  29.358  0.00  0.00    +0.000 A 
ATOM     16  C   UNL     1      29.595  24.238  30.010  0.00  0.00    +0.000 A 
ATOM     17  C   UNL     1      30.958  24.822  30.076  0.00  0.00    +0.000 C 
ATOM     18  C   UNL     1      29.393  23.020  30.626  0.00  0.00    +0.000 A 
ATOM     19  C   UNL     1      28.151  22.450  30.587  0.00  0.00    +0.000 A 
ATOM     20  C   UNL     1      27.135  23.115  29.932  0.00  0.00    +0.000 A 
ATOM     21  O   UNL     1      25.896  22.453  29.946  0.00  0.00    +0.000 OA
ENDBRANCH  13  14
ENDBRANCH   1  13
TORSDOF 4
ENDMDL
