MODEL 1
REMARK VINA RESULT:      -6.4      0.000      0.000
REMARK  Name = 
REMARK  3 active torsions:
REMARK  status: ('A' for Active; 'I' for Inactive)
REMARK    1  A    between atoms: C_5  and  C_6
REMARK    2  A    between atoms: C_14  and  N_15
REMARK    3  A    between atoms: N_15  and  C_16
REMARK                            x       y       z     vdW  Elec       q    Type
REMARK                         _______ _______ _______ _____ _____    ______ ____
ROOT
ATOM      1  C   UNL     1      31.229  21.407  11.416  0.00  0.00    +0.000 A 
ATOM      2  N   UNL     1      32.137  21.083  12.383  0.00  0.00    +0.000 NA
ATOM      3  C   UNL     1      33.242  20.593  11.832  0.00  0.00    +0.000 A 
ATOM      4  N   UNL     1      34.385  20.149  12.388  0.00  0.00    +0.000 NA
ATOM      5  C   UNL     1      35.411  19.681  11.656  0.00  0.00    +0.000 A 
ATOM      6  C   UNL     1      35.277  19.659  10.282  0.00  0.00    +0.000 A 
ATOM      7  C   UNL     1      34.094  20.121   9.747  0.00  0.00    +0.000 A 
ATOM      8  N   UNL     1      33.081  20.586  10.521  0.00  0.00    +0.000 N 
ATOM      9  C   UNL     1      31.839  21.086  10.228  0.00  0.00    +0.000 A 
ENDROOT
BRANCH   1  14
ATOM     10  C   UNL     1      26.348  22.461  11.150  0.00  0.00    +0.000 C 
ATOM     11  C   UNL     1      27.774  22.417  11.565  0.00  0.00    +0.000 A 
ATOM     12  C   UNL     1      28.251  23.138  12.644  0.00  0.00    +0.000 A 
ATOM     13  C   UNL     1      29.594  22.830  12.694  0.00  0.00    +0.000 A 
ATOM     14  C   UNL     1      29.895  21.940  11.657  0.00  0.00    +0.000 A 
ATOM     15  O   UNL     1      28.765  21.763  11.056  0.00  0.00    +0.000 OA
ENDBRANCH   1  14
BRANCH   9  16
ATOM     16  N   UNL     1      31.410  21.226   8.925  0.00  0.00    +0.000 NA
BRANCH  16  17
ATOM     17  C   UNL     1      31.302  22.332   8.055  0.00  0.00    +0.000 C 
ATOM     18  C   UNL     1      31.166  21.793   6.606  0.00  0.00    +0.000 C 
ATOM     19  C   UNL     1      32.569  21.207   6.437  0.00  0.00    +0.000 C 
ATOM     20  C   UNL     1      33.448  22.334   6.939  0.00  0.00    +0.000 C 
ATOM     21  C   UNL     1      32.634  23.105   7.954  0.00  0.00    +0.000 C 
ENDBRANCH  16  17
ENDBRANCH   9  16
TORSDOF 3
ENDMDL
MODEL 2
REMARK VINA RESULT:      -6.3     31.095     33.908
REMARK  Name = 
REMARK  3 active torsions:
REMARK  status: ('A' for Active; 'I' for Inactive)
REMARK    1  A    between atoms: C_5  and  C_6
REMARK    2  A    between atoms: C_14  and  N_15
REMARK    3  A    between atoms: N_15  and  C_16
REMARK                            x       y       z     vdW  Elec       q    Type
REMARK                         _______ _______ _______ _____ _____    ______ ____
ROOT
ATOM      1  C   UNL     1      18.160  11.047  37.555  0.00  0.00    +0.000 A 
ATOM      2  N   UNL     1      17.468  11.918  36.764  0.00  0.00    +0.000 NA
ATOM      3  C   UNL     1      16.168  11.846  37.026  0.00  0.00    +0.000 A 
ATOM      4  N   UNL     1      15.122  12.509  36.498  0.00  0.00    +0.000 NA
ATOM      5  C   UNL     1      13.855  12.297  36.896  0.00  0.00    +0.000 A 
ATOM      6  C   UNL     1      13.630  11.361  37.886  0.00  0.00    +0.000 A 
ATOM      7  C   UNL     1      14.724  10.701  38.403  0.00  0.00    +0.000 A 
ATOM      8  N   UNL     1      15.987  10.944  37.973  0.00  0.00    +0.000 N 
ATOM      9  C   UNL     1      17.207  10.426  38.326  0.00  0.00    +0.000 A 
ENDROOT
BRANCH   1  14
ATOM     10  C   UNL     1      22.744   9.320  36.553  0.00  0.00    +0.000 C 
ATOM     11  C   UNL     1      21.607  10.104  37.099  0.00  0.00    +0.000 A 
ATOM     12  C   UNL     1      21.790  11.145  37.991  0.00  0.00    +0.000 A 
ATOM     13  C   UNL     1      20.513  11.601  38.250  0.00  0.00    +0.000 A 
ATOM     14  C   UNL     1      19.600  10.835  37.517  0.00  0.00    +0.000 A 
ATOM     15  O   UNL     1      20.339   9.988  36.879  0.00  0.00    +0.000 OA
ENDBRANCH   1  14
BRANCH   9  16
ATOM     16  N   UNL     1      17.324   9.481  39.322  0.00  0.00    +0.000 NA
BRANCH  16  17
ATOM     17  C   UNL     1      17.583   9.561  40.707  0.00  0.00    +0.000 C 
ATOM     18  C   UNL     1      18.234   8.225  41.153  0.00  0.00    +0.000 C 
ATOM     19  C   UNL     1      17.033   7.298  40.960  0.00  0.00    +0.000 C 
ATOM     20  C   UNL     1      15.921   8.071  41.638  0.00  0.00    +0.000 C 
ATOM     21  C   UNL     1      16.277   9.537  41.529  0.00  0.00    +0.000 C 
ENDBRANCH  16  17
ENDBRANCH   9  16
TORSDOF 3
ENDMDL
MODEL 3
REMARK VINA RESULT:      -6.2     13.878     16.660
REMARK  Name = 
REMARK  3 active torsions:
REMARK  status: ('A' for Active; 'I' for Inactive)
REMARK    1  A    between atoms: C_5  and  C_6
REMARK    2  A    between atoms: C_14  and  N_15
REMARK    3  A    between atoms: N_15  and  C_16
REMARK                            x       y       z     vdW  Elec       q    Type
REMARK                         _______ _______ _______ _____ _____    ______ ____
ROOT
ATOM      1  C   UNL     1      26.791  23.449  26.149  0.00  0.00    +0.000 A 
ATOM      2  N   UNL     1      25.878  23.083  25.203  0.00  0.00    +0.000 NA
ATOM      3  C   UNL     1      26.321  23.392  23.989  0.00  0.00    +0.000 A 
ATOM      4  N   UNL     1      25.766  23.219  22.775  0.00  0.00    +0.000 NA
ATOM      5  C   UNL     1      26.376  23.604  21.640  0.00  0.00    +0.000 A 
ATOM      6  C   UNL     1      27.619  24.197  21.735  0.00  0.00    +0.000 A 
ATOM      7  C   UNL     1      28.158  24.358  22.994  0.00  0.00    +0.000 A 
ATOM      8  N   UNL     1      27.509  23.956  24.116  0.00  0.00    +0.000 N 
ATOM      9  C   UNL     1      27.832  24.007  25.447  0.00  0.00    +0.000 A 
ENDROOT
BRANCH   1  14
ATOM     10  C   UNL     1      26.885  21.732  30.844  0.00  0.00    +0.000 C 
ATOM     11  C   UNL     1      26.650  22.569  29.639  0.00  0.00    +0.000 A 
ATOM     12  C   UNL     1      25.993  23.784  29.703  0.00  0.00    +0.000 A 
ATOM     13  C   UNL     1      25.982  24.234  28.398  0.00  0.00    +0.000 A 
ATOM     14  C   UNL     1      26.624  23.292  27.587  0.00  0.00    +0.000 A 
ATOM     15  O   UNL     1      26.977  22.358  28.408  0.00  0.00    +0.000 OA
ENDBRANCH   1  14
BRANCH   9  16
ATOM     16  N   UNL     1      29.039  24.521  25.874  0.00  0.00    +0.000 NA
BRANCH  16  17
ATOM     17  C   UNL     1      30.169  23.948  26.495  0.00  0.00    +0.000 C 
ATOM     18  C   UNL     1      31.423  24.732  26.029  0.00  0.00    +0.000 C 
ATOM     19  C   UNL     1      31.438  24.305  24.559  0.00  0.00    +0.000 C 
ATOM     20  C   UNL     1      31.254  22.805  24.661  0.00  0.00    +0.000 C 
ATOM     21  C   UNL     1      30.474  22.545  25.931  0.00  0.00    +0.000 C 
ENDBRANCH  16  17
ENDBRANCH   9  16
TORSDOF 3
ENDMDL
MODEL 4
REMARK VINA RESULT:      -6.2     14.724     17.925
REMARK  Name = 
REMARK  3 active torsions:
REMARK  status: ('A' for Active; 'I' for Inactive)
REMARK    1  A    between atoms: C_5  and  C_6
REMARK    2  A    between atoms: C_14  and  N_15
REMARK    3  A    between atoms: N_15  and  C_16
REMARK                            x       y       z     vdW  Elec       q    Type
REMARK                         _______ _______ _______ _____ _____    ______ ____
ROOT
ATOM      1  C   UNL     1      29.310  23.001  26.007  0.00  0.00    +0.000 A 
ATOM      2  N   UNL     1      29.363  23.083  24.645  0.00  0.00    +0.000 NA
ATOM      3  C   UNL     1      28.138  23.156  24.139  0.00  0.00    +0.000 A 
ATOM      4  N   UNL     1      27.712  23.249  22.865  0.00  0.00    +0.000 NA
ATOM      5  C   UNL     1      26.408  23.311  22.541  0.00  0.00    +0.000 A 
ATOM      6  C   UNL     1      25.479  23.279  23.562  0.00  0.00    +0.000 A 
ATOM      7  C   UNL     1      25.951  23.184  24.854  0.00  0.00    +0.000 A 
ATOM      8  N   UNL     1      27.276  23.122  25.139  0.00  0.00    +0.000 N 
ATOM      9  C   UNL     1      27.972  23.026  26.316  0.00  0.00    +0.000 A 
ENDROOT
BRANCH   1  14
ATOM     10  C   UNL     1      32.653  21.379  29.353  0.00  0.00    +0.000 C 
ATOM     11  C   UNL     1      31.932  22.195  28.342  0.00  0.00    +0.000 A 
ATOM     12  C   UNL     1      32.404  23.421  27.912  0.00  0.00    +0.000 A 
ATOM     13  C   UNL     1      31.466  23.844  26.992  0.00  0.00    +0.000 A 
ATOM     14  C   UNL     1      30.461  22.875  26.890  0.00  0.00    +0.000 A 
ATOM     15  O   UNL     1      30.827  21.954  27.718  0.00  0.00    +0.000 OA
ENDBRANCH   1  14
BRANCH   9  16
ATOM     16  N   UNL     1      27.324  23.005  27.533  0.00  0.00    +0.000 NA
BRANCH  16  17
ATOM     17  C   UNL     1      27.204  23.941  28.582  0.00  0.00    +0.000 C 
ATOM     18  C   UNL     1      28.352  23.681  29.593  0.00  0.00    +0.000 C 
ATOM     19  C   UNL     1      27.894  22.324  30.130  0.00  0.00    +0.000 C 
ATOM     20  C   UNL     1      26.429  22.574  30.420  0.00  0.00    +0.000 C 
ATOM     21  C   UNL     1      25.970  23.650  29.462  0.00  0.00    +0.000 C 
ENDBRANCH  16  17
ENDBRANCH   9  16
TORSDOF 3
ENDMDL
MODEL 5
REMARK VINA RESULT:      -6.0     31.945     34.363
REMARK  Name = 
REMARK  3 active torsions:
REMARK  status: ('A' for Active; 'I' for Inactive)
REMARK    1  A    between atoms: C_5  and  C_6
REMARK    2  A    between atoms: C_14  and  N_15
REMARK    3  A    between atoms: N_15  and  C_16
REMARK                            x       y       z     vdW  Elec       q    Type
REMARK                         _______ _______ _______ _____ _____    ______ ____
ROOT
ATOM      1  C   UNL     1      17.228  10.766  38.015  0.00  0.00    +0.000 A 
ATOM      2  N   UNL     1      18.353  11.219  37.388  0.00  0.00    +0.000 NA
ATOM      3  C   UNL     1      19.436  10.678  37.935  0.00  0.00    +0.000 A 
ATOM      4  N   UNL     1      20.741  10.832  37.646  0.00  0.00    +0.000 NA
ATOM      5  C   UNL     1      21.711  10.190  38.323  0.00  0.00    +0.000 A 
ATOM      6  C   UNL     1      21.343   9.344  39.349  0.00  0.00    +0.000 A 
ATOM      7  C   UNL     1      19.997   9.211  39.617  0.00  0.00    +0.000 A 
ATOM      8  N   UNL     1      19.048   9.878  38.911  0.00  0.00    +0.000 N 
ATOM      9  C   UNL     1      17.680   9.908  38.988  0.00  0.00    +0.000 A 
ENDROOT
BRANCH   1  14
ATOM     10  C   UNL     1      12.246  11.106  37.762  0.00  0.00    +0.000 C 
ATOM     11  C   UNL     1      13.700  11.343  37.572  0.00  0.00    +0.000 A 
ATOM     12  C   UNL     1      14.182  12.360  36.769  0.00  0.00    +0.000 A 
ATOM     13  C   UNL     1      15.554  12.244  36.857  0.00  0.00    +0.000 A 
ATOM     14  C   UNL     1      15.865  11.172  37.700  0.00  0.00    +0.000 A 
ATOM     15  O   UNL     1      14.714  10.712  38.065  0.00  0.00    +0.000 OA
ENDBRANCH   1  14
BRANCH   9  16
ATOM     16  N   UNL     1      16.995   9.136  39.903  0.00  0.00    +0.000 NA
BRANCH  16  17
ATOM     17  C   UNL     1      16.204   9.445  41.030  0.00  0.00    +0.000 C 
ATOM     18  C   UNL     1      17.147   9.600  42.252  0.00  0.00    +0.000 C 
ATOM     19  C   UNL     1      17.599   8.144  42.390  0.00  0.00    +0.000 C 
ATOM     20  C   UNL     1      16.286   7.394  42.308  0.00  0.00    +0.000 C 
ATOM     21  C   UNL     1      15.351   8.238  41.471  0.00  0.00    +0.000 C 
ENDBRANCH  16  17
ENDBRANCH   9  16
TORSDOF 3
ENDMDL
MODEL 6
REMARK VINA RESULT:      -5.9     15.316     18.124
REMARK  Name = 
REMARK  3 active torsions:
REMARK  status: ('A' for Active; 'I' for Inactive)
REMARK    1  A    between atoms: C_5  and  C_6
REMARK    2  A    between atoms: C_14  and  N_15
REMARK    3  A    between atoms: N_15  and  C_16
REMARK                            x       y       z     vdW  Elec       q    Type
REMARK                         _______ _______ _______ _____ _____    ______ ____
ROOT
ATOM      1  C   UNL     1      29.599  22.703  26.750  0.00  0.00    +0.000 A 
ATOM      2  N   UNL     1      30.813  22.108  26.942  0.00  0.00    +0.000 NA
ATOM      3  C   UNL     1      31.115  22.082  28.235  0.00  0.00    +0.000 A 
ATOM      4  N   UNL     1      32.194  21.601  28.881  0.00  0.00    +0.000 NA
ATOM      5  C   UNL     1      32.324  21.667  30.218  0.00  0.00    +0.000 A 
ATOM      6  C   UNL     1      31.308  22.252  30.946  0.00  0.00    +0.000 A 
ATOM      7  C   UNL     1      30.219  22.734  30.252  0.00  0.00    +0.000 A 
ATOM      8  N   UNL     1      30.125  22.649  28.901  0.00  0.00    +0.000 N 
ATOM      9  C   UNL     1      29.165  23.046  28.007  0.00  0.00    +0.000 A 
ENDROOT
BRANCH   1  14
ATOM     10  C   UNL     1      26.298  23.549  23.091  0.00  0.00    +0.000 C 
ATOM     11  C   UNL     1      27.554  23.299  23.846  0.00  0.00    +0.000 A 
ATOM     12  C   UNL     1      28.783  23.207  23.221  0.00  0.00    +0.000 A 
ATOM     13  C   UNL     1      29.672  22.975  24.250  0.00  0.00    +0.000 A 
ATOM     14  C   UNL     1      28.968  22.932  25.458  0.00  0.00    +0.000 A 
ATOM     15  O   UNL     1      27.738  23.132  25.113  0.00  0.00    +0.000 OA
ENDBRANCH   1  14
BRANCH   9  16
ATOM     16  N   UNL     1      27.995  23.642  28.428  0.00  0.00    +0.000 NA
BRANCH  16  17
ATOM     17  C   UNL     1      26.680  23.166  28.619  0.00  0.00    +0.000 C 
ATOM     18  C   UNL     1      25.709  24.131  27.889  0.00  0.00    +0.000 C 
ATOM     19  C   UNL     1      25.887  25.365  28.776  0.00  0.00    +0.000 C 
ATOM     20  C   UNL     1      25.757  24.778  30.167  0.00  0.00    +0.000 C 
ATOM     21  C   UNL     1      26.221  23.341  30.081  0.00  0.00    +0.000 C 
ENDBRANCH  16  17
ENDBRANCH   9  16
TORSDOF 3
ENDMDL
MODEL 7
REMARK VINA RESULT:      -5.9     14.690     17.538
REMARK  Name = 
REMARK  3 active torsions:
REMARK  status: ('A' for Active; 'I' for Inactive)
REMARK    1  A    between atoms: C_5  and  C_6
REMARK    2  A    between atoms: C_14  and  N_15
REMARK    3  A    between atoms: N_15  and  C_16
REMARK                            x       y       z     vdW  Elec       q    Type
REMARK                         _______ _______ _______ _____ _____    ______ ____
ROOT
ATOM      1  C   UNL     1      26.870  24.103  26.693  0.00  0.00    +0.000 A 
ATOM      2  N   UNL     1      25.858  24.092  27.609  0.00  0.00    +0.000 NA
ATOM      3  C   UNL     1      26.347  24.220  28.838  0.00  0.00    +0.000 A 
ATOM      4  N   UNL     1      25.730  24.260  30.034  0.00  0.00    +0.000 NA
ATOM      5  C   UNL     1      26.404  24.395  31.190  0.00  0.00    +0.000 A 
ATOM      6  C   UNL     1      27.780  24.496  31.137  0.00  0.00    +0.000 A 
ATOM      7  C   UNL     1      28.377  24.451  29.895  0.00  0.00    +0.000 A 
ATOM      8  N   UNL     1      27.661  24.313  28.751  0.00  0.00    +0.000 N 
ATOM      9  C   UNL     1      28.021  24.244  27.430  0.00  0.00    +0.000 A 
ENDROOT
BRANCH   1  14
ATOM     10  C   UNL     1      27.311  24.525  21.730  0.00  0.00    +0.000 C 
ATOM     11  C   UNL     1      26.876  24.116  23.091  0.00  0.00    +0.000 A 
ATOM     12  C   UNL     1      25.876  23.184  23.295  0.00  0.00    +0.000 A 
ATOM     13  C   UNL     1      25.776  23.087  24.668  0.00  0.00    +0.000 A 
ATOM     14  C   UNL     1      26.706  23.953  25.254  0.00  0.00    +0.000 A 
ATOM     15  O   UNL     1      27.298  24.507  24.247  0.00  0.00    +0.000 OA
ENDBRANCH   1  14
BRANCH   9  16
ATOM     16  N   UNL     1      29.339  24.349  27.039  0.00  0.00    +0.000 NA
BRANCH  16  17
ATOM     17  C   UNL     1      30.407  23.428  26.980  0.00  0.00    +0.000 C 
ATOM     18  C   UNL     1      31.471  23.988  25.999  0.00  0.00    +0.000 C 
ATOM     19  C   UNL     1      30.681  23.863  24.695  0.00  0.00    +0.000 C 
ATOM     20  C   UNL     1      30.139  22.452  24.784  0.00  0.00    +0.000 C 
ATOM     21  C   UNL     1      29.996  22.130  26.256  0.00  0.00    +0.000 C 
ENDBRANCH  16  17
ENDBRANCH   9  16
TORSDOF 3
ENDMDL
MODEL 8
REMARK VINA RESULT:      -5.9     14.432     16.842
REMARK  Name = 
REMARK  3 active torsions:
REMARK  status: ('A' for Active; 'I' for Inactive)
REMARK    1  A    between atoms: C_5  and  C_6
REMARK    2  A    between atoms: C_14  and  N_15
REMARK    3  A    between atoms: N_15  and  C_16
REMARK                            x       y       z     vdW  Elec       q    Type
REMARK                         _______ _______ _______ _____ _____    ______ ____
ROOT
ATOM      1  C   UNL     1      29.194  22.681  26.765  0.00  0.00    +0.000 A 
ATOM      2  N   UNL     1      27.833  22.622  26.852  0.00  0.00    +0.000 NA
ATOM      3  C   UNL     1      27.283  22.868  25.669  0.00  0.00    +0.000 A 
ATOM      4  N   UNL     1      25.993  22.915  25.287  0.00  0.00    +0.000 NA
ATOM      5  C   UNL     1      25.623  23.187  24.022  0.00  0.00    +0.000 A 
ATOM      6  C   UNL     1      26.612  23.423  23.089  0.00  0.00    +0.000 A 
ATOM      7  C   UNL     1      27.922  23.367  23.515  0.00  0.00    +0.000 A 
ATOM      8  N   UNL     1      28.254  23.091  24.802  0.00  0.00    +0.000 N 
ATOM      9  C   UNL     1      29.457  22.982  25.450  0.00  0.00    +0.000 A 
ENDROOT
BRANCH   1  14
ATOM     10  C   UNL     1      33.105  21.399  29.604  0.00  0.00    +0.000 C 
ATOM     11  C   UNL     1      31.808  21.950  29.133  0.00  0.00    +0.000 A 
ATOM     12  C   UNL     1      30.945  22.625  29.975  0.00  0.00    +0.000 A 
ATOM     13  C   UNL     1      29.878  22.966  29.169  0.00  0.00    +0.000 A 
ATOM     14  C   UNL     1      30.120  22.495  27.873  0.00  0.00    +0.000 A 
ATOM     15  O   UNL     1      31.272  21.916  27.958  0.00  0.00    +0.000 OA
ENDBRANCH   1  14
BRANCH   9  16
ATOM     16  N   UNL     1      30.651  23.133  24.778  0.00  0.00    +0.000 NA
BRANCH  16  17
ATOM     17  C   UNL     1      31.325  24.252  24.243  0.00  0.00    +0.000 C 
ATOM     18  C   UNL     1      32.827  24.130  24.613  0.00  0.00    +0.000 C 
ATOM     19  C   UNL     1      32.717  24.336  26.125  0.00  0.00    +0.000 C 
ATOM     20  C   UNL     1      31.825  25.557  26.217  0.00  0.00    +0.000 C 
ATOM     21  C   UNL     1      30.946  25.550  24.985  0.00  0.00    +0.000 C 
ENDBRANCH  16  17
ENDBRANCH   9  16
TORSDOF 3
ENDMDL
MODEL 9
REMARK VINA RESULT:      -5.6     34.334     35.704
REMARK  Name = 
REMARK  3 active torsions:
REMARK  status: ('A' for Active; 'I' for Inactive)
REMARK    1  A    between atoms: C_5  and  C_6
REMARK    2  A    between atoms: C_14  and  N_15
REMARK    3  A    between atoms: N_15  and  C_16
REMARK                            x       y       z     vdW  Elec       q    Type
REMARK                         _______ _______ _______ _____ _____    ______ ____
ROOT
ATOM      1  C   UNL     1      21.597  -7.380  25.163  0.00  0.00    +0.000 A 
ATOM      2  N   UNL     1      20.766  -6.303  25.281  0.00  0.00    +0.000 NA
ATOM      3  C   UNL     1      19.679  -6.632  25.970  0.00  0.00    +0.000 A 
ATOM      4  N   UNL     1      18.605  -5.903  26.326  0.00  0.00    +0.000 NA
ATOM      5  C   UNL     1      17.585  -6.418  27.035  0.00  0.00    +0.000 A 
ATOM      6  C   UNL     1      17.652  -7.746  27.407  0.00  0.00    +0.000 A 
ATOM      7  C   UNL     1      18.767  -8.462  27.025  0.00  0.00    +0.000 A 
ATOM      8  N   UNL     1      19.775  -7.905  26.308  0.00  0.00    +0.000 N 
ATOM      9  C   UNL     1      20.957  -8.401  25.823  0.00  0.00    +0.000 A 
ENDROOT
BRANCH   1  14
ATOM     10  C   UNL     1      25.524  -8.690  22.359  0.00  0.00    +0.000 C 
ATOM     11  C   UNL     1      24.585  -7.937  23.230  0.00  0.00    +0.000 A 
ATOM     12  C   UNL     1      24.853  -6.652  23.665  0.00  0.00    +0.000 A 
ATOM     13  C   UNL     1      23.757  -6.317  24.434  0.00  0.00    +0.000 A 
ATOM     14  C   UNL     1      22.863  -7.394  24.445  0.00  0.00    +0.000 A 
ATOM     15  O   UNL     1      23.440  -8.289  23.713  0.00  0.00    +0.000 OA
ENDBRANCH   1  14
BRANCH   9  16
ATOM     16  N   UNL     1      21.337  -9.706  26.056  0.00  0.00    +0.000 NA
BRANCH  16  17
ATOM     17  C   UNL     1      22.188 -10.311  27.006  0.00  0.00    +0.000 C 
ATOM     18  C   UNL     1      22.378 -11.798  26.603  0.00  0.00    +0.000 C 
ATOM     19  C   UNL     1      20.957 -12.299  26.870  0.00  0.00    +0.000 C 
ATOM     20  C   UNL     1      20.670 -11.729  28.243  0.00  0.00    +0.000 C 
ATOM     21  C   UNL     1      21.491 -10.465  28.373  0.00  0.00    +0.000 C 
ENDBRANCH  16  17
ENDBRANCH   9  16
TORSDOF 3
ENDMDL
MODEL 10
REMARK VINA RESULT:      -5.6     31.019     33.381
REMARK  Name = 
REMARK  3 active torsions:
REMARK  status: ('A' for Active; 'I' for Inactive)
REMARK    1  A    between atoms: C_5  and  C_6
REMARK    2  A    between atoms: C_14  and  N_15
REMARK    3  A    between atoms: N_15  and  C_16
REMARK                            x       y       z     vdW  Elec       q    Type
REMARK                         _______ _______ _______ _____ _____    ______ ____
ROOT
ATOM      1  C   UNL     1      33.511   0.446  34.514  0.00  0.00    +0.000 A 
ATOM      2  N   UNL     1      33.652  -0.406  33.457  0.00  0.00    +0.000 NA
ATOM      3  C   UNL     1      33.516  -1.665  33.858  0.00  0.00    +0.000 A 
ATOM      4  N   UNL     1      33.577  -2.822  33.173  0.00  0.00    +0.000 NA
ATOM      5  C   UNL     1      33.413  -4.020  33.761  0.00  0.00    +0.000 A 
ATOM      6  C   UNL     1      33.173  -4.054  35.120  0.00  0.00    +0.000 A 
ATOM      7  C   UNL     1      33.118  -2.850  35.790  0.00  0.00    +0.000 A 
ATOM      8  N   UNL     1      33.290  -1.661  35.159  0.00  0.00    +0.000 N 
ATOM      9  C   UNL     1      33.280  -0.363  35.600  0.00  0.00    +0.000 A 
ENDROOT
BRANCH   1  14
ATOM     10  C   UNL     1      34.181   5.273  35.635  0.00  0.00    +0.000 C 
ATOM     11  C   UNL     1      33.916   4.004  34.909  0.00  0.00    +0.000 A 
ATOM     12  C   UNL     1      33.634   3.974  33.556  0.00  0.00    +0.000 A 
ATOM     13  C   UNL     1      33.455   2.635  33.275  0.00  0.00    +0.000 A 
ATOM     14  C   UNL     1      33.630   1.896  34.450  0.00  0.00    +0.000 A 
ATOM     15  O   UNL     1      33.895   2.789  35.347  0.00  0.00    +0.000 OA
ENDBRANCH   1  14
BRANCH   9  16
ATOM     16  N   UNL     1      33.032  -0.055  36.921  0.00  0.00    +0.000 NA
BRANCH  16  17
ATOM     17  C   UNL     1      33.697  -0.362  38.128  0.00  0.00    +0.000 C 
ATOM     18  C   UNL     1      33.342   0.736  39.165  0.00  0.00    +0.000 C 
ATOM     19  C   UNL     1      34.071   1.917  38.521  0.00  0.00    +0.000 C 
ATOM     20  C   UNL     1      35.430   1.323  38.214  0.00  0.00    +0.000 C 
ATOM     21  C   UNL     1      35.221  -0.160  38.000  0.00  0.00    +0.000 C 
ENDBRANCH  16  17
ENDBRANCH   9  16
TORSDOF 3
ENDMDL
