MODEL 1
REMARK VINA RESULT:      -7.4      0.000      0.000
REMARK  Name = 
REMARK  4 active torsions:
REMARK  status: ('A' for Active; 'I' for Inactive)
REMARK    1  A    between atoms: C_2  and  C_4
REMARK    2  A    between atoms: C_4  and  C_5
REMARK    3  A    between atoms: C_5  and  C_6
REMARK    4  A    between atoms: N_11  and  C_12
REMARK                            x       y       z     vdW  Elec       q    Type
REMARK                         _______ _______ _______ _____ _____    ______ ____
ROOT
ATOM      1  C   UNL     1      15.593  11.499  36.161  0.00  0.00    +0.000 C 
ATOM      2  C   UNL     1      16.273  12.839  36.018  0.00  0.00    +0.000 C 
ATOM      3  N   UNL     1      16.576  10.460  35.866  0.00  0.00    +0.000 NA
ATOM      4  C   UNL     1      16.726  10.568  34.431  0.00  0.00    +0.000 C 
ATOM      5  O   UNL     1      17.589  10.074  33.674  0.00  0.00    +0.000 OA
ATOM      6  N   UNL     1      15.658  11.384  33.978  0.00  0.00    +0.000 N 
ATOM      7  N   UNL     1      14.697  11.343  35.006  0.00  0.00    +0.000 NA
ENDROOT
BRANCH   6   8
ATOM      8  C   UNL     1      15.483  12.131  32.780  0.00  0.00    +0.000 A 
ATOM      9  C   UNL     1      14.357  12.937  32.607  0.00  0.00    +0.000 A 
ATOM     10  C   UNL     1      14.129  13.683  31.474  0.00  0.00    +0.000 A 
ATOM     11  C   UNL     1      15.057  13.643  30.439  0.00  0.00    +0.000 A 
ATOM     12  C   UNL     1      16.172  12.844  30.610  0.00  0.00    +0.000 A 
ATOM     13  C   UNL     1      16.390  12.103  31.748  0.00  0.00    +0.000 A 
ENDBRANCH   6   8
BRANCH   1  14
ATOM     14  C   UNL     1      14.901  11.360  37.456  0.00  0.00    +0.000 C 
BRANCH  14  15
ATOM     15  C   UNL     1      13.588  12.053  37.558  0.00  0.00    +0.000 C 
BRANCH  15  17
ATOM     16  C   UNL     1      12.678  10.230  38.974  0.00  0.00    +0.000 C 
ATOM     17  C   UNL     1      12.561  11.050  37.939  0.00  0.00    +0.000 C 
ATOM     18  C   UNL     1      11.327  10.957  37.116  0.00  0.00    +0.000 C 
ENDBRANCH  15  17
ENDBRANCH  14  15
ENDBRANCH   1  14
TORSDOF 4
ENDMDL
MODEL 2
REMARK VINA RESULT:      -6.8      2.396      3.303
REMARK  Name = 
REMARK  4 active torsions:
REMARK  status: ('A' for Active; 'I' for Inactive)
REMARK    1  A    between atoms: C_2  and  C_4
REMARK    2  A    between atoms: C_4  and  C_5
REMARK    3  A    between atoms: C_5  and  C_6
REMARK    4  A    between atoms: N_11  and  C_12
REMARK                            x       y       z     vdW  Elec       q    Type
REMARK                         _______ _______ _______ _____ _____    ______ ____
ROOT
ATOM      1  C   UNL     1      16.618  11.097  36.857  0.00  0.00    +0.000 C 
ATOM      2  C   UNL     1      17.234  12.460  36.654  0.00  0.00    +0.000 C 
ATOM      3  N   UNL     1      17.239  10.176  35.909  0.00  0.00    +0.000 NA
ATOM      4  C   UNL     1      16.657  10.583  34.648  0.00  0.00    +0.000 C 
ATOM      5  O   UNL     1      16.984  10.285  33.480  0.00  0.00    +0.000 OA
ATOM      6  N   UNL     1      15.571  11.438  34.968  0.00  0.00    +0.000 N 
ATOM      7  N   UNL     1      15.255  11.152  36.309  0.00  0.00    +0.000 NA
ENDROOT
BRANCH   6   8
ATOM      8  C   UNL     1      14.877  12.410  34.194  0.00  0.00    +0.000 A 
ATOM      9  C   UNL     1      14.908  12.357  32.800  0.00  0.00    +0.000 A 
ATOM     10  C   UNL     1      14.260  13.266  31.996  0.00  0.00    +0.000 A 
ATOM     11  C   UNL     1      13.534  14.295  32.584  0.00  0.00    +0.000 A 
ATOM     12  C   UNL     1      13.504  14.347  33.965  0.00  0.00    +0.000 A 
ATOM     13  C   UNL     1      14.155  13.432  34.761  0.00  0.00    +0.000 A 
ENDBRANCH   6   8
BRANCH   1  14
ATOM     14  C   UNL     1      16.660  10.671  38.268  0.00  0.00    +0.000 C 
BRANCH  14  15
ATOM     15  C   UNL     1      17.932  10.036  38.707  0.00  0.00    +0.000 C 
BRANCH  15  17
ATOM     16  C   UNL     1      18.256   7.958  40.024  0.00  0.00    +0.000 C 
ATOM     17  C   UNL     1      17.627   9.108  39.826  0.00  0.00    +0.000 C 
ATOM     18  C   UNL     1      16.553   9.485  40.783  0.00  0.00    +0.000 C 
ENDBRANCH  15  17
ENDBRANCH  14  15
ENDBRANCH   1  14
TORSDOF 4
ENDMDL
MODEL 3
REMARK VINA RESULT:      -6.7      1.612      5.758
REMARK  Name = 
REMARK  4 active torsions:
REMARK  status: ('A' for Active; 'I' for Inactive)
REMARK    1  A    between atoms: C_2  and  C_4
REMARK    2  A    between atoms: C_4  and  C_5
REMARK    3  A    between atoms: C_5  and  C_6
REMARK    4  A    between atoms: N_11  and  C_12
REMARK                            x       y       z     vdW  Elec       q    Type
REMARK                         _______ _______ _______ _____ _____    ______ ____
ROOT
ATOM      1  C   UNL     1      16.339  11.176  34.380  0.00  0.00    +0.000 C 
ATOM      2  C   UNL     1      16.601   9.916  35.170  0.00  0.00    +0.000 C 
ATOM      3  N   UNL     1      17.104  12.259  34.991  0.00  0.00    +0.000 NA
ATOM      4  C   UNL     1      16.370  12.513  36.211  0.00  0.00    +0.000 C 
ATOM      5  O   UNL     1      16.688  13.184  37.216  0.00  0.00    +0.000 OA
ATOM      6  N   UNL     1      15.132  11.831  36.081  0.00  0.00    +0.000 N 
ATOM      7  N   UNL     1      14.972  11.611  34.700  0.00  0.00    +0.000 NA
ENDROOT
BRANCH   6   8
ATOM      8  C   UNL     1      14.183  11.406  37.052  0.00  0.00    +0.000 A 
ATOM      9  C   UNL     1      12.820  11.398  36.752  0.00  0.00    +0.000 A 
ATOM     10  C   UNL     1      11.853  10.999  37.645  0.00  0.00    +0.000 A 
ATOM     11  C   UNL     1      12.234  10.582  38.915  0.00  0.00    +0.000 A 
ATOM     12  C   UNL     1      13.584  10.591  39.212  0.00  0.00    +0.000 A 
ATOM     13  C   UNL     1      14.544  10.991  38.311  0.00  0.00    +0.000 A 
ENDBRANCH   6   8
BRANCH   1  14
ATOM     14  C   UNL     1      16.564  10.984  32.935  0.00  0.00    +0.000 C 
BRANCH  14  15
ATOM     15  C   UNL     1      16.271  12.165  32.080  0.00  0.00    +0.000 C 
BRANCH  15  17
ATOM     16  C   UNL     1      14.473  10.700  31.196  0.00  0.00    +0.000 C 
ATOM     17  C   UNL     1      15.005  11.905  31.345  0.00  0.00    +0.000 C 
ATOM     18  C   UNL     1      14.291  13.060  30.740  0.00  0.00    +0.000 C 
ENDBRANCH  15  17
ENDBRANCH  14  15
ENDBRANCH   1  14
TORSDOF 4
ENDMDL
MODEL 4
REMARK VINA RESULT:      -6.7      2.927      4.470
REMARK  Name = 
REMARK  4 active torsions:
REMARK  status: ('A' for Active; 'I' for Inactive)
REMARK    1  A    between atoms: C_2  and  C_4
REMARK    2  A    between atoms: C_4  and  C_5
REMARK    3  A    between atoms: C_5  and  C_6
REMARK    4  A    between atoms: N_11  and  C_12
REMARK                            x       y       z     vdW  Elec       q    Type
REMARK                         _______ _______ _______ _____ _____    ______ ____
ROOT
ATOM      1  C   UNL     1      16.518  11.526  36.810  0.00  0.00    +0.000 C 
ATOM      2  C   UNL     1      16.614  10.641  35.591  0.00  0.00    +0.000 C 
ATOM      3  N   UNL     1      15.305  11.163  37.537  0.00  0.00    +0.000 NA
ATOM      4  C   UNL     1      14.260  11.701  36.693  0.00  0.00    +0.000 C 
ATOM      5  O   UNL     1      13.027  11.501  36.715  0.00  0.00    +0.000 OA
ATOM      6  N   UNL     1      14.901  12.562  35.765  0.00  0.00    +0.000 N 
ATOM      7  N   UNL     1      16.147  12.869  36.342  0.00  0.00    +0.000 NA
ENDROOT
BRANCH   6   8
ATOM      8  C   UNL     1      14.483  13.065  34.502  0.00  0.00    +0.000 A 
ATOM      9  C   UNL     1      14.879  12.432  33.323  0.00  0.00    +0.000 A 
ATOM     10  C   UNL     1      14.510  12.869  32.071  0.00  0.00    +0.000 A 
ATOM     11  C   UNL     1      13.703  13.995  31.957  0.00  0.00    +0.000 A 
ATOM     12  C   UNL     1      13.311  14.622  33.125  0.00  0.00    +0.000 A 
ATOM     13  C   UNL     1      13.685  14.177  34.372  0.00  0.00    +0.000 A 
ENDBRANCH   6   8
BRANCH   1  14
ATOM     14  C   UNL     1      17.758  11.512  37.609  0.00  0.00    +0.000 C 
BRANCH  14  15
ATOM     15  C   UNL     1      18.423  10.187  37.734  0.00  0.00    +0.000 C 
BRANCH  15  17
ATOM     16  C   UNL     1      20.747   9.871  36.920  0.00  0.00    +0.000 C 
ATOM     17  C   UNL     1      19.892  10.407  37.780  0.00  0.00    +0.000 C 
ATOM     18  C   UNL     1      20.441  11.278  38.853  0.00  0.00    +0.000 C 
ENDBRANCH  15  17
ENDBRANCH  14  15
ENDBRANCH   1  14
TORSDOF 4
ENDMDL
MODEL 5
REMARK VINA RESULT:      -6.5     17.744     20.105
REMARK  Name = 
REMARK  4 active torsions:
REMARK  status: ('A' for Active; 'I' for Inactive)
REMARK    1  A    between atoms: C_2  and  C_4
REMARK    2  A    between atoms: C_4  and  C_5
REMARK    3  A    between atoms: C_5  and  C_6
REMARK    4  A    between atoms: N_11  and  C_12
REMARK                            x       y       z     vdW  Elec       q    Type
REMARK                         _______ _______ _______ _____ _____    ______ ____
ROOT
ATOM      1  C   UNL     1      26.435  23.646  25.595  0.00  0.00    +0.000 C 
ATOM      2  C   UNL     1      27.803  23.041  25.390  0.00  0.00    +0.000 C 
ATOM      3  N   UNL     1      25.478  22.876  24.804  0.00  0.00    +0.000 NA
ATOM      4  C   UNL     1      25.786  23.286  23.451  0.00  0.00    +0.000 C 
ATOM      5  O   UNL     1      25.429  22.792  22.361  0.00  0.00    +0.000 OA
ATOM      6  N   UNL     1      26.623  24.427  23.561  0.00  0.00    +0.000 N 
ATOM      7  N   UNL     1      26.410  24.920  24.862  0.00  0.00    +0.000 NA
ENDROOT
BRANCH   6   8
ATOM      8  C   UNL     1      27.521  25.030  22.638  0.00  0.00    +0.000 A 
ATOM      9  C   UNL     1      27.419  26.389  22.337  0.00  0.00    +0.000 A 
ATOM     10  C   UNL     1      28.255  27.031  21.453  0.00  0.00    +0.000 A 
ATOM     11  C   UNL     1      29.257  26.306  20.819  0.00  0.00    +0.000 A 
ATOM     12  C   UNL     1      29.358  24.960  21.117  0.00  0.00    +0.000 A 
ATOM     13  C   UNL     1      28.517  24.327  22.003  0.00  0.00    +0.000 A 
ENDBRANCH   6   8
BRANCH   1  14
ATOM     14  C   UNL     1      26.098  23.790  27.024  0.00  0.00    +0.000 C 
BRANCH  14  15
ATOM     15  C   UNL     1      26.990  23.066  27.968  0.00  0.00    +0.000 C 
BRANCH  15  17
ATOM     16  C   UNL     1      25.849  24.284  29.805  0.00  0.00    +0.000 C 
ATOM     17  C   UNL     1      26.414  23.182  29.333  0.00  0.00    +0.000 C 
ATOM     18  C   UNL     1      26.474  21.995  30.227  0.00  0.00    +0.000 C 
ENDBRANCH  15  17
ENDBRANCH  14  15
ENDBRANCH   1  14
TORSDOF 4
ENDMDL
MODEL 6
REMARK VINA RESULT:      -6.2      3.032      6.516
REMARK  Name = 
REMARK  4 active torsions:
REMARK  status: ('A' for Active; 'I' for Inactive)
REMARK    1  A    between atoms: C_2  and  C_4
REMARK    2  A    between atoms: C_4  and  C_5
REMARK    3  A    between atoms: C_5  and  C_6
REMARK    4  A    between atoms: N_11  and  C_12
REMARK                            x       y       z     vdW  Elec       q    Type
REMARK                         _______ _______ _______ _____ _____    ______ ____
ROOT
ATOM      1  C   UNL     1      16.441  11.255  35.361  0.00  0.00    +0.000 C 
ATOM      2  C   UNL     1      17.459  10.187  35.041  0.00  0.00    +0.000 C 
ATOM      3  N   UNL     1      17.161  12.477  35.706  0.00  0.00    +0.000 NA
ATOM      4  C   UNL     1      17.694  12.170  37.015  0.00  0.00    +0.000 C 
ATOM      5  O   UNL     1      18.562  12.764  37.690  0.00  0.00    +0.000 OA
ATOM      6  N   UNL     1      17.026  10.997  37.452  0.00  0.00    +0.000 N 
ATOM      7  N   UNL     1      15.859  10.921  36.669  0.00  0.00    +0.000 NA
ENDROOT
BRANCH   6   8
ATOM      8  C   UNL     1      17.362  10.034  38.444  0.00  0.00    +0.000 A 
ATOM      9  C   UNL     1      16.585   9.905  39.596  0.00  0.00    +0.000 A 
ATOM     10  C   UNL     1      16.857   8.995  40.591  0.00  0.00    +0.000 A 
ATOM     11  C   UNL     1      17.956   8.154  40.460  0.00  0.00    +0.000 A 
ATOM     12  C   UNL     1      18.725   8.283  39.318  0.00  0.00    +0.000 A 
ATOM     13  C   UNL     1      18.445   9.196  38.328  0.00  0.00    +0.000 A 
ENDBRANCH   6   8
BRANCH   1  14
ATOM     14  C   UNL     1      15.431  11.399  34.296  0.00  0.00    +0.000 C 
BRANCH  14  15
ATOM     15  C   UNL     1      15.971  11.626  32.928  0.00  0.00    +0.000 C 
BRANCH  15  17
ATOM     16  C   UNL     1      14.405   9.917  32.040  0.00  0.00    +0.000 C 
ATOM     17  C   UNL     1      14.985  11.106  31.946  0.00  0.00    +0.000 C 
ATOM     18  C   UNL     1      14.622  11.965  30.789  0.00  0.00    +0.000 C 
ENDBRANCH  15  17
ENDBRANCH  14  15
ENDBRANCH   1  14
TORSDOF 4
ENDMDL
MODEL 7
REMARK VINA RESULT:      -6.0     20.005     23.300
REMARK  Name = 
REMARK  4 active torsions:
REMARK  status: ('A' for Active; 'I' for Inactive)
REMARK    1  A    between atoms: C_2  and  C_4
REMARK    2  A    between atoms: C_4  and  C_5
REMARK    3  A    between atoms: C_5  and  C_6
REMARK    4  A    between atoms: N_11  and  C_12
REMARK                            x       y       z     vdW  Elec       q    Type
REMARK                         _______ _______ _______ _____ _____    ______ ____
ROOT
ATOM      1  C   UNL     1      28.724  25.211  21.792  0.00  0.00    +0.000 C 
ATOM      2  C   UNL     1      28.584  26.113  22.994  0.00  0.00    +0.000 C 
ATOM      3  N   UNL     1      27.413  24.639  21.501  0.00  0.00    +0.000 NA
ATOM      4  C   UNL     1      27.241  23.684  22.575  0.00  0.00    +0.000 C 
ATOM      5  O   UNL     1      26.220  23.067  22.946  0.00  0.00    +0.000 OA
ATOM      6  N   UNL     1      28.512  23.542  23.188  0.00  0.00    +0.000 N 
ATOM      7  N   UNL     1      29.439  24.006  22.236  0.00  0.00    +0.000 NA
ENDROOT
BRANCH   6   8
ATOM      8  C   UNL     1      28.891  23.059  24.472  0.00  0.00    +0.000 A 
ATOM      9  C   UNL     1      30.214  22.698  24.729  0.00  0.00    +0.000 A 
ATOM     10  C   UNL     1      30.644  22.223  25.947  0.00  0.00    +0.000 A 
ATOM     11  C   UNL     1      29.729  22.090  26.984  0.00  0.00    +0.000 A 
ATOM     12  C   UNL     1      28.418  22.447  26.729  0.00  0.00    +0.000 A 
ATOM     13  C   UNL     1      27.998  22.921  25.507  0.00  0.00    +0.000 A 
ENDBRANCH   6   8
BRANCH   1  14
ATOM     14  C   UNL     1      29.380  25.890  20.659  0.00  0.00    +0.000 C 
BRANCH  14  15
ATOM     15  C   UNL     1      29.341  27.377  20.695  0.00  0.00    +0.000 C 
BRANCH  15  17
ATOM     16  C   UNL     1      30.251  27.142  18.398  0.00  0.00    +0.000 C 
ATOM     17  C   UNL     1      29.994  27.889  19.462  0.00  0.00    +0.000 C 
ATOM     18  C   UNL     1      30.384  29.323  19.415  0.00  0.00    +0.000 C 
ENDBRANCH  15  17
ENDBRANCH  14  15
ENDBRANCH   1  14
TORSDOF 4
ENDMDL
MODEL 8
REMARK VINA RESULT:      -6.0     21.640     23.614
REMARK  Name = 
REMARK  4 active torsions:
REMARK  status: ('A' for Active; 'I' for Inactive)
REMARK    1  A    between atoms: C_2  and  C_4
REMARK    2  A    between atoms: C_4  and  C_5
REMARK    3  A    between atoms: C_5  and  C_6
REMARK    4  A    between atoms: N_11  and  C_12
REMARK                            x       y       z     vdW  Elec       q    Type
REMARK                         _______ _______ _______ _____ _____    ______ ____
ROOT
ATOM      1  C   UNL     1      23.092  -7.550  24.022  0.00  0.00    +0.000 C 
ATOM      2  C   UNL     1      22.515  -6.247  23.523  0.00  0.00    +0.000 C 
ATOM      3  N   UNL     1      22.455  -8.638  23.285  0.00  0.00    +0.000 NA
ATOM      4  C   UNL     1      21.124  -8.663  23.850  0.00  0.00    +0.000 C 
ATOM      5  O   UNL     1      20.093  -9.247  23.453  0.00  0.00    +0.000 OA
ATOM      6  N   UNL     1      21.172  -7.863  25.020  0.00  0.00    +0.000 N 
ATOM      7  N   UNL     1      22.536  -7.785  25.362  0.00  0.00    +0.000 NA
ENDROOT
BRANCH   6   8
ATOM      8  C   UNL     1      20.145  -7.222  25.768  0.00  0.00    +0.000 A 
ATOM      9  C   UNL     1      20.000  -5.835  25.724  0.00  0.00    +0.000 A 
ATOM     10  C   UNL     1      19.029  -5.155  26.424  0.00  0.00    +0.000 A 
ATOM     11  C   UNL     1      18.141  -5.870  27.218  0.00  0.00    +0.000 A 
ATOM     12  C   UNL     1      18.286  -7.244  27.262  0.00  0.00    +0.000 A 
ATOM     13  C   UNL     1      19.260  -7.914  26.558  0.00  0.00    +0.000 A 
ENDBRANCH   6   8
BRANCH   1  14
ATOM     14  C   UNL     1      24.567  -7.552  23.997  0.00  0.00    +0.000 C 
BRANCH  14  15
ATOM     15  C   UNL     1      25.184  -7.970  22.709  0.00  0.00    +0.000 C 
BRANCH  15  17
ATOM     16  C   UNL     1      27.611  -7.645  22.304  0.00  0.00    +0.000 C 
ATOM     17  C   UNL     1      26.624  -8.247  22.952  0.00  0.00    +0.000 C 
ATOM     18  C   UNL     1      26.983  -9.258  23.980  0.00  0.00    +0.000 C 
ENDBRANCH  15  17
ENDBRANCH  14  15
ENDBRANCH   1  14
TORSDOF 4
ENDMDL
MODEL 9
REMARK VINA RESULT:      -5.8     20.465     21.594
REMARK  Name = 
REMARK  4 active torsions:
REMARK  status: ('A' for Active; 'I' for Inactive)
REMARK    1  A    between atoms: C_2  and  C_4
REMARK    2  A    between atoms: C_4  and  C_5
REMARK    3  A    between atoms: C_5  and  C_6
REMARK    4  A    between atoms: N_11  and  C_12
REMARK                            x       y       z     vdW  Elec       q    Type
REMARK                         _______ _______ _______ _____ _____    ______ ____
ROOT
ATOM      1  C   UNL     1      24.054   3.541  17.592  0.00  0.00    +0.000 C 
ATOM      2  C   UNL     1      23.850   3.564  16.097  0.00  0.00    +0.000 C 
ATOM      3  N   UNL     1      24.752   2.305  17.935  0.00  0.00    +0.000 NA
ATOM      4  C   UNL     1      23.724   1.303  17.757  0.00  0.00    +0.000 C 
ATOM      5  O   UNL     1      23.816   0.058  17.704  0.00  0.00    +0.000 OA
ATOM      6  N   UNL     1      22.497   2.007  17.646  0.00  0.00    +0.000 N 
ATOM      7  N   UNL     1      22.744   3.275  18.204  0.00  0.00    +0.000 NA
ENDROOT
BRANCH   6   8
ATOM      8  C   UNL     1      21.237   1.625  17.107  0.00  0.00    +0.000 A 
ATOM      9  C   UNL     1      20.053   2.017  17.733  0.00  0.00    +0.000 A 
ATOM     10  C   UNL     1      18.804   1.681  17.264  0.00  0.00    +0.000 A 
ATOM     11  C   UNL     1      18.697   0.913  16.110  0.00  0.00    +0.000 A 
ATOM     12  C   UNL     1      19.871   0.525  15.490  0.00  0.00    +0.000 A 
ATOM     13  C   UNL     1      21.115   0.867  15.968  0.00  0.00    +0.000 A 
ENDBRANCH   6   8
BRANCH   1  14
ATOM     14  C   UNL     1      24.686   4.779  18.088  0.00  0.00    +0.000 C 
BRANCH  14  15
ATOM     15  C   UNL     1      26.142   4.682  18.375  0.00  0.00    +0.000 C 
BRANCH  15  17
ATOM     16  C   UNL     1      27.836   6.451  18.781  0.00  0.00    +0.000 C 
ATOM     17  C   UNL     1      26.749   6.021  18.155  0.00  0.00    +0.000 C 
ATOM     18  C   UNL     1      26.103   6.935  17.176  0.00  0.00    +0.000 C 
ENDBRANCH  15  17
ENDBRANCH  14  15
ENDBRANCH   1  14
TORSDOF 4
ENDMDL
MODEL 10
REMARK VINA RESULT:      -5.8     19.422     21.633
REMARK  Name = 
REMARK  4 active torsions:
REMARK  status: ('A' for Active; 'I' for Inactive)
REMARK    1  A    between atoms: C_2  and  C_4
REMARK    2  A    between atoms: C_4  and  C_5
REMARK    3  A    between atoms: C_5  and  C_6
REMARK    4  A    between atoms: N_11  and  C_12
REMARK                            x       y       z     vdW  Elec       q    Type
REMARK                         _______ _______ _______ _____ _____    ______ ____
ROOT
ATOM      1  C   UNL     1      34.456   5.583  36.024  0.00  0.00    +0.000 C 
ATOM      2  C   UNL     1      33.710   4.629  36.925  0.00  0.00    +0.000 C 
ATOM      3  N   UNL     1      33.476   6.296  35.210  0.00  0.00    +0.000 NA
ATOM      4  C   UNL     1      33.042   5.279  34.277  0.00  0.00    +0.000 C 
ATOM      5  O   UNL     1      32.067   5.268  33.495  0.00  0.00    +0.000 OA
ATOM      6  N   UNL     1      33.969   4.211  34.393  0.00  0.00    +0.000 N 
ATOM      7  N   UNL     1      35.113   4.774  34.987  0.00  0.00    +0.000 NA
ENDROOT
BRANCH   6   8
ATOM      8  C   UNL     1      33.875   2.838  34.032  0.00  0.00    +0.000 A 
ATOM      9  C   UNL     1      33.644   1.865  35.006  0.00  0.00    +0.000 A 
ATOM     10  C   UNL     1      33.544   0.522  34.723  0.00  0.00    +0.000 A 
ATOM     11  C   UNL     1      33.677   0.095  33.407  0.00  0.00    +0.000 A 
ATOM     12  C   UNL     1      33.907   1.059  32.443  0.00  0.00    +0.000 A 
ATOM     13  C   UNL     1      34.005   2.400  32.736  0.00  0.00    +0.000 A 
ENDBRANCH   6   8
BRANCH   1  14
ATOM     14  C   UNL     1      35.394   6.440  36.773  0.00  0.00    +0.000 C 
BRANCH  14  15
ATOM     15  C   UNL     1      36.771   6.522  36.215  0.00  0.00    +0.000 C 
BRANCH  15  17
ATOM     16  C   UNL     1      38.534   6.734  37.949  0.00  0.00    +0.000 C 
ATOM     17  C   UNL     1      37.716   5.982  37.227  0.00  0.00    +0.000 C 
ATOM     18  C   UNL     1      37.748   4.512  37.446  0.00  0.00    +0.000 C 
ENDBRANCH  15  17
ENDBRANCH  14  15
ENDBRANCH   1  14
TORSDOF 4
ENDMDL
