MODEL 1
REMARK VINA RESULT:      -7.0      0.000      0.000
REMARK  Name = 
REMARK  10 active torsions:
REMARK  status: ('A' for Active; 'I' for Inactive)
REMARK    1  A    between atoms: N_2  and  C_4
REMARK    2  A    between atoms: C_4  and  C_5
REMARK    3  A    between atoms: C_5  and  C_6
REMARK    4  A    between atoms: C_6  and  N_7
REMARK    5  A    between atoms: N_7  and  C_8
REMARK    6  A    between atoms: C_9  and  S_10
REMARK    7  A    between atoms: S_10  and  C_11
REMARK    8  A    between atoms: C_11  and  C_12
REMARK    9  A    between atoms: N_20  and  C_21
REMARK   10  A    between atoms: C_21  and  C_22
REMARK                            x       y       z     vdW  Elec       q    Type
REMARK                         _______ _______ _______ _____ _____    ______ ____
ROOT
ATOM      1  C   UNL     1      36.584   4.061  14.858  0.00  0.00    +0.000 A 
ATOM      2  C   UNL     1      37.938   4.237  15.035  0.00  0.00    +0.000 A 
ATOM      3  C   UNL     1      38.704   3.118  15.277  0.00  0.00    +0.000 A 
ATOM      4  N   UNL     1      38.137   1.885  15.340  0.00  0.00    +0.000 NA
ATOM      5  N   UNL     1      36.836   1.745  15.167  0.00  0.00    +0.000 N 
ATOM      6  C   UNL     1      36.067   2.804  14.931  0.00  0.00    +0.000 A 
ATOM      7  O   UNL     1      34.820   2.597  14.774  0.00  0.00    +0.000 OA
ENDROOT
BRANCH   1   8
ATOM      8  N   UNL     1      35.757   5.168  14.609  0.00  0.00    +0.000 NA
BRANCH   8   9
ATOM      9  C   UNL     1      35.392   5.576  13.251  0.00  0.00    +0.000 C 
BRANCH   9  10
ATOM     10  C   UNL     1      34.872   6.986  13.228  0.00  0.00    +0.000 C 
BRANCH  10  11
ATOM     11  C   UNL     1      33.731   7.230  14.162  0.00  0.00    +0.000 C 
BRANCH  11  13
ATOM     12  C   UNL     1      34.612   9.474  14.058  0.00  0.00    +0.000 C 
ATOM     13  N   UNL     1      33.574   8.607  14.556  0.00  0.00    +0.000 NA
ATOM     14  C   UNL     1      33.378   8.706  15.983  0.00  0.00    +0.000 C 
ENDBRANCH  11  13
ENDBRANCH  10  11
ENDBRANCH   9  10
ENDBRANCH   8   9
ENDBRANCH   1   8
BRANCH   2  15
ATOM     15  S   UNL     1      38.662   5.863  14.948  0.00  0.00    +0.000 S 
BRANCH  15  16
ATOM     16  C   UNL     1      40.356   5.847  15.569  0.00  0.00    +0.000 C 
BRANCH  16  17
ATOM     17  C   UNL     1      40.419   6.032  17.041  0.00  0.00    +0.000 A 
ATOM     18  C   UNL     1      41.618   6.387  17.656  0.00  0.00    +0.000 A 
ATOM     19  C   UNL     1      41.721   6.569  19.020  0.00  0.00    +0.000 A 
ATOM     20  C   UNL     1      40.587   6.388  19.777  0.00  0.00    +0.000 A 
ATOM     21  C   UNL     1      39.392   6.042  19.225  0.00  0.00    +0.000 A 
ATOM     22  C   UNL     1      39.332   5.868  17.851  0.00  0.00    +0.000 A 
ENDBRANCH  16  17
ENDBRANCH  15  16
ENDBRANCH   2  15
BRANCH   5  23
ATOM     23  C   UNL     1      36.256   0.407  15.242  0.00  0.00    +0.000 C 
BRANCH  23  24
ATOM     24  C   UNL     1      36.381  -0.131  16.624  0.00  0.00    +0.000 A 
ATOM     25  C   UNL     1      35.663   0.387  17.679  0.00  0.00    +0.000 A 
ATOM     26  C   UNL     1      35.796  -0.132  18.967  0.00  0.00    +0.000 A 
ATOM     27  C   UNL     1      36.651  -1.182  19.225  0.00  0.00    +0.000 A 
ATOM     28  C   UNL     1      37.368  -1.696  18.165  0.00  0.00    +0.000 A 
ATOM     29  C   UNL     1      37.237  -1.183  16.890  0.00  0.00    +0.000 A 
ENDBRANCH  23  24
ENDBRANCH   5  23
TORSDOF 10
ENDMDL
MODEL 2
REMARK VINA RESULT:      -6.9      2.961      7.572
REMARK  Name = 
REMARK  10 active torsions:
REMARK  status: ('A' for Active; 'I' for Inactive)
REMARK    1  A    between atoms: N_2  and  C_4
REMARK    2  A    between atoms: C_4  and  C_5
REMARK    3  A    between atoms: C_5  and  C_6
REMARK    4  A    between atoms: C_6  and  N_7
REMARK    5  A    between atoms: N_7  and  C_8
REMARK    6  A    between atoms: C_9  and  S_10
REMARK    7  A    between atoms: S_10  and  C_11
REMARK    8  A    between atoms: C_11  and  C_12
REMARK    9  A    between atoms: N_20  and  C_21
REMARK   10  A    between atoms: C_21  and  C_22
REMARK                            x       y       z     vdW  Elec       q    Type
REMARK                         _______ _______ _______ _____ _____    ______ ____
ROOT
ATOM      1  C   UNL     1      38.277   2.745  15.414  0.00  0.00    +0.000 A 
ATOM      2  C   UNL     1      39.029   2.814  14.263  0.00  0.00    +0.000 A 
ATOM      3  C   UNL     1      39.615   4.021  13.951  0.00  0.00    +0.000 A 
ATOM      4  N   UNL     1      39.452   5.104  14.755  0.00  0.00    +0.000 NA
ATOM      5  N   UNL     1      38.725   5.010  15.853  0.00  0.00    +0.000 N 
ATOM      6  C   UNL     1      38.146   3.860  16.185  0.00  0.00    +0.000 A 
ATOM      7  O   UNL     1      37.459   3.839  17.257  0.00  0.00    +0.000 OA
ENDROOT
BRANCH   1   8
ATOM      8  N   UNL     1      37.657   1.539  15.779  0.00  0.00    +0.000 NA
BRANCH   8   9
ATOM      9  C   UNL     1      36.234   1.293  15.540  0.00  0.00    +0.000 C 
BRANCH   9  10
ATOM     10  C   UNL     1      35.680   0.304  16.526  0.00  0.00    +0.000 C 
BRANCH  10  11
ATOM     11  C   UNL     1      36.704  -0.613  17.111  0.00  0.00    +0.000 C 
BRANCH  11  13
ATOM     12  C   UNL     1      37.560  -1.577  19.151  0.00  0.00    +0.000 C 
ATOM     13  N   UNL     1      36.894  -0.459  18.531  0.00  0.00    +0.000 NA
ATOM     14  C   UNL     1      35.649  -0.104  19.173  0.00  0.00    +0.000 C 
ENDBRANCH  11  13
ENDBRANCH  10  11
ENDBRANCH   9  10
ENDBRANCH   8   9
ENDBRANCH   1   8
BRANCH   2  15
ATOM     15  S   UNL     1      39.230   1.382  13.223  0.00  0.00    +0.000 S 
BRANCH  15  16
ATOM     16  C   UNL     1      40.273   0.146  14.024  0.00  0.00    +0.000 C 
BRANCH  16  17
ATOM     17  C   UNL     1      39.512  -1.070  14.409  0.00  0.00    +0.000 A 
ATOM     18  C   UNL     1      38.345  -1.414  13.729  0.00  0.00    +0.000 A 
ATOM     19  C   UNL     1      37.607  -2.535  14.054  0.00  0.00    +0.000 A 
ATOM     20  C   UNL     1      38.060  -3.322  15.086  0.00  0.00    +0.000 A 
ATOM     21  C   UNL     1      39.193  -3.029  15.781  0.00  0.00    +0.000 A 
ATOM     22  C   UNL     1      39.904  -1.895  15.423  0.00  0.00    +0.000 A 
ENDBRANCH  16  17
ENDBRANCH  15  16
ENDBRANCH   2  15
BRANCH   5  23
ATOM     23  C   UNL     1      38.568   6.192  16.696  0.00  0.00    +0.000 C 
BRANCH  23  24
ATOM     24  C   UNL     1      39.681   6.272  17.681  0.00  0.00    +0.000 A 
ATOM     25  C   UNL     1      39.465   6.191  19.039  0.00  0.00    +0.000 A 
ATOM     26  C   UNL     1      40.523   6.269  19.944  0.00  0.00    +0.000 A 
ATOM     27  C   UNL     1      41.822   6.428  19.508  0.00  0.00    +0.000 A 
ATOM     28  C   UNL     1      42.031   6.508  18.148  0.00  0.00    +0.000 A 
ATOM     29  C   UNL     1      40.985   6.432  17.251  0.00  0.00    +0.000 A 
ENDBRANCH  23  24
ENDBRANCH   5  23
TORSDOF 10
ENDMDL
MODEL 3
REMARK VINA RESULT:      -6.8      1.609      2.106
REMARK  Name = 
REMARK  10 active torsions:
REMARK  status: ('A' for Active; 'I' for Inactive)
REMARK    1  A    between atoms: N_2  and  C_4
REMARK    2  A    between atoms: C_4  and  C_5
REMARK    3  A    between atoms: C_5  and  C_6
REMARK    4  A    between atoms: C_6  and  N_7
REMARK    5  A    between atoms: N_7  and  C_8
REMARK    6  A    between atoms: C_9  and  S_10
REMARK    7  A    between atoms: S_10  and  C_11
REMARK    8  A    between atoms: C_11  and  C_12
REMARK    9  A    between atoms: N_20  and  C_21
REMARK   10  A    between atoms: C_21  and  C_22
REMARK                            x       y       z     vdW  Elec       q    Type
REMARK                         _______ _______ _______ _____ _____    ______ ____
ROOT
ATOM      1  C   UNL     1      36.337   3.954  14.975  0.00  0.00    +0.000 A 
ATOM      2  C   UNL     1      37.328   4.427  15.805  0.00  0.00    +0.000 A 
ATOM      3  C   UNL     1      37.555   3.749  16.983  0.00  0.00    +0.000 A 
ATOM      4  N   UNL     1      36.824   2.651  17.308  0.00  0.00    +0.000 NA
ATOM      5  N   UNL     1      35.880   2.219  16.494  0.00  0.00    +0.000 N 
ATOM      6  C   UNL     1      35.634   2.850  15.349  0.00  0.00    +0.000 A 
ATOM      7  O   UNL     1      34.709   2.379  14.610  0.00  0.00    +0.000 OA
ENDROOT
BRANCH   1   8
ATOM      8  N   UNL     1      36.063   4.607  13.763  0.00  0.00    +0.000 NA
BRANCH   8   9
ATOM      9  C   UNL     1      35.069   5.678  13.664  0.00  0.00    +0.000 C 
BRANCH   9  10
ATOM     10  C   UNL     1      35.164   6.387  12.343  0.00  0.00    +0.000 C 
BRANCH  10  11
ATOM     11  C   UNL     1      33.899   7.060  11.920  0.00  0.00    +0.000 C 
BRANCH  11  13
ATOM     12  C   UNL     1      34.969   7.504   9.803  0.00  0.00    +0.000 C 
ATOM     13  N   UNL     1      34.055   7.972  10.815  0.00  0.00    +0.000 NA
ATOM     14  C   UNL     1      34.359   9.300  11.294  0.00  0.00    +0.000 C 
ENDBRANCH  11  13
ENDBRANCH  10  11
ENDBRANCH   9  10
ENDBRANCH   8   9
ENDBRANCH   1   8
BRANCH   2  15
ATOM     15  S   UNL     1      38.276   5.867  15.359  0.00  0.00    +0.000 S 
BRANCH  15  16
ATOM     16  C   UNL     1      39.817   5.939  16.296  0.00  0.00    +0.000 C 
BRANCH  16  17
ATOM     17  C   UNL     1      39.616   6.461  17.672  0.00  0.00    +0.000 A 
ATOM     18  C   UNL     1      40.495   6.107  18.694  0.00  0.00    +0.000 A 
ATOM     19  C   UNL     1      40.346   6.569  19.986  0.00  0.00    +0.000 A 
ATOM     20  C   UNL     1      39.288   7.406  20.248  0.00  0.00    +0.000 A 
ATOM     21  C   UNL     1      38.403   7.783  19.285  0.00  0.00    +0.000 A 
ATOM     22  C   UNL     1      38.588   7.295  18.001  0.00  0.00    +0.000 A 
ENDBRANCH  16  17
ENDBRANCH  15  16
ENDBRANCH   2  15
BRANCH   5  23
ATOM     23  C   UNL     1      35.109   1.038  16.872  0.00  0.00    +0.000 C 
BRANCH  23  24
ATOM     24  C   UNL     1      36.017  -0.021  17.395  0.00  0.00    +0.000 A 
ATOM     25  C   UNL     1      36.891  -0.704  16.579  0.00  0.00    +0.000 A 
ATOM     26  C   UNL     1      37.732  -1.692  17.089  0.00  0.00    +0.000 A 
ATOM     27  C   UNL     1      37.716  -2.017  18.429  0.00  0.00    +0.000 A 
ATOM     28  C   UNL     1      36.838  -1.330  19.241  0.00  0.00    +0.000 A 
ATOM     29  C   UNL     1      36.005  -0.352  18.737  0.00  0.00    +0.000 A 
ENDBRANCH  23  24
ENDBRANCH   5  23
TORSDOF 10
ENDMDL
MODEL 4
REMARK VINA RESULT:      -6.7      2.606      7.433
REMARK  Name = 
REMARK  10 active torsions:
REMARK  status: ('A' for Active; 'I' for Inactive)
REMARK    1  A    between atoms: N_2  and  C_4
REMARK    2  A    between atoms: C_4  and  C_5
REMARK    3  A    between atoms: C_5  and  C_6
REMARK    4  A    between atoms: C_6  and  N_7
REMARK    5  A    between atoms: N_7  and  C_8
REMARK    6  A    between atoms: C_9  and  S_10
REMARK    7  A    between atoms: S_10  and  C_11
REMARK    8  A    between atoms: C_11  and  C_12
REMARK    9  A    between atoms: N_20  and  C_21
REMARK   10  A    between atoms: C_21  and  C_22
REMARK                            x       y       z     vdW  Elec       q    Type
REMARK                         _______ _______ _______ _____ _____    ______ ____
ROOT
ATOM      1  C   UNL     1      37.789   3.785  16.164  0.00  0.00    +0.000 A 
ATOM      2  C   UNL     1      37.641   4.472  14.981  0.00  0.00    +0.000 A 
ATOM      3  C   UNL     1      37.820   5.838  15.006  0.00  0.00    +0.000 A 
ATOM      4  N   UNL     1      38.131   6.479  16.162  0.00  0.00    +0.000 NA
ATOM      5  N   UNL     1      38.266   5.796  17.283  0.00  0.00    +0.000 N 
ATOM      6  C   UNL     1      38.101   4.476  17.294  0.00  0.00    +0.000 A 
ATOM      7  O   UNL     1      38.246   3.879  18.410  0.00  0.00    +0.000 OA
ENDROOT
BRANCH   1   8
ATOM      8  N   UNL     1      37.617   2.392  16.195  0.00  0.00    +0.000 NA
BRANCH   8   9
ATOM      9  C   UNL     1      36.314   1.774  16.451  0.00  0.00    +0.000 C 
BRANCH   9  10
ATOM     10  C   UNL     1      36.226   0.412  15.824  0.00  0.00    +0.000 C 
BRANCH  10  11
ATOM     11  C   UNL     1      36.128  -0.708  16.808  0.00  0.00    +0.000 C 
BRANCH  11  13
ATOM     12  C   UNL     1      38.189  -1.885  17.242  0.00  0.00    +0.000 C 
ATOM     13  N   UNL     1      37.281  -0.848  17.662  0.00  0.00    +0.000 NA
ATOM     14  C   UNL     1      36.876  -0.962  19.044  0.00  0.00    +0.000 C 
ENDBRANCH  11  13
ENDBRANCH  10  11
ENDBRANCH   9  10
ENDBRANCH   8   9
ENDBRANCH   1   8
BRANCH   2  15
ATOM     15  S   UNL     1      37.235   3.611  13.475  0.00  0.00    +0.000 S 
BRANCH  15  16
ATOM     16  C   UNL     1      38.710   2.889  12.728  0.00  0.00    +0.000 C 
BRANCH  16  17
ATOM     17  C   UNL     1      38.873   1.454  13.077  0.00  0.00    +0.000 A 
ATOM     18  C   UNL     1      39.850   1.058  13.989  0.00  0.00    +0.000 A 
ATOM     19  C   UNL     1      40.035  -0.264  14.341  0.00  0.00    +0.000 A 
ATOM     20  C   UNL     1      39.216  -1.202  13.760  0.00  0.00    +0.000 A 
ATOM     21  C   UNL     1      38.247  -0.867  12.864  0.00  0.00    +0.000 A 
ATOM     22  C   UNL     1      38.094   0.471  12.537  0.00  0.00    +0.000 A 
ENDBRANCH  16  17
ENDBRANCH  15  16
ENDBRANCH   2  15
BRANCH   5  23
ATOM     23  C   UNL     1      38.599   6.514  18.510  0.00  0.00    +0.000 C 
BRANCH  23  24
ATOM     24  C   UNL     1      40.073   6.516  18.720  0.00  0.00    +0.000 A 
ATOM     25  C   UNL     1      40.634   6.440  19.976  0.00  0.00    +0.000 A 
ATOM     26  C   UNL     1      42.018   6.443  20.149  0.00  0.00    +0.000 A 
ATOM     27  C   UNL     1      42.870   6.522  19.068  0.00  0.00    +0.000 A 
ATOM     28  C   UNL     1      42.302   6.598  17.814  0.00  0.00    +0.000 A 
ATOM     29  C   UNL     1      40.933   6.595  17.641  0.00  0.00    +0.000 A 
ENDBRANCH  23  24
ENDBRANCH   5  23
TORSDOF 10
ENDMDL
MODEL 5
REMARK VINA RESULT:      -6.7      3.040      7.676
REMARK  Name = 
REMARK  10 active torsions:
REMARK  status: ('A' for Active; 'I' for Inactive)
REMARK    1  A    between atoms: N_2  and  C_4
REMARK    2  A    between atoms: C_4  and  C_5
REMARK    3  A    between atoms: C_5  and  C_6
REMARK    4  A    between atoms: C_6  and  N_7
REMARK    5  A    between atoms: N_7  and  C_8
REMARK    6  A    between atoms: C_9  and  S_10
REMARK    7  A    between atoms: S_10  and  C_11
REMARK    8  A    between atoms: C_11  and  C_12
REMARK    9  A    between atoms: N_20  and  C_21
REMARK   10  A    between atoms: C_21  and  C_22
REMARK                            x       y       z     vdW  Elec       q    Type
REMARK                         _______ _______ _______ _____ _____    ______ ____
ROOT
ATOM      1  C   UNL     1      36.852   2.190  15.026  0.00  0.00    +0.000 A 
ATOM      2  C   UNL     1      37.865   1.290  14.784  0.00  0.00    +0.000 A 
ATOM      3  C   UNL     1      39.147   1.782  14.670  0.00  0.00    +0.000 A 
ATOM      4  N   UNL     1      39.397   3.112  14.792  0.00  0.00    +0.000 NA
ATOM      5  N   UNL     1      38.407   3.953  15.024  0.00  0.00    +0.000 N 
ATOM      6  C   UNL     1      37.158   3.512  15.141  0.00  0.00    +0.000 A 
ATOM      7  O   UNL     1      36.251   4.378  15.364  0.00  0.00    +0.000 OA
ENDROOT
BRANCH   1   8
ATOM      8  N   UNL     1      35.527   1.743  15.151  0.00  0.00    +0.000 NA
BRANCH   8   9
ATOM      9  C   UNL     1      34.846   1.680  16.445  0.00  0.00    +0.000 C 
BRANCH   9  10
ATOM     10  C   UNL     1      34.928   0.301  17.036  0.00  0.00    +0.000 C 
BRANCH  10  11
ATOM     11  C   UNL     1      35.982   0.149  18.084  0.00  0.00    +0.000 C 
BRANCH  11  13
ATOM     12  C   UNL     1      37.455  -1.464  19.111  0.00  0.00    +0.000 C 
ATOM     13  N   UNL     1      36.148  -1.200  18.564  0.00  0.00    +0.000 NA
ATOM     14  C   UNL     1      35.745  -2.150  17.553  0.00  0.00    +0.000 C 
ENDBRANCH  11  13
ENDBRANCH  10  11
ENDBRANCH   9  10
ENDBRANCH   8   9
ENDBRANCH   1   8
BRANCH   2  15
ATOM     15  S   UNL     1      37.516  -0.450  14.628  0.00  0.00    +0.000 S 
BRANCH  15  16
ATOM     16  C   UNL     1      38.813  -1.438  15.400  0.00  0.00    +0.000 C 
BRANCH  16  17
ATOM     17  C   UNL     1      39.805  -1.937  14.412  0.00  0.00    +0.000 A 
ATOM     18  C   UNL     1      39.388  -2.373  13.156  0.00  0.00    +0.000 A 
ATOM     19  C   UNL     1      40.276  -2.844  12.209  0.00  0.00    +0.000 A 
ATOM     20  C   UNL     1      41.609  -2.873  12.540  0.00  0.00    +0.000 A 
ATOM     21  C   UNL     1      42.066  -2.458  13.753  0.00  0.00    +0.000 A 
ATOM     22  C   UNL     1      41.143  -1.993  14.676  0.00  0.00    +0.000 A 
ENDBRANCH  16  17
ENDBRANCH  15  16
ENDBRANCH   2  15
BRANCH   5  23
ATOM     23  C   UNL     1      38.708   5.377  15.149  0.00  0.00    +0.000 C 
BRANCH  23  24
ATOM     24  C   UNL     1      39.375   5.648  16.452  0.00  0.00    +0.000 A 
ATOM     25  C   UNL     1      40.659   6.140  16.529  0.00  0.00    +0.000 A 
ATOM     26  C   UNL     1      41.265   6.386  17.761  0.00  0.00    +0.000 A 
ATOM     27  C   UNL     1      40.597   6.146  18.943  0.00  0.00    +0.000 A 
ATOM     28  C   UNL     1      39.311   5.653  18.859  0.00  0.00    +0.000 A 
ATOM     29  C   UNL     1      38.711   5.408  17.641  0.00  0.00    +0.000 A 
ENDBRANCH  23  24
ENDBRANCH   5  23
TORSDOF 10
ENDMDL
MODEL 6
REMARK VINA RESULT:      -6.7      2.670      4.446
REMARK  Name = 
REMARK  10 active torsions:
REMARK  status: ('A' for Active; 'I' for Inactive)
REMARK    1  A    between atoms: N_2  and  C_4
REMARK    2  A    between atoms: C_4  and  C_5
REMARK    3  A    between atoms: C_5  and  C_6
REMARK    4  A    between atoms: C_6  and  N_7
REMARK    5  A    between atoms: N_7  and  C_8
REMARK    6  A    between atoms: C_9  and  S_10
REMARK    7  A    between atoms: S_10  and  C_11
REMARK    8  A    between atoms: C_11  and  C_12
REMARK    9  A    between atoms: N_20  and  C_21
REMARK   10  A    between atoms: C_21  and  C_22
REMARK                            x       y       z     vdW  Elec       q    Type
REMARK                         _______ _______ _______ _____ _____    ______ ____
ROOT
ATOM      1  C   UNL     1      37.097   2.935  14.385  0.00  0.00    +0.000 A 
ATOM      2  C   UNL     1      38.166   3.626  14.909  0.00  0.00    +0.000 A 
ATOM      3  C   UNL     1      39.413   3.049  14.811  0.00  0.00    +0.000 A 
ATOM      4  N   UNL     1      39.577   1.839  14.216  0.00  0.00    +0.000 NA
ATOM      5  N   UNL     1      38.535   1.198  13.722  0.00  0.00    +0.000 N 
ATOM      6  C   UNL     1      37.316   1.726  13.799  0.00  0.00    +0.000 A 
ATOM      7  O   UNL     1      36.356   1.054  13.302  0.00  0.00    +0.000 OA
ENDROOT
BRANCH   1   8
ATOM      8  N   UNL     1      35.804   3.476  14.458  0.00  0.00    +0.000 NA
BRANCH   8   9
ATOM      9  C   UNL     1      34.861   3.098  15.513  0.00  0.00    +0.000 C 
BRANCH   9  10
ATOM     10  C   UNL     1      35.501   2.172  16.507  0.00  0.00    +0.000 C 
BRANCH  10  11
ATOM     11  C   UNL     1      34.975   0.775  16.466  0.00  0.00    +0.000 C 
BRANCH  11  13
ATOM     12  C   UNL     1      36.202   0.477  18.523  0.00  0.00    +0.000 C 
ATOM     13  N   UNL     1      35.080   0.066  17.717  0.00  0.00    +0.000 NA
ATOM     14  C   UNL     1      35.023  -1.361  17.496  0.00  0.00    +0.000 C 
ENDBRANCH  11  13
ENDBRANCH  10  11
ENDBRANCH   9  10
ENDBRANCH   8   9
ENDBRANCH   1   8
BRANCH   2  15
ATOM     15  S   UNL     1      37.929   5.212  15.684  0.00  0.00    +0.000 S 
BRANCH  15  16
ATOM     16  C   UNL     1      38.127   5.090  17.474  0.00  0.00    +0.000 C 
BRANCH  16  17
ATOM     17  C   UNL     1      39.428   5.639  17.936  0.00  0.00    +0.000 A 
ATOM     18  C   UNL     1      39.638   5.908  19.287  0.00  0.00    +0.000 A 
ATOM     19  C   UNL     1      40.831   6.418  19.760  0.00  0.00    +0.000 A 
ATOM     20  C   UNL     1      41.830   6.659  18.847  0.00  0.00    +0.000 A 
ATOM     21  C   UNL     1      41.675   6.413  17.517  0.00  0.00    +0.000 A 
ATOM     22  C   UNL     1      40.461   5.902  17.084  0.00  0.00    +0.000 A 
ENDBRANCH  16  17
ENDBRANCH  15  16
ENDBRANCH   2  15
BRANCH   5  23
ATOM     23  C   UNL     1      38.743  -0.103  13.090  0.00  0.00    +0.000 C 
BRANCH  23  24
ATOM     24  C   UNL     1      39.076  -1.126  14.118  0.00  0.00    +0.000 A 
ATOM     25  C   UNL     1      38.216  -1.435  15.150  0.00  0.00    +0.000 A 
ATOM     26  C   UNL     1      38.548  -2.397  16.103  0.00  0.00    +0.000 A 
ATOM     27  C   UNL     1      39.749  -3.072  16.043  0.00  0.00    +0.000 A 
ATOM     28  C   UNL     1      40.606  -2.758  15.009  0.00  0.00    +0.000 A 
ATOM     29  C   UNL     1      40.278  -1.805  14.065  0.00  0.00    +0.000 A 
ENDBRANCH  23  24
ENDBRANCH   5  23
TORSDOF 10
ENDMDL
MODEL 7
REMARK VINA RESULT:      -6.7      2.434      6.692
REMARK  Name = 
REMARK  10 active torsions:
REMARK  status: ('A' for Active; 'I' for Inactive)
REMARK    1  A    between atoms: N_2  and  C_4
REMARK    2  A    between atoms: C_4  and  C_5
REMARK    3  A    between atoms: C_5  and  C_6
REMARK    4  A    between atoms: C_6  and  N_7
REMARK    5  A    between atoms: N_7  and  C_8
REMARK    6  A    between atoms: C_9  and  S_10
REMARK    7  A    between atoms: S_10  and  C_11
REMARK    8  A    between atoms: C_11  and  C_12
REMARK    9  A    between atoms: N_20  and  C_21
REMARK   10  A    between atoms: C_21  and  C_22
REMARK                            x       y       z     vdW  Elec       q    Type
REMARK                         _______ _______ _______ _____ _____    ______ ____
ROOT
ATOM      1  C   UNL     1      36.517   4.323  15.157  0.00  0.00    +0.000 A 
ATOM      2  C   UNL     1      36.236   3.279  16.008  0.00  0.00    +0.000 A 
ATOM      3  C   UNL     1      37.082   3.078  17.077  0.00  0.00    +0.000 A 
ATOM      4  N   UNL     1      38.156   3.886  17.278  0.00  0.00    +0.000 NA
ATOM      5  N   UNL     1      38.402   4.880  16.446  0.00  0.00    +0.000 N 
ATOM      6  C   UNL     1      37.605   5.103  15.404  0.00  0.00    +0.000 A 
ATOM      7  O   UNL     1      37.900   6.079  14.641  0.00  0.00    +0.000 OA
ENDROOT
BRANCH   1   8
ATOM      8  N   UNL     1      35.688   4.572  14.051  0.00  0.00    +0.000 NA
BRANCH   8   9
ATOM      9  C   UNL     1      34.644   5.599  14.078  0.00  0.00    +0.000 C 
BRANCH   9  10
ATOM     10  C   UNL     1      34.692   6.454  12.843  0.00  0.00    +0.000 C 
BRANCH  10  11
ATOM     11  C   UNL     1      35.715   6.024  11.843  0.00  0.00    +0.000 C 
BRANCH  11  13
ATOM     12  C   UNL     1      34.289   7.263  10.341  0.00  0.00    +0.000 C 
ATOM     13  N   UNL     1      35.573   6.641  10.548  0.00  0.00    +0.000 NA
ATOM     14  C   UNL     1      35.937   5.713   9.503  0.00  0.00    +0.000 C 
ENDBRANCH  11  13
ENDBRANCH  10  11
ENDBRANCH   9  10
ENDBRANCH   8   9
ENDBRANCH   1   8
BRANCH   2  15
ATOM     15  S   UNL     1      34.823   2.232  15.727  0.00  0.00    +0.000 S 
BRANCH  15  16
ATOM     16  C   UNL     1      34.725   0.934  16.977  0.00  0.00    +0.000 C 
BRANCH  16  17
ATOM     17  C   UNL     1      35.138  -0.392  16.447  0.00  0.00    +0.000 A 
ATOM     18  C   UNL     1      36.098  -0.479  15.441  0.00  0.00    +0.000 A 
ATOM     19  C   UNL     1      36.510  -1.689  14.920  0.00  0.00    +0.000 A 
ATOM     20  C   UNL     1      35.940  -2.832  15.428  0.00  0.00    +0.000 A 
ATOM     21  C   UNL     1      34.999  -2.800  16.411  0.00  0.00    +0.000 A 
ATOM     22  C   UNL     1      34.612  -1.565  16.906  0.00  0.00    +0.000 A 
ENDBRANCH  16  17
ENDBRANCH  15  16
ENDBRANCH   2  15
BRANCH   5  23
ATOM     23  C   UNL     1      39.564   5.730  16.688  0.00  0.00    +0.000 C 
BRANCH  23  24
ATOM     24  C   UNL     1      39.431   6.421  18.000  0.00  0.00    +0.000 A 
ATOM     25  C   UNL     1      38.421   7.323  18.253  0.00  0.00    +0.000 A 
ATOM     26  C   UNL     1      38.315   7.959  19.490  0.00  0.00    +0.000 A 
ATOM     27  C   UNL     1      39.218   7.704  20.500  0.00  0.00    +0.000 A 
ATOM     28  C   UNL     1      40.227   6.800  20.240  0.00  0.00    +0.000 A 
ATOM     29  C   UNL     1      40.333   6.170  19.017  0.00  0.00    +0.000 A 
ENDBRANCH  23  24
ENDBRANCH   5  23
TORSDOF 10
ENDMDL
MODEL 8
REMARK VINA RESULT:      -6.6      3.166      7.808
REMARK  Name = 
REMARK  10 active torsions:
REMARK  status: ('A' for Active; 'I' for Inactive)
REMARK    1  A    between atoms: N_2  and  C_4
REMARK    2  A    between atoms: C_4  and  C_5
REMARK    3  A    between atoms: C_5  and  C_6
REMARK    4  A    between atoms: C_6  and  N_7
REMARK    5  A    between atoms: N_7  and  C_8
REMARK    6  A    between atoms: C_9  and  S_10
REMARK    7  A    between atoms: S_10  and  C_11
REMARK    8  A    between atoms: C_11  and  C_12
REMARK    9  A    between atoms: N_20  and  C_21
REMARK   10  A    between atoms: C_21  and  C_22
REMARK                            x       y       z     vdW  Elec       q    Type
REMARK                         _______ _______ _______ _____ _____    ______ ____
ROOT
ATOM      1  C   UNL     1      37.861   2.837  14.944  0.00  0.00    +0.000 A 
ATOM      2  C   UNL     1      36.878   2.548  15.864  0.00  0.00    +0.000 A 
ATOM      3  C   UNL     1      36.918   3.207  17.073  0.00  0.00    +0.000 A 
ATOM      4  N   UNL     1      37.896   4.111  17.343  0.00  0.00    +0.000 NA
ATOM      5  N   UNL     1      38.826   4.369  16.443  0.00  0.00    +0.000 N 
ATOM      6  C   UNL     1      38.817   3.750  15.265  0.00  0.00    +0.000 A 
ATOM      7  O   UNL     1      39.744   4.047  14.444  0.00  0.00    +0.000 OA
ENDROOT
BRANCH   1   8
ATOM      8  N   UNL     1      37.869   2.193  13.697  0.00  0.00    +0.000 NA
BRANCH   8   9
ATOM      9  C   UNL     1      38.289   0.799  13.544  0.00  0.00    +0.000 C 
BRANCH   9  10
ATOM     10  C   UNL     1      39.531   0.515  14.340  0.00  0.00    +0.000 C 
BRANCH  10  11
ATOM     11  C   UNL     1      40.399  -0.551  13.755  0.00  0.00    +0.000 C 
BRANCH  11  13
ATOM     12  C   UNL     1      40.822  -2.640  14.887  0.00  0.00    +0.000 C 
ATOM     13  N   UNL     1      39.946  -1.894  14.019  0.00  0.00    +0.000 NA
ATOM     14  C   UNL     1      39.643  -2.577  12.783  0.00  0.00    +0.000 C 
ENDBRANCH  11  13
ENDBRANCH  10  11
ENDBRANCH   9  10
ENDBRANCH   8   9
ENDBRANCH   1   8
BRANCH   2  15
ATOM     15  S   UNL     1      35.605   1.360  15.490  0.00  0.00    +0.000 S 
BRANCH  15  16
ATOM     16  C   UNL     1      35.083   0.485  16.979  0.00  0.00    +0.000 C 
BRANCH  16  17
ATOM     17  C   UNL     1      36.143  -0.414  17.505  0.00  0.00    +0.000 A 
ATOM     18  C   UNL     1      36.234  -0.671  18.872  0.00  0.00    +0.000 A 
ATOM     19  C   UNL     1      37.203  -1.499  19.402  0.00  0.00    +0.000 A 
ATOM     20  C   UNL     1      38.095  -2.079  18.533  0.00  0.00    +0.000 A 
ATOM     21  C   UNL     1      38.048  -1.861  17.190  0.00  0.00    +0.000 A 
ATOM     22  C   UNL     1      37.061  -1.022  16.698  0.00  0.00    +0.000 A 
ENDBRANCH  16  17
ENDBRANCH  15  16
ENDBRANCH   2  15
BRANCH   5  23
ATOM     23  C   UNL     1      39.865   5.344  16.763  0.00  0.00    +0.000 C 
BRANCH  23  24
ATOM     24  C   UNL     1      39.413   6.230  17.871  0.00  0.00    +0.000 A 
ATOM     25  C   UNL     1      38.371   7.118  17.721  0.00  0.00    +0.000 A 
ATOM     26  C   UNL     1      37.964   7.938  18.772  0.00  0.00    +0.000 A 
ATOM     27  C   UNL     1      38.593   7.887  19.998  0.00  0.00    +0.000 A 
ATOM     28  C   UNL     1      39.636   6.997  20.142  0.00  0.00    +0.000 A 
ATOM     29  C   UNL     1      40.040   6.184  19.102  0.00  0.00    +0.000 A 
ENDBRANCH  23  24
ENDBRANCH   5  23
TORSDOF 10
ENDMDL
MODEL 9
REMARK VINA RESULT:      -6.6      2.788      4.835
REMARK  Name = 
REMARK  10 active torsions:
REMARK  status: ('A' for Active; 'I' for Inactive)
REMARK    1  A    between atoms: N_2  and  C_4
REMARK    2  A    between atoms: C_4  and  C_5
REMARK    3  A    between atoms: C_5  and  C_6
REMARK    4  A    between atoms: C_6  and  N_7
REMARK    5  A    between atoms: N_7  and  C_8
REMARK    6  A    between atoms: C_9  and  S_10
REMARK    7  A    between atoms: S_10  and  C_11
REMARK    8  A    between atoms: C_11  and  C_12
REMARK    9  A    between atoms: N_20  and  C_21
REMARK   10  A    between atoms: C_21  and  C_22
REMARK                            x       y       z     vdW  Elec       q    Type
REMARK                         _______ _______ _______ _____ _____    ______ ____
ROOT
ATOM      1  C   UNL     1      37.566   2.883  14.731  0.00  0.00    +0.000 A 
ATOM      2  C   UNL     1      37.836   3.812  15.710  0.00  0.00    +0.000 A 
ATOM      3  C   UNL     1      37.376   3.555  16.983  0.00  0.00    +0.000 A 
ATOM      4  N   UNL     1      36.680   2.421  17.257  0.00  0.00    +0.000 NA
ATOM      5  N   UNL     1      36.435   1.547  16.300  0.00  0.00    +0.000 N 
ATOM      6  C   UNL     1      36.865   1.763  15.060  0.00  0.00    +0.000 A 
ATOM      7  O   UNL     1      36.594   0.878  14.185  0.00  0.00    +0.000 OA
ENDROOT
BRANCH   1   8
ATOM      8  N   UNL     1      38.011   3.095  13.417  0.00  0.00    +0.000 NA
BRANCH   8   9
ATOM      9  C   UNL     1      39.038   2.255  12.798  0.00  0.00    +0.000 C 
BRANCH   9  10
ATOM     10  C   UNL     1      40.220   2.081  13.709  0.00  0.00    +0.000 C 
BRANCH  10  11
ATOM     11  C   UNL     1      40.391   0.690  14.226  0.00  0.00    +0.000 C 
BRANCH  11  13
ATOM     12  C   UNL     1      39.315  -1.370  13.575  0.00  0.00    +0.000 C 
ATOM     13  N   UNL     1      40.255  -0.335  13.222  0.00  0.00    +0.000 NA
ATOM     14  C   UNL     1      41.552  -0.843  12.838  0.00  0.00    +0.000 C 
ENDBRANCH  11  13
ENDBRANCH  10  11
ENDBRANCH   9  10
ENDBRANCH   8   9
ENDBRANCH   1   8
BRANCH   2  15
ATOM     15  S   UNL     1      38.751   5.292  15.330  0.00  0.00    +0.000 S 
BRANCH  15  16
ATOM     16  C   UNL     1      38.558   6.522  16.637  0.00  0.00    +0.000 C 
BRANCH  16  17
ATOM     17  C   UNL     1      39.675   6.485  17.615  0.00  0.00    +0.000 A 
ATOM     18  C   UNL     1      39.414   6.339  18.976  0.00  0.00    +0.000 A 
ATOM     19  C   UNL     1      40.421   6.299  19.919  0.00  0.00    +0.000 A 
ATOM     20  C   UNL     1      41.718   6.408  19.476  0.00  0.00    +0.000 A 
ATOM     21  C   UNL     1      42.025   6.552  18.157  0.00  0.00    +0.000 A 
ATOM     22  C   UNL     1      40.984   6.588  17.243  0.00  0.00    +0.000 A 
ENDBRANCH  16  17
ENDBRANCH  15  16
ENDBRANCH   2  15
BRANCH   5  23
ATOM     23  C   UNL     1      35.683   0.338  16.625  0.00  0.00    +0.000 C 
BRANCH  23  24
ATOM     24  C   UNL     1      36.523  -0.587  17.434  0.00  0.00    +0.000 A 
ATOM     25  C   UNL     1      36.330  -0.758  18.787  0.00  0.00    +0.000 A 
ATOM     26  C   UNL     1      37.129  -1.630  19.527  0.00  0.00    +0.000 A 
ATOM     27  C   UNL     1      38.140  -2.350  18.926  0.00  0.00    +0.000 A 
ATOM     28  C   UNL     1      38.329  -2.174  17.571  0.00  0.00    +0.000 A 
ATOM     29  C   UNL     1      37.539  -1.311  16.839  0.00  0.00    +0.000 A 
ENDBRANCH  23  24
ENDBRANCH   5  23
TORSDOF 10
ENDMDL
MODEL 10
REMARK VINA RESULT:      -6.6      2.027      6.044
REMARK  Name = 
REMARK  10 active torsions:
REMARK  status: ('A' for Active; 'I' for Inactive)
REMARK    1  A    between atoms: N_2  and  C_4
REMARK    2  A    between atoms: C_4  and  C_5
REMARK    3  A    between atoms: C_5  and  C_6
REMARK    4  A    between atoms: C_6  and  N_7
REMARK    5  A    between atoms: N_7  and  C_8
REMARK    6  A    between atoms: C_9  and  S_10
REMARK    7  A    between atoms: S_10  and  C_11
REMARK    8  A    between atoms: C_11  and  C_12
REMARK    9  A    between atoms: N_20  and  C_21
REMARK   10  A    between atoms: C_21  and  C_22
REMARK                            x       y       z     vdW  Elec       q    Type
REMARK                         _______ _______ _______ _____ _____    ______ ____
ROOT
ATOM      1  C   UNL     1      37.321   3.870  14.999  0.00  0.00    +0.000 A 
ATOM      2  C   UNL     1      36.672   3.080  15.920  0.00  0.00    +0.000 A 
ATOM      3  C   UNL     1      37.066   3.176  17.237  0.00  0.00    +0.000 A 
ATOM      4  N   UNL     1      38.062   4.022  17.607  0.00  0.00    +0.000 NA
ATOM      5  N   UNL     1      38.668   4.768  16.703  0.00  0.00    +0.000 N 
ATOM      6  C   UNL     1      38.312   4.701  15.423  0.00  0.00    +0.000 A 
ATOM      7  O   UNL     1      38.937   5.449  14.603  0.00  0.00    +0.000 OA
ENDROOT
BRANCH   1   8
ATOM      8  N   UNL     1      36.959   3.812  13.643  0.00  0.00    +0.000 NA
BRANCH   8   9
ATOM      9  C   UNL     1      36.119   4.835  13.018  0.00  0.00    +0.000 C 
BRANCH   9  10
ATOM     10  C   UNL     1      35.297   5.564  14.042  0.00  0.00    +0.000 C 
BRANCH  10  11
ATOM     11  C   UNL     1      34.526   6.720  13.495  0.00  0.00    +0.000 C 
BRANCH  11  13
ATOM     12  C   UNL     1      36.061   7.999  14.848  0.00  0.00    +0.000 C 
ATOM     13  N   UNL     1      34.804   7.977  14.143  0.00  0.00    +0.000 NA
ATOM     14  C   UNL     1      33.682   8.387  14.955  0.00  0.00    +0.000 C 
ENDBRANCH  11  13
ENDBRANCH  10  11
ENDBRANCH   9  10
ENDBRANCH   8   9
ENDBRANCH   1   8
BRANCH   2  15
ATOM     15  S   UNL     1      35.368   1.978  15.414  0.00  0.00    +0.000 S 
BRANCH  15  16
ATOM     16  C   UNL     1      35.944   0.268  15.391  0.00  0.00    +0.000 C 
BRANCH  16  17
ATOM     17  C   UNL     1      36.208  -0.257  16.755  0.00  0.00    +0.000 A 
ATOM     18  C   UNL     1      37.290  -1.104  16.986  0.00  0.00    +0.000 A 
ATOM     19  C   UNL     1      37.572  -1.615  18.237  0.00  0.00    +0.000 A 
ATOM     20  C   UNL     1      36.743  -1.260  19.274  0.00  0.00    +0.000 A 
ATOM     21  C   UNL     1      35.673  -0.436  19.101  0.00  0.00    +0.000 A 
ATOM     22  C   UNL     1      35.425   0.054  17.829  0.00  0.00    +0.000 A 
ENDBRANCH  16  17
ENDBRANCH  15  16
ENDBRANCH   2  15
BRANCH   5  23
ATOM     23  C   UNL     1      39.736   5.667  17.131  0.00  0.00    +0.000 C 
BRANCH  23  24
ATOM     24  C   UNL     1      39.246   6.569  18.210  0.00  0.00    +0.000 A 
ATOM     25  C   UNL     1      39.818   6.591  19.462  0.00  0.00    +0.000 A 
ATOM     26  C   UNL     1      39.343   7.444  20.458  0.00  0.00    +0.000 A 
ATOM     27  C   UNL     1      38.283   8.294  20.221  0.00  0.00    +0.000 A 
ATOM     28  C   UNL     1      37.715   8.267  18.965  0.00  0.00    +0.000 A 
ATOM     29  C   UNL     1      38.184   7.423  17.978  0.00  0.00    +0.000 A 
ENDBRANCH  23  24
ENDBRANCH   5  23
TORSDOF 10
ENDMDL
