MODEL 1
REMARK VINA RESULT:      -7.8      0.000      0.000
REMARK  Name = 
REMARK  8 active torsions:
REMARK  status: ('A' for Active; 'I' for Inactive)
REMARK    1  A    between atoms: C_2  and  O_3
REMARK    2  A    between atoms: O_3  and  C_4
REMARK    3  A    between atoms: C_4  and  C_6
REMARK    4  A    between atoms: C_9  and  N_10
REMARK    5  A    between atoms: N_10  and  C_11
REMARK    6  A    between atoms: C_11  and  C_12
REMARK    7  A    between atoms: C_11  and  C_20
REMARK    8  A    between atoms: C_17  and  O_18
REMARK                            x       y       z     vdW  Elec       q    Type
REMARK                         _______ _______ _______ _____ _____    ______ ____
ROOT
ATOM      1  C   UNL     1      13.458  -0.707  27.145  0.00  0.00    +0.000 C 
ENDROOT
BRANCH   1   2
ATOM      2  C   UNL     1      12.202   0.066  26.620  0.00  0.00    +0.000 A 
ATOM      3  C   UNL     1      11.158  -0.497  26.004  0.00  0.00    +0.000 A 
ATOM      4  C   UNL     1      10.916  -1.938  25.663  0.00  0.00    +0.000 C 
ATOM      5  N   UNL     1      10.272   0.514  25.706  0.00  0.00    +0.000 NA
ATOM      6  C   UNL     1      10.784   1.681  26.143  0.00  0.00    +0.000 A 
ATOM      7  C   UNL     1      10.323   2.973  26.105  0.00  0.00    +0.000 A 
ATOM      8  C   UNL     1      11.058   4.020  26.638  0.00  0.00    +0.000 A 
ATOM      9  C   UNL     1      12.278   3.750  27.218  0.00  0.00    +0.000 A 
ATOM     10  C   UNL     1      12.754   2.462  27.264  0.00  0.00    +0.000 A 
ATOM     11  C   UNL     1      12.024   1.402  26.731  0.00  0.00    +0.000 A 
ENDBRANCH   1   2
BRANCH   1  12
ATOM     12  C   UNL     1      13.016  -0.821  28.697  0.00  0.00    +0.000 A 
ATOM     13  C   UNL     1      13.356   0.251  29.480  0.00  0.00    +0.000 A 
ATOM     14  C   UNL     1      12.998   0.206  30.825  0.00  0.00    +0.000 A 
ATOM     15  C   UNL     1      12.324  -0.904  31.300  0.00  0.00    +0.000 A 
ATOM     16  C   UNL     1      12.002  -1.959  30.476  0.00  0.00    +0.000 A 
ATOM     17  C   UNL     1      12.373  -1.877  29.156  0.00  0.00    +0.000 A 
BRANCH  17  18
ATOM     18  O   UNL     1      12.051  -2.939  28.320  0.00  0.00    +0.000 OA
ATOM     19  C   UNL     1      12.458  -4.267  28.597  0.00  0.00    +0.000 C 
ENDBRANCH  17  18
ENDBRANCH   1  12
BRANCH   1  20
ATOM     20  N   UNL     1      14.417   0.542  27.339  0.00  0.00    +0.000 NA
BRANCH  20  24
ATOM     21  C   UNL     1      18.131  -0.366  25.504  0.00  0.00    +0.000 A 
ATOM     22  C   UNL     1      17.941   0.854  26.117  0.00  0.00    +0.000 A 
ATOM     23  C   UNL     1      16.734   1.181  26.729  0.00  0.00    +0.000 A 
ATOM     24  C   UNL     1      15.689   0.307  26.744  0.00  0.00    +0.000 A 
ATOM     25  C   UNL     1      15.868  -0.916  26.133  0.00  0.00    +0.000 A 
ATOM     26  C   UNL     1      17.073  -1.251  25.520  0.00  0.00    +0.000 A 
BRANCH  21  27
ATOM     27  C   UNL     1      19.406  -0.714  24.860  0.00  0.00    +0.000 C 
ATOM     28  O   UNL     1      19.543  -1.746  24.195  0.00  0.00    +0.000 OA
BRANCH  27  29
ATOM     29  O   UNL     1      20.474   0.139  25.007  0.00  0.00    +0.000 OA
BRANCH  29  31
ATOM     30  C   UNL     1      20.344   1.447  23.041  0.00  0.00    +0.000 C 
ATOM     31  C   UNL     1      21.251   0.642  23.948  0.00  0.00    +0.000 C 
ENDBRANCH  29  31
ENDBRANCH  27  29
ENDBRANCH  21  27
ENDBRANCH  20  24
ENDBRANCH   1  20
TORSDOF 8
ENDMDL
MODEL 2
REMARK VINA RESULT:      -7.3     23.004     26.353
REMARK  Name = 
REMARK  8 active torsions:
REMARK  status: ('A' for Active; 'I' for Inactive)
REMARK    1  A    between atoms: C_2  and  O_3
REMARK    2  A    between atoms: O_3  and  C_4
REMARK    3  A    between atoms: C_4  and  C_6
REMARK    4  A    between atoms: C_9  and  N_10
REMARK    5  A    between atoms: N_10  and  C_11
REMARK    6  A    between atoms: C_11  and  C_12
REMARK    7  A    between atoms: C_11  and  C_20
REMARK    8  A    between atoms: C_17  and  O_18
REMARK                            x       y       z     vdW  Elec       q    Type
REMARK                         _______ _______ _______ _____ _____    ______ ____
ROOT
ATOM      1  C   UNL     1      37.424  -0.419  15.909  0.00  0.00    +0.000 C 
ENDROOT
BRANCH   1   2
ATOM      2  C   UNL     1      38.551  -1.477  15.664  0.00  0.00    +0.000 A 
ATOM      3  C   UNL     1      39.013  -2.332  16.581  0.00  0.00    +0.000 A 
ATOM      4  C   UNL     1      38.604  -2.505  18.014  0.00  0.00    +0.000 C 
ATOM      5  N   UNL     1      39.990  -3.088  15.973  0.00  0.00    +0.000 NA
ATOM      6  C   UNL     1      40.114  -2.686  14.693  0.00  0.00    +0.000 A 
ATOM      7  C   UNL     1      40.923  -3.095  13.662  0.00  0.00    +0.000 A 
ATOM      8  C   UNL     1      40.854  -2.505  12.410  0.00  0.00    +0.000 A 
ATOM      9  C   UNL     1      39.949  -1.487  12.202  0.00  0.00    +0.000 A 
ATOM     10  C   UNL     1      39.132  -1.066  13.223  0.00  0.00    +0.000 A 
ATOM     11  C   UNL     1      39.194  -1.651  14.486  0.00  0.00    +0.000 A 
ENDBRANCH   1   2
BRANCH   1  12
ATOM     12  C   UNL     1      36.174  -1.444  15.997  0.00  0.00    +0.000 A 
ATOM     13  C   UNL     1      36.171  -2.442  15.059  0.00  0.00    +0.000 A 
ATOM     14  C   UNL     1      35.119  -3.353  15.090  0.00  0.00    +0.000 A 
ATOM     15  C   UNL     1      34.139  -3.210  16.055  0.00  0.00    +0.000 A 
ATOM     16  C   UNL     1      34.183  -2.191  16.981  0.00  0.00    +0.000 A 
ATOM     17  C   UNL     1      35.237  -1.312  16.916  0.00  0.00    +0.000 A 
BRANCH  17  18
ATOM     18  O   UNL     1      35.286  -0.282  17.847  0.00  0.00    +0.000 OA
ATOM     19  C   UNL     1      35.697  -0.494  19.185  0.00  0.00    +0.000 C 
ENDBRANCH  17  18
ENDBRANCH   1  12
BRANCH   1  20
ATOM     20  N   UNL     1      37.185   0.000  14.398  0.00  0.00    +0.000 NA
BRANCH  20  24
ATOM     21  C   UNL     1      35.940   4.036  14.015  0.00  0.00    +0.000 A 
ATOM     22  C   UNL     1      35.149   3.127  14.686  0.00  0.00    +0.000 A 
ATOM     23  C   UNL     1      35.530   1.796  14.828  0.00  0.00    +0.000 A 
ATOM     24  C   UNL     1      36.703   1.337  14.309  0.00  0.00    +0.000 A 
ATOM     25  C   UNL     1      37.501   2.237  13.636  0.00  0.00    +0.000 A 
ATOM     26  C   UNL     1      37.127   3.571  13.490  0.00  0.00    +0.000 A 
BRANCH  21  27
ATOM     27  C   UNL     1      35.539   5.443  13.866  0.00  0.00    +0.000 C 
ATOM     28  O   UNL     1      36.347   6.323  13.553  0.00  0.00    +0.000 OA
BRANCH  27  29
ATOM     29  O   UNL     1      34.224   5.782  14.082  0.00  0.00    +0.000 OA
BRANCH  29  31
ATOM     30  C   UNL     1      33.696   7.971  14.804  0.00  0.00    +0.000 C 
ATOM     31  C   UNL     1      33.625   6.981  13.659  0.00  0.00    +0.000 C 
ENDBRANCH  29  31
ENDBRANCH  27  29
ENDBRANCH  21  27
ENDBRANCH  20  24
ENDBRANCH   1  20
TORSDOF 8
ENDMDL
MODEL 3
REMARK VINA RESULT:      -7.2     23.681     26.845
REMARK  Name = 
REMARK  8 active torsions:
REMARK  status: ('A' for Active; 'I' for Inactive)
REMARK    1  A    between atoms: C_2  and  O_3
REMARK    2  A    between atoms: O_3  and  C_4
REMARK    3  A    between atoms: C_4  and  C_6
REMARK    4  A    between atoms: C_9  and  N_10
REMARK    5  A    between atoms: N_10  and  C_11
REMARK    6  A    between atoms: C_11  and  C_12
REMARK    7  A    between atoms: C_11  and  C_20
REMARK    8  A    between atoms: C_17  and  O_18
REMARK                            x       y       z     vdW  Elec       q    Type
REMARK                         _______ _______ _______ _____ _____    ______ ____
ROOT
ATOM      1  C   UNL     1      37.678   3.884  14.432  0.00  0.00    +0.000 C 
ENDROOT
BRANCH   1   2
ATOM      2  C   UNL     1      37.695   2.392  14.903  0.00  0.00    +0.000 A 
ATOM      3  C   UNL     1      38.704   1.537  14.708  0.00  0.00    +0.000 A 
ATOM      4  C   UNL     1      40.021   1.758  14.023  0.00  0.00    +0.000 C 
ATOM      5  N   UNL     1      38.331   0.337  15.270  0.00  0.00    +0.000 NA
ATOM      6  C   UNL     1      37.101   0.472  15.801  0.00  0.00    +0.000 A 
ATOM      7  C   UNL     1      36.274  -0.397  16.469  0.00  0.00    +0.000 A 
ATOM      8  C   UNL     1      35.026  -0.003  16.924  0.00  0.00    +0.000 A 
ATOM      9  C   UNL     1      34.613   1.292  16.699  0.00  0.00    +0.000 A 
ATOM     10  C   UNL     1      35.428   2.173  16.032  0.00  0.00    +0.000 A 
ATOM     11  C   UNL     1      36.685   1.788  15.569  0.00  0.00    +0.000 A 
ENDBRANCH   1   2
BRANCH   1  12
ATOM     12  C   UNL     1      38.471   4.523  15.690  0.00  0.00    +0.000 A 
ATOM     13  C   UNL     1      37.926   4.257  16.918  0.00  0.00    +0.000 A 
ATOM     14  C   UNL     1      38.569   4.781  18.036  0.00  0.00    +0.000 A 
ATOM     15  C   UNL     1      39.713   5.536  17.856  0.00  0.00    +0.000 A 
ATOM     16  C   UNL     1      40.226   5.779  16.601  0.00  0.00    +0.000 A 
ATOM     17  C   UNL     1      39.562   5.245  15.523  0.00  0.00    +0.000 A 
BRANCH  17  18
ATOM     18  O   UNL     1      40.075   5.487  14.255  0.00  0.00    +0.000 OA
ATOM     19  C   UNL     1      41.458   5.381  13.968  0.00  0.00    +0.000 C 
ENDBRANCH  17  18
ENDBRANCH   1  12
BRANCH   1  20
ATOM     20  N   UNL     1      36.225   4.260  14.946  0.00  0.00    +0.000 NA
BRANCH  20  24
ATOM     21  C   UNL     1      34.443   6.829  12.082  0.00  0.00    +0.000 A 
ATOM     22  C   UNL     1      33.889   6.702  13.338  0.00  0.00    +0.000 A 
ATOM     23  C   UNL     1      34.451   5.867  14.300  0.00  0.00    +0.000 A 
ATOM     24  C   UNL     1      35.573   5.140  14.037  0.00  0.00    +0.000 A 
ATOM     25  C   UNL     1      36.134   5.259  12.784  0.00  0.00    +0.000 A 
ATOM     26  C   UNL     1      35.578   6.093  11.816  0.00  0.00    +0.000 A 
BRANCH  21  27
ATOM     27  C   UNL     1      33.852   7.712  11.066  0.00  0.00    +0.000 C 
ATOM     28  O   UNL     1      33.337   7.270  10.034  0.00  0.00    +0.000 OA
BRANCH  27  29
ATOM     29  O   UNL     1      33.876   9.071  11.277  0.00  0.00    +0.000 OA
BRANCH  29  31
ATOM     30  C   UNL     1      34.613  10.688  12.837  0.00  0.00    +0.000 C 
ATOM     31  C   UNL     1      35.009   9.801  11.675  0.00  0.00    +0.000 C 
ENDBRANCH  29  31
ENDBRANCH  27  29
ENDBRANCH  21  27
ENDBRANCH  20  24
ENDBRANCH   1  20
TORSDOF 8
ENDMDL
MODEL 4
REMARK VINA RESULT:      -7.1     24.391     27.434
REMARK  Name = 
REMARK  8 active torsions:
REMARK  status: ('A' for Active; 'I' for Inactive)
REMARK    1  A    between atoms: C_2  and  O_3
REMARK    2  A    between atoms: O_3  and  C_4
REMARK    3  A    between atoms: C_4  and  C_6
REMARK    4  A    between atoms: C_9  and  N_10
REMARK    5  A    between atoms: N_10  and  C_11
REMARK    6  A    between atoms: C_11  and  C_12
REMARK    7  A    between atoms: C_11  and  C_20
REMARK    8  A    between atoms: C_17  and  O_18
REMARK                            x       y       z     vdW  Elec       q    Type
REMARK                         _______ _______ _______ _____ _____    ______ ____
ROOT
ATOM      1  C   UNL     1      38.619  -3.108  16.156  0.00  0.00    +0.000 C 
ENDROOT
BRANCH   1   2
ATOM      2  C   UNL     1      37.269  -3.640  15.568  0.00  0.00    +0.000 A 
ATOM      3  C   UNL     1      36.539  -3.017  14.638  0.00  0.00    +0.000 A 
ATOM      4  C   UNL     1      36.794  -1.713  13.942  0.00  0.00    +0.000 C 
ATOM      5  N   UNL     1      35.437  -3.806  14.394  0.00  0.00    +0.000 NA
ATOM      6  C   UNL     1      35.507  -4.900  15.177  0.00  0.00    +0.000 A 
ATOM      7  C   UNL     1      34.685  -5.990  15.330  0.00  0.00    +0.000 A 
ATOM      8  C   UNL     1      34.989  -7.005  16.223  0.00  0.00    +0.000 A 
ATOM      9  C   UNL     1      36.143  -6.912  16.970  0.00  0.00    +0.000 A 
ATOM     10  C   UNL     1      36.975  -5.828  16.829  0.00  0.00    +0.000 A 
ATOM     11  C   UNL     1      36.680  -4.801  15.934  0.00  0.00    +0.000 A 
ENDBRANCH   1   2
BRANCH   1  12
ATOM     12  C   UNL     1      38.038  -2.519  17.546  0.00  0.00    +0.000 A 
ATOM     13  C   UNL     1      37.195  -1.447  17.418  0.00  0.00    +0.000 A 
ATOM     14  C   UNL     1      36.665  -0.900  18.584  0.00  0.00    +0.000 A 
ATOM     15  C   UNL     1      37.010  -1.459  19.801  0.00  0.00    +0.000 A 
ATOM     16  C   UNL     1      37.862  -2.538  19.882  0.00  0.00    +0.000 A 
ATOM     17  C   UNL     1      38.364  -3.048  18.710  0.00  0.00    +0.000 A 
BRANCH  17  18
ATOM     18  O   UNL     1      39.224  -4.136  18.787  0.00  0.00    +0.000 OA
ATOM     19  C   UNL     1      39.098  -5.127  19.790  0.00  0.00    +0.000 C 
ENDBRANCH  17  18
ENDBRANCH   1  12
BRANCH   1  20
ATOM     20  N   UNL     1      38.657  -1.719  15.392  0.00  0.00    +0.000 NA
BRANCH  20  24
ATOM     21  C   UNL     1      42.512  -0.603  14.022  0.00  0.00    +0.000 A 
ATOM     22  C   UNL     1      42.279  -1.888  14.463  0.00  0.00    +0.000 A 
ATOM     23  C   UNL     1      41.024  -2.285  14.918  0.00  0.00    +0.000 A 
ATOM     24  C   UNL     1      39.975  -1.416  14.947  0.00  0.00    +0.000 A 
ATOM     25  C   UNL     1      40.198  -0.128  14.509  0.00  0.00    +0.000 A 
ATOM     26  C   UNL     1      41.450   0.276  14.051  0.00  0.00    +0.000 A 
BRANCH  21  27
ATOM     27  C   UNL     1      43.836  -0.183  13.539  0.00  0.00    +0.000 C 
ATOM     28  O   UNL     1      44.211  -0.405  12.383  0.00  0.00    +0.000 OA
BRANCH  27  29
ATOM     29  O   UNL     1      44.676   0.476  14.405  0.00  0.00    +0.000 OA
BRANCH  29  31
ATOM     30  C   UNL     1      45.354  -0.222  16.560  0.00  0.00    +0.000 C 
ATOM     31  C   UNL     1      45.742  -0.121  15.099  0.00  0.00    +0.000 C 
ENDBRANCH  29  31
ENDBRANCH  27  29
ENDBRANCH  21  27
ENDBRANCH  20  24
ENDBRANCH   1  20
TORSDOF 8
ENDMDL
MODEL 5
REMARK VINA RESULT:      -7.1     20.817     25.671
REMARK  Name = 
REMARK  8 active torsions:
REMARK  status: ('A' for Active; 'I' for Inactive)
REMARK    1  A    between atoms: C_2  and  O_3
REMARK    2  A    between atoms: O_3  and  C_4
REMARK    3  A    between atoms: C_4  and  C_6
REMARK    4  A    between atoms: C_9  and  N_10
REMARK    5  A    between atoms: N_10  and  C_11
REMARK    6  A    between atoms: C_11  and  C_12
REMARK    7  A    between atoms: C_11  and  C_20
REMARK    8  A    between atoms: C_17  and  O_18
REMARK                            x       y       z     vdW  Elec       q    Type
REMARK                         _______ _______ _______ _____ _____    ______ ____
ROOT
ATOM      1  C   UNL     1      36.280  -1.805  15.276  0.00  0.00    +0.000 C 
ENDROOT
BRANCH   1   2
ATOM      2  C   UNL     1      37.539  -1.067  14.710  0.00  0.00    +0.000 A 
ATOM      3  C   UNL     1      37.521   0.123  14.101  0.00  0.00    +0.000 A 
ATOM      4  C   UNL     1      36.359   1.026  13.807  0.00  0.00    +0.000 C 
ATOM      5  N   UNL     1      38.821   0.421  13.758  0.00  0.00    +0.000 NA
ATOM      6  C   UNL     1      39.616  -0.589  14.160  0.00  0.00    +0.000 A 
ATOM      7  C   UNL     1      40.970  -0.801  14.072  0.00  0.00    +0.000 A 
ATOM      8  C   UNL     1      41.557  -1.950  14.577  0.00  0.00    +0.000 A 
ATOM      9  C   UNL     1      40.759  -2.896  15.181  0.00  0.00    +0.000 A 
ATOM     10  C   UNL     1      39.402  -2.700  15.277  0.00  0.00    +0.000 A 
ATOM     11  C   UNL     1      38.801  -1.549  14.772  0.00  0.00    +0.000 A 
ENDBRANCH   1   2
BRANCH   1  12
ATOM     12  C   UNL     1      36.476  -1.415  16.834  0.00  0.00    +0.000 A 
ATOM     13  C   UNL     1      37.419  -2.149  17.504  0.00  0.00    +0.000 A 
ATOM     14  C   UNL     1      37.630  -1.854  18.848  0.00  0.00    +0.000 A 
ATOM     15  C   UNL     1      36.888  -0.845  19.436  0.00  0.00    +0.000 A 
ATOM     16  C   UNL     1      35.950  -0.132  18.723  0.00  0.00    +0.000 A 
ATOM     17  C   UNL     1      35.771  -0.454  17.399  0.00  0.00    +0.000 A 
BRANCH  17  18
ATOM     18  O   UNL     1      34.826   0.262  16.676  0.00  0.00    +0.000 OA
ATOM     19  C   UNL     1      34.740   1.674  16.737  0.00  0.00    +0.000 C 
ENDBRANCH  17  18
ENDBRANCH   1  12
BRANCH   1  20
ATOM     20  N   UNL     1      36.910  -3.256  15.390  0.00  0.00    +0.000 NA
BRANCH  20  24
ATOM     21  C   UNL     1      34.028  -6.354  15.671  0.00  0.00    +0.000 A 
ATOM     22  C   UNL     1      33.727  -5.187  15.004  0.00  0.00    +0.000 A 
ATOM     23  C   UNL     1      34.652  -4.151  14.894  0.00  0.00    +0.000 A 
ATOM     24  C   UNL     1      35.894  -4.252  15.444  0.00  0.00    +0.000 A 
ATOM     25  C   UNL     1      36.206  -5.415  16.115  0.00  0.00    +0.000 A 
ATOM     26  C   UNL     1      35.286  -6.455  16.228  0.00  0.00    +0.000 A 
BRANCH  21  27
ATOM     27  C   UNL     1      33.054  -7.449  15.786  0.00  0.00    +0.000 C 
ATOM     28  O   UNL     1      33.255  -8.560  15.286  0.00  0.00    +0.000 OA
BRANCH  27  29
ATOM     29  O   UNL     1      31.885  -7.223  16.473  0.00  0.00    +0.000 OA
BRANCH  29  31
ATOM     30  C   UNL     1      29.520  -7.230  16.517  0.00  0.00    +0.000 C 
ATOM     31  C   UNL     1      30.772  -8.082  16.468  0.00  0.00    +0.000 C 
ENDBRANCH  29  31
ENDBRANCH  27  29
ENDBRANCH  21  27
ENDBRANCH  20  24
ENDBRANCH   1  20
TORSDOF 8
ENDMDL
MODEL 6
REMARK VINA RESULT:      -7.0     23.819     27.324
REMARK  Name = 
REMARK  8 active torsions:
REMARK  status: ('A' for Active; 'I' for Inactive)
REMARK    1  A    between atoms: C_2  and  O_3
REMARK    2  A    between atoms: O_3  and  C_4
REMARK    3  A    between atoms: C_4  and  C_6
REMARK    4  A    between atoms: C_9  and  N_10
REMARK    5  A    between atoms: N_10  and  C_11
REMARK    6  A    between atoms: C_11  and  C_12
REMARK    7  A    between atoms: C_11  and  C_20
REMARK    8  A    between atoms: C_17  and  O_18
REMARK                            x       y       z     vdW  Elec       q    Type
REMARK                         _______ _______ _______ _____ _____    ______ ____
ROOT
ATOM      1  C   UNL     1      37.069   4.441  15.270  0.00  0.00    +0.000 C 
ENDROOT
BRANCH   1   2
ATOM      2  C   UNL     1      36.881   2.893  15.131  0.00  0.00    +0.000 A 
ATOM      3  C   UNL     1      35.716   2.248  15.246  0.00  0.00    +0.000 A 
ATOM      4  C   UNL     1      34.347   2.796  15.526  0.00  0.00    +0.000 C 
ATOM      5  N   UNL     1      35.975   0.909  15.056  0.00  0.00    +0.000 NA
ATOM      6  C   UNL     1      37.293   0.752  14.827  0.00  0.00    +0.000 A 
ATOM      7  C   UNL     1      38.070  -0.352  14.579  0.00  0.00    +0.000 A 
ATOM      8  C   UNL     1      39.436  -0.244  14.372  0.00  0.00    +0.000 A 
ATOM      9  C   UNL     1      40.020   1.003  14.416  0.00  0.00    +0.000 A 
ATOM     10  C   UNL     1      39.256   2.118  14.664  0.00  0.00    +0.000 A 
ATOM     11  C   UNL     1      37.882   2.021  14.874  0.00  0.00    +0.000 A 
ENDBRANCH   1   2
BRANCH   1  12
ATOM     12  C   UNL     1      36.849   4.832  13.715  0.00  0.00    +0.000 A 
ATOM     13  C   UNL     1      37.860   4.456  12.871  0.00  0.00    +0.000 A 
ATOM     14  C   UNL     1      37.723   4.766  11.521  0.00  0.00    +0.000 A 
ATOM     15  C   UNL     1      36.584   5.430  11.100  0.00  0.00    +0.000 A 
ATOM     16  C   UNL     1      35.591   5.788  11.985  0.00  0.00    +0.000 A 
ATOM     17  C   UNL     1      35.765   5.465  13.308  0.00  0.00    +0.000 A 
BRANCH  17  18
ATOM     18  O   UNL     1      34.767   5.824  14.205  0.00  0.00    +0.000 OA
ATOM     19  C   UNL     1      33.820   6.836  13.913  0.00  0.00    +0.000 C 
ENDBRANCH  17  18
ENDBRANCH   1  12
BRANCH   1  20
ATOM     20  N   UNL     1      38.654   4.474  15.224  0.00  0.00    +0.000 NA
BRANCH  20  24
ATOM     21  C   UNL     1      40.413   6.206  18.673  0.00  0.00    +0.000 A 
ATOM     22  C   UNL     1      39.275   5.436  18.788  0.00  0.00    +0.000 A 
ATOM     23  C   UNL     1      38.674   4.854  17.675  0.00  0.00    +0.000 A 
ATOM     24  C   UNL     1      39.188   5.024  16.424  0.00  0.00    +0.000 A 
ATOM     25  C   UNL     1      40.326   5.792  16.298  0.00  0.00    +0.000 A 
ATOM     26  C   UNL     1      40.933   6.377  17.407  0.00  0.00    +0.000 A 
BRANCH  21  27
ATOM     27  C   UNL     1      41.050   6.819  19.847  0.00  0.00    +0.000 C 
ATOM     28  O   UNL     1      41.639   6.146  20.699  0.00  0.00    +0.000 OA
BRANCH  27  29
ATOM     29  O   UNL     1      40.983   8.185  19.996  0.00  0.00    +0.000 OA
BRANCH  29  31
ATOM     30  C   UNL     1      38.765   8.485  20.758  0.00  0.00    +0.000 C 
ATOM     31  C   UNL     1      39.829   8.959  19.790  0.00  0.00    +0.000 C 
ENDBRANCH  29  31
ENDBRANCH  27  29
ENDBRANCH  21  27
ENDBRANCH  20  24
ENDBRANCH   1  20
TORSDOF 8
ENDMDL
MODEL 7
REMARK VINA RESULT:      -7.0     23.504     28.032
REMARK  Name = 
REMARK  8 active torsions:
REMARK  status: ('A' for Active; 'I' for Inactive)
REMARK    1  A    between atoms: C_2  and  O_3
REMARK    2  A    between atoms: O_3  and  C_4
REMARK    3  A    between atoms: C_4  and  C_6
REMARK    4  A    between atoms: C_9  and  N_10
REMARK    5  A    between atoms: N_10  and  C_11
REMARK    6  A    between atoms: C_11  and  C_12
REMARK    7  A    between atoms: C_11  and  C_20
REMARK    8  A    between atoms: C_17  and  O_18
REMARK                            x       y       z     vdW  Elec       q    Type
REMARK                         _______ _______ _______ _____ _____    ______ ____
ROOT
ATOM      1  C   UNL     1      38.242  -1.654  14.026  0.00  0.00    +0.000 C 
ENDROOT
BRANCH   1   2
ATOM      2  C   UNL     1      37.855  -0.327  14.760  0.00  0.00    +0.000 A 
ATOM      3  C   UNL     1      38.545   0.816  14.693  0.00  0.00    +0.000 A 
ATOM      4  C   UNL     1      39.807   1.125  13.942  0.00  0.00    +0.000 C 
ATOM      5  N   UNL     1      37.879   1.736  15.472  0.00  0.00    +0.000 NA
ATOM      6  C   UNL     1      36.792   1.146  16.004  0.00  0.00    +0.000 A 
ATOM      7  C   UNL     1      35.800   1.599  16.839  0.00  0.00    +0.000 A 
ATOM      8  C   UNL     1      34.767   0.773  17.251  0.00  0.00    +0.000 A 
ATOM      9  C   UNL     1      34.740  -0.532  16.808  0.00  0.00    +0.000 A 
ATOM     10  C   UNL     1      35.725  -1.001  15.973  0.00  0.00    +0.000 A 
ATOM     11  C   UNL     1      36.769  -0.179  15.553  0.00  0.00    +0.000 A 
ENDBRANCH   1   2
BRANCH   1  12
ATOM     12  C   UNL     1      38.195  -2.639  15.309  0.00  0.00    +0.000 A 
ATOM     13  C   UNL     1      39.046  -2.309  16.329  0.00  0.00    +0.000 A 
ATOM     14  C   UNL     1      39.046  -3.122  17.459  0.00  0.00    +0.000 A 
ATOM     15  C   UNL     1      38.195  -4.212  17.497  0.00  0.00    +0.000 A 
ATOM     16  C   UNL     1      37.354  -4.506  16.447  0.00  0.00    +0.000 A 
ATOM     17  C   UNL     1      37.385  -3.680  15.350  0.00  0.00    +0.000 A 
BRANCH  17  18
ATOM     18  O   UNL     1      36.539  -3.973  14.288  0.00  0.00    +0.000 OA
ATOM     19  C   UNL     1      35.169  -4.275  14.477  0.00  0.00    +0.000 C 
ENDBRANCH  17  18
ENDBRANCH   1  12
BRANCH   1  20
ATOM     20  N   UNL     1      39.815  -1.455  14.030  0.00  0.00    +0.000 NA
BRANCH  20  24
ATOM     21  C   UNL     1      41.452  -3.593  10.753  0.00  0.00    +0.000 A 
ATOM     22  C   UNL     1      42.134  -3.530  11.949  0.00  0.00    +0.000 A 
ATOM     23  C   UNL     1      41.623  -2.837  13.043  0.00  0.00    +0.000 A 
ATOM     24  C   UNL     1      40.426  -2.190  12.974  0.00  0.00    +0.000 A 
ATOM     25  C   UNL     1      39.735  -2.246  11.782  0.00  0.00    +0.000 A 
ATOM     26  C   UNL     1      40.240  -2.938  10.683  0.00  0.00    +0.000 A 
BRANCH  21  27
ATOM     27  C   UNL     1      41.989  -4.326   9.598  0.00  0.00    +0.000 C 
ATOM     28  O   UNL     1      42.550  -3.750   8.660  0.00  0.00    +0.000 OA
BRANCH  27  29
ATOM     29  O   UNL     1      41.860  -5.695   9.566  0.00  0.00    +0.000 OA
BRANCH  29  31
ATOM     30  C   UNL     1      40.612  -7.223   8.262  0.00  0.00    +0.000 C 
ATOM     31  C   UNL     1      41.925  -6.481   8.402  0.00  0.00    +0.000 C 
ENDBRANCH  29  31
ENDBRANCH  27  29
ENDBRANCH  21  27
ENDBRANCH  20  24
ENDBRANCH   1  20
TORSDOF 8
ENDMDL
MODEL 8
REMARK VINA RESULT:      -6.9      1.336      2.581
REMARK  Name = 
REMARK  8 active torsions:
REMARK  status: ('A' for Active; 'I' for Inactive)
REMARK    1  A    between atoms: C_2  and  O_3
REMARK    2  A    between atoms: O_3  and  C_4
REMARK    3  A    between atoms: C_4  and  C_6
REMARK    4  A    between atoms: C_9  and  N_10
REMARK    5  A    between atoms: N_10  and  C_11
REMARK    6  A    between atoms: C_11  and  C_12
REMARK    7  A    between atoms: C_11  and  C_20
REMARK    8  A    between atoms: C_17  and  O_18
REMARK                            x       y       z     vdW  Elec       q    Type
REMARK                         _______ _______ _______ _____ _____    ______ ____
ROOT
ATOM      1  C   UNL     1      13.233  -0.818  26.380  0.00  0.00    +0.000 C 
ENDROOT
BRANCH   1   2
ATOM      2  C   UNL     1      11.924   0.023  26.208  0.00  0.00    +0.000 A 
ATOM      3  C   UNL     1      11.745   1.266  26.667  0.00  0.00    +0.000 A 
ATOM      4  C   UNL     1      12.692   2.146  27.429  0.00  0.00    +0.000 C 
ATOM      5  N   UNL     1      10.472   1.649  26.310  0.00  0.00    +0.000 NA
ATOM      6  C   UNL     1       9.888   0.637  25.640  0.00  0.00    +0.000 A 
ATOM      7  C   UNL     1       8.647   0.490  25.069  0.00  0.00    +0.000 A 
ATOM      8  C   UNL     1       8.283  -0.679  24.421  0.00  0.00    +0.000 A 
ATOM      9  C   UNL     1       9.191  -1.713  24.349  0.00  0.00    +0.000 A 
ATOM     10  C   UNL     1      10.436  -1.582  24.915  0.00  0.00    +0.000 A 
ATOM     11  C   UNL     1      10.814  -0.411  25.570  0.00  0.00    +0.000 A 
ENDBRANCH   1   2
BRANCH   1  12
ATOM     12  C   UNL     1      12.774  -1.681  27.670  0.00  0.00    +0.000 A 
ATOM     13  C   UNL     1      12.635  -0.966  28.830  0.00  0.00    +0.000 A 
ATOM     14  C   UNL     1      12.240  -1.658  29.971  0.00  0.00    +0.000 A 
ATOM     15  C   UNL     1      12.010  -3.019  29.881  0.00  0.00    +0.000 A 
ATOM     16  C   UNL     1      12.162  -3.698  28.693  0.00  0.00    +0.000 A 
ATOM     17  C   UNL     1      12.553  -2.979  27.590  0.00  0.00    +0.000 A 
BRANCH  17  18
ATOM     18  O   UNL     1      12.709  -3.659  26.389  0.00  0.00    +0.000 OA
ATOM     19  C   UNL     1      11.976  -4.833  26.086  0.00  0.00    +0.000 C 
ENDBRANCH  17  18
ENDBRANCH   1  12
BRANCH   1  20
ATOM     20  N   UNL     1      14.076   0.253  27.191  0.00  0.00    +0.000 NA
BRANCH  20  24
ATOM     21  C   UNL     1      17.991   0.343  25.562  0.00  0.00    +0.000 A 
ATOM     22  C   UNL     1      17.591   1.312  26.458  0.00  0.00    +0.000 A 
ATOM     23  C   UNL     1      16.312   1.309  27.010  0.00  0.00    +0.000 A 
ATOM     24  C   UNL     1      15.404   0.347  26.685  0.00  0.00    +0.000 A 
ATOM     25  C   UNL     1      15.793  -0.626  25.790  0.00  0.00    +0.000 A 
ATOM     26  C   UNL     1      17.071  -0.630  25.234  0.00  0.00    +0.000 A 
BRANCH  21  27
ATOM     27  C   UNL     1      19.341   0.344  24.980  0.00  0.00    +0.000 C 
ATOM     28  O   UNL     1      20.138  -0.579  25.176  0.00  0.00    +0.000 OA
BRANCH  27  29
ATOM     29  O   UNL     1      19.720   1.406  24.194  0.00  0.00    +0.000 OA
BRANCH  29  31
ATOM     30  C   UNL     1      19.979   0.860  21.908  0.00  0.00    +0.000 C 
ATOM     31  C   UNL     1      20.675   1.342  23.164  0.00  0.00    +0.000 C 
ENDBRANCH  29  31
ENDBRANCH  27  29
ENDBRANCH  21  27
ENDBRANCH  20  24
ENDBRANCH   1  20
TORSDOF 8
ENDMDL
MODEL 9
REMARK VINA RESULT:      -6.7      1.658      3.592
REMARK  Name = 
REMARK  8 active torsions:
REMARK  status: ('A' for Active; 'I' for Inactive)
REMARK    1  A    between atoms: C_2  and  O_3
REMARK    2  A    between atoms: O_3  and  C_4
REMARK    3  A    between atoms: C_4  and  C_6
REMARK    4  A    between atoms: C_9  and  N_10
REMARK    5  A    between atoms: N_10  and  C_11
REMARK    6  A    between atoms: C_11  and  C_12
REMARK    7  A    between atoms: C_11  and  C_20
REMARK    8  A    between atoms: C_17  and  O_18
REMARK                            x       y       z     vdW  Elec       q    Type
REMARK                         _______ _______ _______ _____ _____    ______ ____
ROOT
ATOM      1  C   UNL     1      13.365   0.408  26.580  0.00  0.00    +0.000 C 
ENDROOT
BRANCH   1   2
ATOM      2  C   UNL     1      12.622   1.084  27.780  0.00  0.00    +0.000 A 
ATOM      3  C   UNL     1      11.926   2.223  27.708  0.00  0.00    +0.000 A 
ATOM      4  C   UNL     1      11.679   3.115  26.527  0.00  0.00    +0.000 C 
ATOM      5  N   UNL     1      11.432   2.475  28.968  0.00  0.00    +0.000 NA
ATOM      6  C   UNL     1      11.832   1.489  29.794  0.00  0.00    +0.000 A 
ATOM      7  C   UNL     1      11.624   1.252  31.131  0.00  0.00    +0.000 A 
ATOM      8  C   UNL     1      12.157   0.138  31.759  0.00  0.00    +0.000 A 
ATOM      9  C   UNL     1      12.910  -0.748  31.020  0.00  0.00    +0.000 A 
ATOM     10  C   UNL     1      13.127  -0.525  29.682  0.00  0.00    +0.000 A 
ATOM     11  C   UNL     1      12.597   0.592  29.040  0.00  0.00    +0.000 A 
ENDBRANCH   1   2
BRANCH   1  12
ATOM     12  C   UNL     1      12.495  -0.956  26.521  0.00  0.00    +0.000 A 
ATOM     13  C   UNL     1      13.103  -2.059  27.061  0.00  0.00    +0.000 A 
ATOM     14  C   UNL     1      12.398  -3.259  27.039  0.00  0.00    +0.000 A 
ATOM     15  C   UNL     1      11.133  -3.281  26.481  0.00  0.00    +0.000 A 
ATOM     16  C   UNL     1      10.560  -2.147  25.950  0.00  0.00    +0.000 A 
ATOM     17  C   UNL     1      11.288  -0.982  25.990  0.00  0.00    +0.000 A 
BRANCH  17  18
ATOM     18  O   UNL     1      10.715   0.164  25.456  0.00  0.00    +0.000 OA
ATOM     19  C   UNL     1       9.316   0.294  25.272  0.00  0.00    +0.000 C 
ENDBRANCH  17  18
ENDBRANCH   1  12
BRANCH   1  20
ATOM     20  N   UNL     1      14.579  -0.208  27.393  0.00  0.00    +0.000 NA
BRANCH  20  24
ATOM     21  C   UNL     1      18.236   0.188  25.281  0.00  0.00    +0.000 A 
ATOM     22  C   UNL     1      17.719   1.259  25.978  0.00  0.00    +0.000 A 
ATOM     23  C   UNL     1      16.521   1.161  26.681  0.00  0.00    +0.000 A 
ATOM     24  C   UNL     1      15.810  -0.001  26.707  0.00  0.00    +0.000 A 
ATOM     25  C   UNL     1      16.318  -1.079  26.013  0.00  0.00    +0.000 A 
ATOM     26  C   UNL     1      17.516  -0.988  25.308  0.00  0.00    +0.000 A 
BRANCH  21  27
ATOM     27  C   UNL     1      19.501   0.291  24.540  0.00  0.00    +0.000 C 
ATOM     28  O   UNL     1      20.516   0.782  25.043  0.00  0.00    +0.000 OA
BRANCH  27  29
ATOM     29  O   UNL     1      19.549  -0.178  23.248  0.00  0.00    +0.000 OA
BRANCH  29  31
ATOM     30  C   UNL     1      20.964  -1.006  21.543  0.00  0.00    +0.000 C 
ATOM     31  C   UNL     1      20.244  -1.328  22.837  0.00  0.00    +0.000 C 
ENDBRANCH  29  31
ENDBRANCH  27  29
ENDBRANCH  21  27
ENDBRANCH  20  24
ENDBRANCH   1  20
TORSDOF 8
ENDMDL
MODEL 10
REMARK VINA RESULT:      -6.7     23.855     28.460
REMARK  Name = 
REMARK  8 active torsions:
REMARK  status: ('A' for Active; 'I' for Inactive)
REMARK    1  A    between atoms: C_2  and  O_3
REMARK    2  A    between atoms: O_3  and  C_4
REMARK    3  A    between atoms: C_4  and  C_6
REMARK    4  A    between atoms: C_9  and  N_10
REMARK    5  A    between atoms: N_10  and  C_11
REMARK    6  A    between atoms: C_11  and  C_12
REMARK    7  A    between atoms: C_11  and  C_20
REMARK    8  A    between atoms: C_17  and  O_18
REMARK                            x       y       z     vdW  Elec       q    Type
REMARK                         _______ _______ _______ _____ _____    ______ ____
ROOT
ATOM      1  C   UNL     1      41.031   8.028  18.189  0.00  0.00    +0.000 C 
ENDROOT
BRANCH   1   2
ATOM      2  C   UNL     1      41.971   8.553  19.324  0.00  0.00    +0.000 A 
ATOM      3  C   UNL     1      42.280   9.837  19.532  0.00  0.00    +0.000 A 
ATOM      4  C   UNL     1      41.838  11.057  18.779  0.00  0.00    +0.000 C 
ATOM      5  N   UNL     1      43.124   9.879  20.619  0.00  0.00    +0.000 NA
ATOM      6  C   UNL     1      43.321   8.622  21.062  0.00  0.00    +0.000 A 
ATOM      7  C   UNL     1      44.060   8.104  22.097  0.00  0.00    +0.000 A 
ATOM      8  C   UNL     1      44.097   6.742  22.349  0.00  0.00    +0.000 A 
ATOM      9  C   UNL     1      43.374   5.895  21.539  0.00  0.00    +0.000 A 
ATOM     10  C   UNL     1      42.630   6.397  20.499  0.00  0.00    +0.000 A 
ATOM     11  C   UNL     1      42.585   7.765  20.236  0.00  0.00    +0.000 A 
ENDBRANCH   1   2
BRANCH   1  12
ATOM     12  C   UNL     1      39.617   8.418  18.873  0.00  0.00    +0.000 A 
ATOM     13  C   UNL     1      39.541   8.194  20.223  0.00  0.00    +0.000 A 
ATOM     14  C   UNL     1      38.347   8.514  20.863  0.00  0.00    +0.000 A 
ATOM     15  C   UNL     1      37.308   9.038  20.117  0.00  0.00    +0.000 A 
ATOM     16  C   UNL     1      37.429   9.247  18.761  0.00  0.00    +0.000 A 
ATOM     17  C   UNL     1      38.622   8.918  18.166  0.00  0.00    +0.000 A 
BRANCH  17  18
ATOM     18  O   UNL     1      38.749   9.127  16.799  0.00  0.00    +0.000 OA
ATOM     19  C   UNL     1      37.848   8.564  15.862  0.00  0.00    +0.000 C 
ENDBRANCH  17  18
ENDBRANCH   1  12
BRANCH   1  20
ATOM     20  N   UNL     1      41.003   6.501  18.617  0.00  0.00    +0.000 NA
BRANCH  20  24
ATOM     21  C   UNL     1      38.140   4.243  16.452  0.00  0.00    +0.000 A 
ATOM     22  C   UNL     1      39.132   4.928  15.783  0.00  0.00    +0.000 A 
ATOM     23  C   UNL     1      40.086   5.678  16.465  0.00  0.00    +0.000 A 
ATOM     24  C   UNL     1      40.077   5.765  17.825  0.00  0.00    +0.000 A 
ATOM     25  C   UNL     1      39.089   5.084  18.504  0.00  0.00    +0.000 A 
ATOM     26  C   UNL     1      38.131   4.332  17.828  0.00  0.00    +0.000 A 
BRANCH  21  27
ATOM     27  C   UNL     1      37.132   3.450  15.733  0.00  0.00    +0.000 C 
ATOM     28  O   UNL     1      37.350   2.974  14.614  0.00  0.00    +0.000 OA
BRANCH  27  29
ATOM     29  O   UNL     1      35.913   3.234  16.330  0.00  0.00    +0.000 OA
BRANCH  29  31
ATOM     30  C   UNL     1      34.925   1.157  16.882  0.00  0.00    +0.000 C 
ATOM     31  C   UNL     1      34.958   2.301  15.890  0.00  0.00    +0.000 C 
ENDBRANCH  29  31
ENDBRANCH  27  29
ENDBRANCH  21  27
ENDBRANCH  20  24
ENDBRANCH   1  20
TORSDOF 8
ENDMDL
