MODEL 1
REMARK VINA RESULT:      -6.2      0.000      0.000
REMARK  Name = 
REMARK  3 active torsions:
REMARK  status: ('A' for Active; 'I' for Inactive)
REMARK    1  A    between atoms: C_2  and  C_4
REMARK    2  A    between atoms: C_4  and  N_5
REMARK    3  A    between atoms: C_8  and  C_9
REMARK                            x       y       z     vdW  Elec       q    Type
REMARK                         _______ _______ _______ _____ _____    ______ ____
ROOT
ATOM      1  N   UNL     1      21.992  10.349  38.627  0.00  0.00    +0.000 NA
ATOM      2  C   UNL     1      20.618   9.991  38.335  0.00  0.00    +0.000 A 
ATOM      3  N   UNL     1      19.902  10.274  37.268  0.00  0.00    +0.000 NA
ATOM      4  C   UNL     1      18.665   9.853  37.195  0.00  0.00    +0.000 A 
ATOM      5  C   UNL     1      18.190   9.131  38.259  0.00  0.00    +0.000 A 
ATOM      6  S   UNL     1      19.539   9.096  39.298  0.00  0.00    +0.000 S 
ENDROOT
BRANCH   4   7
ATOM      7  C   UNL     1      17.814  10.146  36.015  0.00  0.00    +0.000 A 
ATOM      8  C   UNL     1      17.898   9.614  34.737  0.00  0.00    +0.000 A 
ATOM      9  N   UNL     1      16.935  10.148  33.965  0.00  0.00    +0.000 NA
ATOM     10  C   UNL     1      16.196  11.029  34.679  0.00  0.00    +0.000 A 
ATOM     11  C   UNL     1      15.106  11.834  34.365  0.00  0.00    +0.000 A 
ATOM     12  C   UNL     1      14.604  12.623  35.379  0.00  0.00    +0.000 A 
ATOM     13  C   UNL     1      15.132  12.637  36.651  0.00  0.00    +0.000 A 
ATOM     14  C   UNL     1      16.208  11.831  36.933  0.00  0.00    +0.000 A 
ATOM     15  C   UNL     1      16.749  11.018  35.942  0.00  0.00    +0.000 A 
ENDBRANCH   4   7
BRANCH   1  16
ATOM     16  C   UNL     1      22.786  11.112  37.717  0.00  0.00    +0.000 C 
BRANCH  16  18
ATOM     17  C   UNL     1      24.586  10.991  36.004  0.00  0.00    +0.000 C 
ATOM     18  C   UNL     1      23.509  10.228  36.722  0.00  0.00    +0.000 C 
ATOM     19  C   UNL     1      24.007   8.955  37.330  0.00  0.00    +0.000 C 
ENDBRANCH  16  18
ENDBRANCH   1  16
TORSDOF 3
ENDMDL
MODEL 2
REMARK VINA RESULT:      -5.8     17.464     19.407
REMARK  Name = 
REMARK  3 active torsions:
REMARK  status: ('A' for Active; 'I' for Inactive)
REMARK    1  A    between atoms: C_2  and  C_4
REMARK    2  A    between atoms: C_4  and  N_5
REMARK    3  A    between atoms: C_8  and  C_9
REMARK                            x       y       z     vdW  Elec       q    Type
REMARK                         _______ _______ _______ _____ _____    ______ ____
ROOT
ATOM      1  N   UNL     1      26.053  23.724  29.542  0.00  0.00    +0.000 NA
ATOM      2  C   UNL     1      25.710  24.255  28.237  0.00  0.00    +0.000 A 
ATOM      3  N   UNL     1      26.100  23.841  27.051  0.00  0.00    +0.000 NA
ATOM      4  C   UNL     1      25.674  24.463  25.981  0.00  0.00    +0.000 A 
ATOM      5  C   UNL     1      24.831  25.527  26.175  0.00  0.00    +0.000 A 
ATOM      6  S   UNL     1      24.700  25.574  27.873  0.00  0.00    +0.000 S 
ENDROOT
BRANCH   4   7
ATOM      7  C   UNL     1      26.084  24.036  24.621  0.00  0.00    +0.000 A 
ATOM      8  C   UNL     1      25.384  23.254  23.714  0.00  0.00    +0.000 A 
ATOM      9  N   UNL     1      26.114  23.105  22.594  0.00  0.00    +0.000 NA
ATOM     10  C   UNL     1      27.291  23.764  22.710  0.00  0.00    +0.000 A 
ATOM     11  C   UNL     1      28.381  23.926  21.861  0.00  0.00    +0.000 A 
ATOM     12  C   UNL     1      29.429  24.687  22.334  0.00  0.00    +0.000 A 
ATOM     13  C   UNL     1      29.431  25.270  23.581  0.00  0.00    +0.000 A 
ATOM     14  C   UNL     1      28.342  25.093  24.400  0.00  0.00    +0.000 A 
ATOM     15  C   UNL     1      27.259  24.334  23.965  0.00  0.00    +0.000 A 
ENDBRANCH   4   7
BRANCH   1  16
ATOM     16  C   UNL     1      26.921  22.602  29.699  0.00  0.00    +0.000 C 
BRANCH  16  18
ATOM     17  C   UNL     1      29.036  22.418  30.997  0.00  0.00    +0.000 C 
ATOM     18  C   UNL     1      28.374  23.022  29.791  0.00  0.00    +0.000 C 
ATOM     19  C   UNL     1      29.132  22.770  28.526  0.00  0.00    +0.000 C 
ENDBRANCH  16  18
ENDBRANCH   1  16
TORSDOF 3
ENDMDL
MODEL 3
REMARK VINA RESULT:      -5.7     22.503     24.846
REMARK  Name = 
REMARK  3 active torsions:
REMARK  status: ('A' for Active; 'I' for Inactive)
REMARK    1  A    between atoms: C_2  and  C_4
REMARK    2  A    between atoms: C_4  and  N_5
REMARK    3  A    between atoms: C_8  and  C_9
REMARK                            x       y       z     vdW  Elec       q    Type
REMARK                         _______ _______ _______ _____ _____    ______ ____
ROOT
ATOM      1  N   UNL     1      29.919  28.032  18.425  0.00  0.00    +0.000 NA
ATOM      2  C   UNL     1      29.579  27.673  19.787  0.00  0.00    +0.000 A 
ATOM      3  N   UNL     1      29.447  26.475  20.314  0.00  0.00    +0.000 NA
ATOM      4  C   UNL     1      29.131  26.361  21.580  0.00  0.00    +0.000 A 
ATOM      5  C   UNL     1      28.955  27.524  22.284  0.00  0.00    +0.000 A 
ATOM      6  S   UNL     1      29.252  28.709  21.096  0.00  0.00    +0.000 S 
ENDROOT
BRANCH   4   7
ATOM      7  C   UNL     1      28.969  25.034  22.222  0.00  0.00    +0.000 A 
ATOM      8  C   UNL     1      27.977  24.087  22.010  0.00  0.00    +0.000 A 
ATOM      9  N   UNL     1      28.201  23.020  22.797  0.00  0.00    +0.000 NA
ATOM     10  C   UNL     1      29.317  23.210  23.539  0.00  0.00    +0.000 A 
ATOM     11  C   UNL     1      29.974  22.434  24.488  0.00  0.00    +0.000 A 
ATOM     12  C   UNL     1      31.114  22.971  25.048  0.00  0.00    +0.000 A 
ATOM     13  C   UNL     1      31.605  24.212  24.708  0.00  0.00    +0.000 A 
ATOM     14  C   UNL     1      30.935  24.957  23.768  0.00  0.00    +0.000 A 
ATOM     15  C   UNL     1      29.780  24.456  23.174  0.00  0.00    +0.000 A 
ENDBRANCH   4   7
BRANCH   1  16
ATOM     16  C   UNL     1      30.169  27.049  17.421  0.00  0.00    +0.000 C 
BRANCH  16  18
ATOM     17  C   UNL     1      29.078  26.238  15.337  0.00  0.00    +0.000 C 
ATOM     18  C   UNL     1      29.575  27.443  16.084  0.00  0.00    +0.000 C 
ATOM     19  C   UNL     1      28.541  28.518  16.202  0.00  0.00    +0.000 C 
ENDBRANCH  16  18
ENDBRANCH   1  16
TORSDOF 3
ENDMDL
MODEL 4
REMARK VINA RESULT:      -5.7     18.241     20.295
REMARK  Name = 
REMARK  3 active torsions:
REMARK  status: ('A' for Active; 'I' for Inactive)
REMARK    1  A    between atoms: C_2  and  C_4
REMARK    2  A    between atoms: C_4  and  N_5
REMARK    3  A    between atoms: C_8  and  C_9
REMARK                            x       y       z     vdW  Elec       q    Type
REMARK                         _______ _______ _______ _____ _____    ______ ____
ROOT
ATOM      1  N   UNL     1      23.809  26.216  28.199  0.00  0.00    +0.000 NA
ATOM      2  C   UNL     1      24.769  25.300  27.616  0.00  0.00    +0.000 A 
ATOM      3  N   UNL     1      25.024  25.074  26.346  0.00  0.00    +0.000 NA
ATOM      4  C   UNL     1      25.939  24.196  26.021  0.00  0.00    +0.000 A 
ATOM      5  C   UNL     1      26.583  23.559  27.050  0.00  0.00    +0.000 A 
ATOM      6  S   UNL     1      25.842  24.252  28.418  0.00  0.00    +0.000 S 
ENDROOT
BRANCH   4   7
ATOM      7  C   UNL     1      26.265  23.903  24.603  0.00  0.00    +0.000 A 
ATOM      8  C   UNL     1      25.509  23.209  23.670  0.00  0.00    +0.000 A 
ATOM      9  N   UNL     1      26.169  23.170  22.499  0.00  0.00    +0.000 NA
ATOM     10  C   UNL     1      27.352  23.817  22.605  0.00  0.00    +0.000 A 
ATOM     11  C   UNL     1      28.389  24.063  21.711  0.00  0.00    +0.000 A 
ATOM     12  C   UNL     1      29.467  24.778  22.190  0.00  0.00    +0.000 A 
ATOM     13  C   UNL     1      29.546  25.240  23.485  0.00  0.00    +0.000 A 
ATOM     14  C   UNL     1      28.508  24.982  24.347  0.00  0.00    +0.000 A 
ATOM     15  C   UNL     1      27.398  24.265  23.909  0.00  0.00    +0.000 A 
ENDBRANCH   4   7
BRANCH   1  16
ATOM     16  C   UNL     1      22.965  27.042  27.397  0.00  0.00    +0.000 C 
BRANCH  16  18
ATOM     17  C   UNL     1      20.684  26.199  27.923  0.00  0.00    +0.000 C 
ATOM     18  C   UNL     1      21.761  26.284  26.879  0.00  0.00    +0.000 C 
ATOM     19  C   UNL     1      21.260  26.812  25.571  0.00  0.00    +0.000 C 
ENDBRANCH  16  18
ENDBRANCH   1  16
TORSDOF 3
ENDMDL
MODEL 5
REMARK VINA RESULT:      -5.6     17.776     20.622
REMARK  Name = 
REMARK  3 active torsions:
REMARK  status: ('A' for Active; 'I' for Inactive)
REMARK    1  A    between atoms: C_2  and  C_4
REMARK    2  A    between atoms: C_4  and  N_5
REMARK    3  A    between atoms: C_8  and  C_9
REMARK                            x       y       z     vdW  Elec       q    Type
REMARK                         _______ _______ _______ _____ _____    ______ ____
ROOT
ATOM      1  N   UNL     1      34.102  -5.644  32.851  0.00  0.00    +0.000 NA
ATOM      2  C   UNL     1      34.122  -4.786  34.019  0.00  0.00    +0.000 A 
ATOM      3  N   UNL     1      33.879  -3.496  34.097  0.00  0.00    +0.000 NA
ATOM      4  C   UNL     1      33.949  -2.898  35.260  0.00  0.00    +0.000 A 
ATOM      5  C   UNL     1      34.279  -3.675  36.340  0.00  0.00    +0.000 A 
ATOM      6  S   UNL     1      34.468  -5.212  35.629  0.00  0.00    +0.000 S 
ENDROOT
BRANCH   4   7
ATOM      7  C   UNL     1      33.685  -1.445  35.402  0.00  0.00    +0.000 A 
ATOM      8  C   UNL     1      33.257  -0.752  36.525  0.00  0.00    +0.000 A 
ATOM      9  N   UNL     1      33.142   0.555  36.228  0.00  0.00    +0.000 NA
ATOM     10  C   UNL     1      33.481   0.774  34.936  0.00  0.00    +0.000 A 
ATOM     11  C   UNL     1      33.534   1.916  34.144  0.00  0.00    +0.000 A 
ATOM     12  C   UNL     1      33.937   1.748  32.836  0.00  0.00    +0.000 A 
ATOM     13  C   UNL     1      34.277   0.522  32.307  0.00  0.00    +0.000 A 
ATOM     14  C   UNL     1      34.214  -0.589  33.111  0.00  0.00    +0.000 A 
ATOM     15  C   UNL     1      33.814  -0.469  34.439  0.00  0.00    +0.000 A 
ENDBRANCH   4   7
BRANCH   1  16
ATOM     16  C   UNL     1      33.792  -5.145  31.550  0.00  0.00    +0.000 C 
BRANCH  16  18
ATOM     17  C   UNL     1      34.036  -5.587  29.113  0.00  0.00    +0.000 C 
ATOM     18  C   UNL     1      33.974  -6.204  30.482  0.00  0.00    +0.000 C 
ATOM     19  C   UNL     1      35.126  -7.118  30.759  0.00  0.00    +0.000 C 
ENDBRANCH  16  18
ENDBRANCH   1  16
TORSDOF 3
ENDMDL
MODEL 6
REMARK VINA RESULT:      -5.6     16.705     18.822
REMARK  Name = 
REMARK  3 active torsions:
REMARK  status: ('A' for Active; 'I' for Inactive)
REMARK    1  A    between atoms: C_2  and  C_4
REMARK    2  A    between atoms: C_4  and  N_5
REMARK    3  A    between atoms: C_8  and  C_9
REMARK                            x       y       z     vdW  Elec       q    Type
REMARK                         _______ _______ _______ _____ _____    ______ ____
ROOT
ATOM      1  N   UNL     1      25.048  25.212  30.614  0.00  0.00    +0.000 NA
ATOM      2  C   UNL     1      25.853  24.250  29.888  0.00  0.00    +0.000 A 
ATOM      3  N   UNL     1      26.128  24.210  28.602  0.00  0.00    +0.000 NA
ATOM      4  C   UNL     1      26.885  23.248  28.137  0.00  0.00    +0.000 A 
ATOM      5  C   UNL     1      27.348  22.328  29.042  0.00  0.00    +0.000 A 
ATOM      6  S   UNL     1      26.676  22.894  30.502  0.00  0.00    +0.000 S 
ENDROOT
BRANCH   4   7
ATOM      7  C   UNL     1      27.224  23.156  26.696  0.00  0.00    +0.000 A 
ATOM      8  C   UNL     1      26.371  23.213  25.603  0.00  0.00    +0.000 A 
ATOM      9  N   UNL     1      27.086  23.091  24.470  0.00  0.00    +0.000 NA
ATOM     10  C   UNL     1      28.401  22.953  24.758  0.00  0.00    +0.000 A 
ATOM     11  C   UNL     1      29.538  22.796  23.972  0.00  0.00    +0.000 A 
ATOM     12  C   UNL     1      30.742  22.685  24.635  0.00  0.00    +0.000 A 
ATOM     13  C   UNL     1      30.849  22.723  26.007  0.00  0.00    +0.000 A 
ATOM     14  C   UNL     1      29.710  22.879  26.759  0.00  0.00    +0.000 A 
ATOM     15  C   UNL     1      28.472  22.995  26.134  0.00  0.00    +0.000 A 
ENDBRANCH   4   7
BRANCH   1  16
ATOM     16  C   UNL     1      24.410  26.311  29.963  0.00  0.00    +0.000 C 
BRANCH  16  18
ATOM     17  C   UNL     1      22.052  27.036  30.292  0.00  0.00    +0.000 C 
ATOM     18  C   UNL     1      23.435  27.021  30.880  0.00  0.00    +0.000 C 
ATOM     19  C   UNL     1      23.464  26.493  32.280  0.00  0.00    +0.000 C 
ENDBRANCH  16  18
ENDBRANCH   1  16
TORSDOF 3
ENDMDL
MODEL 7
REMARK VINA RESULT:      -5.6      1.663      2.185
REMARK  Name = 
REMARK  3 active torsions:
REMARK  status: ('A' for Active; 'I' for Inactive)
REMARK    1  A    between atoms: C_2  and  C_4
REMARK    2  A    between atoms: C_4  and  N_5
REMARK    3  A    between atoms: C_8  and  C_9
REMARK                            x       y       z     vdW  Elec       q    Type
REMARK                         _______ _______ _______ _____ _____    ______ ____
ROOT
ATOM      1  N   UNL     1      20.861  12.317  39.792  0.00  0.00    +0.000 NA
ATOM      2  C   UNL     1      19.957  11.344  39.213  0.00  0.00    +0.000 A 
ATOM      3  N   UNL     1      19.402  11.344  38.020  0.00  0.00    +0.000 NA
ATOM      4  C   UNL     1      18.604  10.362  37.683  0.00  0.00    +0.000 A 
ATOM      5  C   UNL     1      18.398   9.380  38.617  0.00  0.00    +0.000 A 
ATOM      6  S   UNL     1      19.355   9.919  39.919  0.00  0.00    +0.000 S 
ENDROOT
BRANCH   4   7
ATOM      7  C   UNL     1      17.952  10.315  36.351  0.00  0.00    +0.000 A 
ATOM      8  C   UNL     1      18.250   9.495  35.273  0.00  0.00    +0.000 A 
ATOM      9  N   UNL     1      17.417   9.774  34.254  0.00  0.00    +0.000 NA
ATOM     10  C   UNL     1      16.559  10.759  34.606  0.00  0.00    +0.000 A 
ATOM     11  C   UNL     1      15.523  11.405  33.940  0.00  0.00    +0.000 A 
ATOM     12  C   UNL     1      14.851  12.387  34.638  0.00  0.00    +0.000 A 
ATOM     13  C   UNL     1      15.165  12.736  35.932  0.00  0.00    +0.000 A 
ATOM     14  C   UNL     1      16.193  12.082  36.567  0.00  0.00    +0.000 A 
ATOM     15  C   UNL     1      16.900  11.084  35.902  0.00  0.00    +0.000 A 
ENDBRANCH   4   7
BRANCH   1  16
ATOM     16  C   UNL     1      21.286  13.478  39.078  0.00  0.00    +0.000 C 
BRANCH  16  18
ATOM     17  C   UNL     1      23.428  12.489  38.289  0.00  0.00    +0.000 C 
ATOM     18  C   UNL     1      22.795  13.611  39.062  0.00  0.00    +0.000 C 
ATOM     19  C   UNL     1      23.254  14.960  38.608  0.00  0.00    +0.000 C 
ENDBRANCH  16  18
ENDBRANCH   1  16
TORSDOF 3
ENDMDL
MODEL 8
REMARK VINA RESULT:      -5.5     18.021     20.234
REMARK  Name = 
REMARK  3 active torsions:
REMARK  status: ('A' for Active; 'I' for Inactive)
REMARK    1  A    between atoms: C_2  and  C_4
REMARK    2  A    between atoms: C_4  and  N_5
REMARK    3  A    between atoms: C_8  and  C_9
REMARK                            x       y       z     vdW  Elec       q    Type
REMARK                         _______ _______ _______ _____ _____    ______ ____
ROOT
ATOM      1  N   UNL     1      27.668  24.433  21.784  0.00  0.00    +0.000 NA
ATOM      2  C   UNL     1      27.212  23.877  23.041  0.00  0.00    +0.000 A 
ATOM      3  N   UNL     1      27.894  23.673  24.147  0.00  0.00    +0.000 NA
ATOM      4  C   UNL     1      27.292  23.154  25.187  0.00  0.00    +0.000 A 
ATOM      5  C   UNL     1      25.962  22.851  25.048  0.00  0.00    +0.000 A 
ATOM      6  S   UNL     1      25.653  23.327  23.442  0.00  0.00    +0.000 S 
ENDROOT
BRANCH   4   7
ATOM      7  C   UNL     1      28.016  22.903  26.458  0.00  0.00    +0.000 A 
ATOM      8  C   UNL     1      29.305  22.423  26.637  0.00  0.00    +0.000 A 
ATOM      9  N   UNL     1      29.575  22.343  27.952  0.00  0.00    +0.000 NA
ATOM     10  C   UNL     1      28.508  22.756  28.675  0.00  0.00    +0.000 A 
ATOM     11  C   UNL     1      28.268  22.869  30.041  0.00  0.00    +0.000 A 
ATOM     12  C   UNL     1      27.028  23.340  30.417  0.00  0.00    +0.000 A 
ATOM     13  C   UNL     1      26.052  23.692  29.512  0.00  0.00    +0.000 A 
ATOM     14  C   UNL     1      26.316  23.570  28.169  0.00  0.00    +0.000 A 
ATOM     15  C   UNL     1      27.554  23.098  27.741  0.00  0.00    +0.000 A 
ENDBRANCH   4   7
BRANCH   1  16
ATOM     16  C   UNL     1      29.018  24.857  21.587  0.00  0.00    +0.000 C 
BRANCH  16  18
ATOM     17  C   UNL     1      29.722  26.633  19.992  0.00  0.00    +0.000 C 
ATOM     18  C   UNL     1      29.110  26.348  21.335  0.00  0.00    +0.000 C 
ATOM     19  C   UNL     1      27.807  27.054  21.540  0.00  0.00    +0.000 C 
ENDBRANCH  16  18
ENDBRANCH   1  16
TORSDOF 3
ENDMDL
MODEL 9
REMARK VINA RESULT:      -5.5      2.900      6.458
REMARK  Name = 
REMARK  3 active torsions:
REMARK  status: ('A' for Active; 'I' for Inactive)
REMARK    1  A    between atoms: C_2  and  C_4
REMARK    2  A    between atoms: C_4  and  N_5
REMARK    3  A    between atoms: C_8  and  C_9
REMARK                            x       y       z     vdW  Elec       q    Type
REMARK                         _______ _______ _______ _____ _____    ______ ____
ROOT
ATOM      1  N   UNL     1      17.459   8.562  40.146  0.00  0.00    +0.000 NA
ATOM      2  C   UNL     1      18.020   9.557  39.253  0.00  0.00    +0.000 A 
ATOM      3  N   UNL     1      19.256  10.003  39.190  0.00  0.00    +0.000 NA
ATOM      4  C   UNL     1      19.566  10.914  38.302  0.00  0.00    +0.000 A 
ATOM      5  C   UNL     1      18.558  11.350  37.482  0.00  0.00    +0.000 A 
ATOM      6  S   UNL     1      17.230  10.432  38.028  0.00  0.00    +0.000 S 
ENDROOT
BRANCH   4   7
ATOM      7  C   UNL     1      20.944  11.451  38.190  0.00  0.00    +0.000 A 
ATOM      8  C   UNL     1      21.464  12.614  38.740  0.00  0.00    +0.000 A 
ATOM      9  N   UNL     1      22.759  12.731  38.396  0.00  0.00    +0.000 NA
ATOM     10  C   UNL     1      23.138  11.681  37.630  0.00  0.00    +0.000 A 
ATOM     11  C   UNL     1      24.340  11.326  37.027  0.00  0.00    +0.000 A 
ATOM     12  C   UNL     1      24.349  10.152  36.303  0.00  0.00    +0.000 A 
ATOM     13  C   UNL     1      23.240   9.348  36.164  0.00  0.00    +0.000 A 
ATOM     14  C   UNL     1      22.066   9.723  36.770  0.00  0.00    +0.000 A 
ATOM     15  C   UNL     1      22.009  10.900  37.511  0.00  0.00    +0.000 A 
ENDBRANCH   4   7
BRANCH   1  16
ATOM     16  C   UNL     1      18.247   7.902  41.137  0.00  0.00    +0.000 C 
BRANCH  16  18
ATOM     17  C   UNL     1      20.163   6.362  40.752  0.00  0.00    +0.000 C 
ATOM     18  C   UNL     1      18.670   6.517  40.691  0.00  0.00    +0.000 C 
ATOM     19  C   UNL     1      17.943   5.427  41.415  0.00  0.00    +0.000 C 
ENDBRANCH  16  18
ENDBRANCH   1  16
TORSDOF 3
ENDMDL
MODEL 10
REMARK VINA RESULT:      -5.4     16.557     18.543
REMARK  Name = 
REMARK  3 active torsions:
REMARK  status: ('A' for Active; 'I' for Inactive)
REMARK    1  A    between atoms: C_2  and  C_4
REMARK    2  A    between atoms: C_4  and  N_5
REMARK    3  A    between atoms: C_8  and  C_9
REMARK                            x       y       z     vdW  Elec       q    Type
REMARK                         _______ _______ _______ _____ _____    ______ ____
ROOT
ATOM      1  N   UNL     1      25.648  24.582  30.879  0.00  0.00    +0.000 NA
ATOM      2  C   UNL     1      26.337  23.617  30.046  0.00  0.00    +0.000 A 
ATOM      3  N   UNL     1      26.872  23.790  28.857  0.00  0.00    +0.000 NA
ATOM      4  C   UNL     1      27.457  22.781  28.262  0.00  0.00    +0.000 A 
ATOM      5  C   UNL     1      27.471  21.587  28.936  0.00  0.00    +0.000 A 
ATOM      6  S   UNL     1      26.649  21.978  30.376  0.00  0.00    +0.000 S 
ENDROOT
BRANCH   4   7
ATOM      7  C   UNL     1      28.074  22.922  26.921  0.00  0.00    +0.000 A 
ATOM      8  C   UNL     1      29.420  22.914  26.585  0.00  0.00    +0.000 A 
ATOM      9  N   UNL     1      29.551  23.071  25.256  0.00  0.00    +0.000 NA
ATOM     10  C   UNL     1      28.335  23.184  24.675  0.00  0.00    +0.000 A 
ATOM     11  C   UNL     1      27.919  23.358  23.359  0.00  0.00    +0.000 A 
ATOM     12  C   UNL     1      26.559  23.432  23.141  0.00  0.00    +0.000 A 
ATOM     13  C   UNL     1      25.631  23.342  24.154  0.00  0.00    +0.000 A 
ATOM     14  C   UNL     1      26.069  23.171  25.445  0.00  0.00    +0.000 A 
ATOM     15  C   UNL     1      27.433  23.090  25.713  0.00  0.00    +0.000 A 
ENDBRANCH   4   7
BRANCH   1  16
ATOM     16  C   UNL     1      25.456  25.937  30.471  0.00  0.00    +0.000 C 
BRANCH  16  18
ATOM     17  C   UNL     1      23.254  27.080  30.281  0.00  0.00    +0.000 C 
ATOM     18  C   UNL     1      24.200  26.103  29.641  0.00  0.00    +0.000 C 
ATOM     19  C   UNL     1      24.488  26.430  28.210  0.00  0.00    +0.000 C 
ENDBRANCH  16  18
ENDBRANCH   1  16
TORSDOF 3
ENDMDL
