MODEL 1
REMARK VINA RESULT:      -7.2      0.000      0.000
REMARK  Name = 
REMARK  7 active torsions:
REMARK  status: ('A' for Active; 'I' for Inactive)
REMARK    1  A    between atoms: N_2  and  C_4
REMARK    2  A    between atoms: C_4  and  C_5
REMARK    3  A    between atoms: C_5  and  C_6
REMARK    4  A    between atoms: C_6  and  O_7
REMARK    5  A    between atoms: O_7  and  C_8
REMARK    6  A    between atoms: C_11  and  N_12
REMARK    7  A    between atoms: N_12  and  C_13
REMARK                            x       y       z     vdW  Elec       q    Type
REMARK                         _______ _______ _______ _____ _____    ______ ____
ROOT
ATOM      1  C   UNL     1      13.730   0.098  28.404  0.00  0.00    +0.000 C 
ATOM      2  C   UNL     1      12.578   1.157  28.285  0.00  0.00    +0.000 A 
ATOM      3  C   UNL     1      12.390   1.639  27.045  0.00  0.00    +0.000 A 
ATOM      4  C   UNL     1      11.403   2.595  26.751  0.00  0.00    +0.000 A 
ATOM      5  C   UNL     1      10.628   3.027  27.787  0.00  0.00    +0.000 A 
ATOM      6  C   UNL     1      10.808   2.547  29.050  0.00  0.00    +0.000 A 
ATOM      7  C   UNL     1      11.810   1.582  29.318  0.00  0.00    +0.000 A 
ATOM      8  C   UNL     1      11.721   1.296  30.765  0.00  0.00    +0.000 C 
ATOM      9  S   UNL     1      11.825  -0.435  31.189  0.00  0.00    +0.000 S 
ATOM     10  C   UNL     1      12.030  -1.429  29.684  0.00  0.00    +0.000 A 
ATOM     11  C   UNL     1      11.255  -2.584  29.749  0.00  0.00    +0.000 A 
ATOM     12  C   UNL     1      11.302  -3.451  28.676  0.00  0.00    +0.000 A 
ATOM     13  C   UNL     1      12.095  -3.188  27.564  0.00  0.00    +0.000 A 
ATOM     14  C   UNL     1      12.844  -2.033  27.546  0.00  0.00    +0.000 A 
ATOM     15  C   UNL     1      12.799  -1.200  28.577  0.00  0.00    +0.000 A 
ENDROOT
BRANCH   1  16
ATOM     16  N   UNL     1      14.070  -0.084  26.870  0.00  0.00    +0.000 NA
BRANCH  16  20
ATOM     17  C   UNL     1      18.151   0.223  26.094  0.00  0.00    +0.000 A 
ATOM     18  C   UNL     1      17.441  -0.863  25.619  0.00  0.00    +0.000 A 
ATOM     19  C   UNL     1      16.092  -0.942  25.889  0.00  0.00    +0.000 A 
ATOM     20  C   UNL     1      15.484   0.057  26.622  0.00  0.00    +0.000 A 
ATOM     21  C   UNL     1      16.216   1.127  27.083  0.00  0.00    +0.000 A 
ATOM     22  C   UNL     1      17.543   1.211  26.821  0.00  0.00    +0.000 A 
BRANCH  17  23
ATOM     23  O   UNL     1      19.504   0.311  25.828  0.00  0.00    +0.000 OA
BRANCH  23  24
ATOM     24  C   UNL     1      20.030  -0.081  24.574  0.00  0.00    +0.000 C 
BRANCH  24  25
ATOM     25  C   UNL     1      20.564   1.147  23.834  0.00  0.00    +0.000 C 
BRANCH  25  26
ATOM     26  C   UNL     1      21.224   0.777  22.538  0.00  0.00    +0.000 C 
BRANCH  26  28
ATOM     27  C   UNL     1      19.890   0.631  20.593  0.00  0.00    +0.000 C 
ATOM     28  N   UNL     1      20.387  -0.094  21.747  0.00  0.00    +0.000 NA
ATOM     29  C   UNL     1      21.129  -1.270  21.296  0.00  0.00    +0.000 C 
ENDBRANCH  26  28
ENDBRANCH  25  26
ENDBRANCH  24  25
ENDBRANCH  23  24
ENDBRANCH  17  23
ENDBRANCH  16  20
ENDBRANCH   1  16
TORSDOF 7
ENDMDL
MODEL 2
REMARK VINA RESULT:      -7.1     23.381     27.507
REMARK  Name = 
REMARK  7 active torsions:
REMARK  status: ('A' for Active; 'I' for Inactive)
REMARK    1  A    between atoms: N_2  and  C_4
REMARK    2  A    between atoms: C_4  and  C_5
REMARK    3  A    between atoms: C_5  and  C_6
REMARK    4  A    between atoms: C_6  and  O_7
REMARK    5  A    between atoms: O_7  and  C_8
REMARK    6  A    between atoms: C_11  and  N_12
REMARK    7  A    between atoms: N_12  and  C_13
REMARK                            x       y       z     vdW  Elec       q    Type
REMARK                         _______ _______ _______ _____ _____    ______ ____
ROOT
ATOM      1  C   UNL     1      41.088   7.481  18.878  0.00  0.00    +0.000 C 
ATOM      2  C   UNL     1      40.189   8.511  19.649  0.00  0.00    +0.000 A 
ATOM      3  C   UNL     1      39.075   7.987  20.186  0.00  0.00    +0.000 A 
ATOM      4  C   UNL     1      38.152   8.762  20.911  0.00  0.00    +0.000 A 
ATOM      5  C   UNL     1      38.432  10.089  21.052  0.00  0.00    +0.000 A 
ATOM      6  C   UNL     1      39.558  10.635  20.512  0.00  0.00    +0.000 A 
ATOM      7  C   UNL     1      40.472   9.831  19.787  0.00  0.00    +0.000 A 
ATOM      8  C   UNL     1      41.556  10.737  19.355  0.00  0.00    +0.000 C 
ATOM      9  S   UNL     1      43.202  10.076  19.558  0.00  0.00    +0.000 S 
ATOM     10  C   UNL     1      43.116   8.402  20.256  0.00  0.00    +0.000 A 
ATOM     11  C   UNL     1      44.106   8.219  21.217  0.00  0.00    +0.000 A 
ATOM     12  C   UNL     1      44.175   6.992  21.844  0.00  0.00    +0.000 A 
ATOM     13  C   UNL     1      43.289   5.967  21.531  0.00  0.00    +0.000 A 
ATOM     14  C   UNL     1      42.327   6.194  20.574  0.00  0.00    +0.000 A 
ATOM     15  C   UNL     1      42.261   7.374  19.971  0.00  0.00    +0.000 A 
ENDROOT
BRANCH   1  16
ATOM     16  N   UNL     1      40.324   6.147  19.252  0.00  0.00    +0.000 NA
BRANCH  16  20
ATOM     17  C   UNL     1      38.364   4.431  16.002  0.00  0.00    +0.000 A 
ATOM     18  C   UNL     1      37.948   4.139  17.288  0.00  0.00    +0.000 A 
ATOM     19  C   UNL     1      38.613   4.719  18.346  0.00  0.00    +0.000 A 
ATOM     20  C   UNL     1      39.671   5.573  18.102  0.00  0.00    +0.000 A 
ATOM     21  C   UNL     1      40.063   5.844  16.811  0.00  0.00    +0.000 A 
ATOM     22  C   UNL     1      39.414   5.278  15.765  0.00  0.00    +0.000 A 
BRANCH  17  23
ATOM     23  O   UNL     1      37.704   3.855  14.934  0.00  0.00    +0.000 OA
BRANCH  23  24
ATOM     24  C   UNL     1      36.492   4.399  14.443  0.00  0.00    +0.000 C 
BRANCH  24  25
ATOM     25  C   UNL     1      35.341   3.432  14.729  0.00  0.00    +0.000 C 
BRANCH  25  26
ATOM     26  C   UNL     1      35.688   2.021  14.355  0.00  0.00    +0.000 C 
BRANCH  26  28
ATOM     27  C   UNL     1      36.783   0.554  15.849  0.00  0.00    +0.000 C 
ATOM     28  N   UNL     1      35.503   1.118  15.467  0.00  0.00    +0.000 NA
ATOM     29  C   UNL     1      34.917   1.809  16.614  0.00  0.00    +0.000 C 
ENDBRANCH  26  28
ENDBRANCH  25  26
ENDBRANCH  24  25
ENDBRANCH  23  24
ENDBRANCH  17  23
ENDBRANCH  16  20
ENDBRANCH   1  16
TORSDOF 7
ENDMDL
MODEL 3
REMARK VINA RESULT:      -7.0     23.186     26.902
REMARK  Name = 
REMARK  7 active torsions:
REMARK  status: ('A' for Active; 'I' for Inactive)
REMARK    1  A    between atoms: N_2  and  C_4
REMARK    2  A    between atoms: C_4  and  C_5
REMARK    3  A    between atoms: C_5  and  C_6
REMARK    4  A    between atoms: C_6  and  O_7
REMARK    5  A    between atoms: O_7  and  C_8
REMARK    6  A    between atoms: C_11  and  N_12
REMARK    7  A    between atoms: N_12  and  C_13
REMARK                            x       y       z     vdW  Elec       q    Type
REMARK                         _______ _______ _______ _____ _____    ______ ____
ROOT
ATOM      1  C   UNL     1      38.980   5.797  17.596  0.00  0.00    +0.000 C 
ATOM      2  C   UNL     1      40.490   6.219  17.656  0.00  0.00    +0.000 A 
ATOM      3  C   UNL     1      41.141   6.130  16.484  0.00  0.00    +0.000 A 
ATOM      4  C   UNL     1      42.499   6.466  16.350  0.00  0.00    +0.000 A 
ATOM      5  C   UNL     1      43.147   6.894  17.471  0.00  0.00    +0.000 A 
ATOM      6  C   UNL     1      42.500   6.989  18.666  0.00  0.00    +0.000 A 
ATOM      7  C   UNL     1      41.130   6.645  18.774  0.00  0.00    +0.000 A 
ATOM      8  C   UNL     1      40.765   6.866  20.188  0.00  0.00    +0.000 C 
ATOM      9  S   UNL     1      39.199   7.688  20.433  0.00  0.00    +0.000 S 
ATOM     10  C   UNL     1      38.429   8.042  18.827  0.00  0.00    +0.000 A 
ATOM     11  C   UNL     1      37.852   9.309  18.829  0.00  0.00    +0.000 A 
ATOM     12  C   UNL     1      37.221   9.730  17.676  0.00  0.00    +0.000 A 
ATOM     13  C   UNL     1      37.159   8.921  16.546  0.00  0.00    +0.000 A 
ATOM     14  C   UNL     1      37.744   7.676  16.592  0.00  0.00    +0.000 A 
ATOM     15  C   UNL     1      38.350   7.272  17.701  0.00  0.00    +0.000 A 
ENDROOT
BRANCH   1  16
ATOM     16  N   UNL     1      38.829   5.609  16.033  0.00  0.00    +0.000 NA
BRANCH  16  20
ATOM     17  C   UNL     1      37.583   1.736  15.140  0.00  0.00    +0.000 A 
ATOM     18  C   UNL     1      36.844   2.512  16.013  0.00  0.00    +0.000 A 
ATOM     19  C   UNL     1      37.276   3.789  16.293  0.00  0.00    +0.000 A 
ATOM     20  C   UNL     1      38.430   4.264  15.699  0.00  0.00    +0.000 A 
ATOM     21  C   UNL     1      39.145   3.469  14.834  0.00  0.00    +0.000 A 
ATOM     22  C   UNL     1      38.726   2.212  14.554  0.00  0.00    +0.000 A 
BRANCH  17  23
ATOM     23  O   UNL     1      37.156   0.454  14.853  0.00  0.00    +0.000 OA
BRANCH  23  24
ATOM     24  C   UNL     1      38.079  -0.612  14.721  0.00  0.00    +0.000 C 
BRANCH  24  25
ATOM     25  C   UNL     1      38.286  -1.284  16.080  0.00  0.00    +0.000 C 
BRANCH  25  26
ATOM     26  C   UNL     1      37.007  -1.381  16.858  0.00  0.00    +0.000 C 
BRANCH  26  28
ATOM     27  C   UNL     1      35.854  -0.100  18.475  0.00  0.00    +0.000 C 
ATOM     28  N   UNL     1      37.117  -0.731  18.143  0.00  0.00    +0.000 NA
ATOM     29  C   UNL     1      37.467  -1.689  19.189  0.00  0.00    +0.000 C 
ENDBRANCH  26  28
ENDBRANCH  25  26
ENDBRANCH  24  25
ENDBRANCH  23  24
ENDBRANCH  17  23
ENDBRANCH  16  20
ENDBRANCH   1  16
TORSDOF 7
ENDMDL
MODEL 4
REMARK VINA RESULT:      -6.9     20.341     23.208
REMARK  Name = 
REMARK  7 active torsions:
REMARK  status: ('A' for Active; 'I' for Inactive)
REMARK    1  A    between atoms: N_2  and  C_4
REMARK    2  A    between atoms: C_4  and  C_5
REMARK    3  A    between atoms: C_5  and  C_6
REMARK    4  A    between atoms: C_6  and  O_7
REMARK    5  A    between atoms: O_7  and  C_8
REMARK    6  A    between atoms: C_11  and  N_12
REMARK    7  A    between atoms: N_12  and  C_13
REMARK                            x       y       z     vdW  Elec       q    Type
REMARK                         _______ _______ _______ _____ _____    ______ ____
ROOT
ATOM      1  C   UNL     1      25.580  17.442  35.867  0.00  0.00    +0.000 C 
ATOM      2  C   UNL     1      26.723  18.354  35.296  0.00  0.00    +0.000 A 
ATOM      3  C   UNL     1      27.933  18.135  35.837  0.00  0.00    +0.000 A 
ATOM      4  C   UNL     1      29.073  18.859  35.448  0.00  0.00    +0.000 A 
ATOM      5  C   UNL     1      28.906  19.810  34.485  0.00  0.00    +0.000 A 
ATOM      6  C   UNL     1      27.685  20.043  33.928  0.00  0.00    +0.000 A 
ATOM      7  C   UNL     1      26.551  19.298  34.338  0.00  0.00    +0.000 A 
ATOM      8  C   UNL     1      25.419  19.809  33.538  0.00  0.00    +0.000 C 
ATOM      9  S   UNL     1      24.345  18.545  32.879  0.00  0.00    +0.000 S 
ATOM     10  C   UNL     1      24.936  16.904  33.386  0.00  0.00    +0.000 A 
ATOM     11  C   UNL     1      24.837  15.999  32.333  0.00  0.00    +0.000 A 
ATOM     12  C   UNL     1      25.247  14.701  32.559  0.00  0.00    +0.000 A 
ATOM     13  C   UNL     1      25.743  14.302  33.796  0.00  0.00    +0.000 A 
ATOM     14  C   UNL     1      25.822  15.233  34.807  0.00  0.00    +0.000 A 
ATOM     15  C   UNL     1      25.427  16.480  34.589  0.00  0.00    +0.000 A 
ENDROOT
BRANCH   1  16
ATOM     16  N   UNL     1      26.450  16.472  36.764  0.00  0.00    +0.000 NA
BRANCH  16  20
ATOM     17  C   UNL     1      24.241  15.221  40.066  0.00  0.00    +0.000 A 
ATOM     18  C   UNL     1      23.914  16.403  39.428  0.00  0.00    +0.000 A 
ATOM     19  C   UNL     1      24.660  16.795  38.338  0.00  0.00    +0.000 A 
ATOM     20  C   UNL     1      25.709  16.006  37.909  0.00  0.00    +0.000 A 
ATOM     21  C   UNL     1      26.012  14.835  38.564  0.00  0.00    +0.000 A 
ATOM     22  C   UNL     1      25.283  14.442  39.637  0.00  0.00    +0.000 A 
BRANCH  17  23
ATOM     23  O   UNL     1      23.499  14.818  41.159  0.00  0.00    +0.000 OA
BRANCH  23  24
ATOM     24  C   UNL     1      22.445  15.618  41.663  0.00  0.00    +0.000 C 
BRANCH  24  25
ATOM     25  C   UNL     1      21.131  14.838  41.598  0.00  0.00    +0.000 C 
BRANCH  25  26
ATOM     26  C   UNL     1      20.982  13.894  42.754  0.00  0.00    +0.000 C 
BRANCH  26  28
ATOM     27  C   UNL     1      20.717  11.635  43.397  0.00  0.00    +0.000 C 
ATOM     28  N   UNL     1      20.542  12.589  42.318  0.00  0.00    +0.000 NA
ATOM     29  C   UNL     1      19.137  12.614  41.919  0.00  0.00    +0.000 C 
ENDBRANCH  26  28
ENDBRANCH  25  26
ENDBRANCH  24  25
ENDBRANCH  23  24
ENDBRANCH  17  23
ENDBRANCH  16  20
ENDBRANCH   1  16
TORSDOF 7
ENDMDL
MODEL 5
REMARK VINA RESULT:      -6.9     23.185     27.000
REMARK  Name = 
REMARK  7 active torsions:
REMARK  status: ('A' for Active; 'I' for Inactive)
REMARK    1  A    between atoms: N_2  and  C_4
REMARK    2  A    between atoms: C_4  and  C_5
REMARK    3  A    between atoms: C_5  and  C_6
REMARK    4  A    between atoms: C_6  and  O_7
REMARK    5  A    between atoms: O_7  and  C_8
REMARK    6  A    between atoms: C_11  and  N_12
REMARK    7  A    between atoms: N_12  and  C_13
REMARK                            x       y       z     vdW  Elec       q    Type
REMARK                         _______ _______ _______ _____ _____    ______ ____
ROOT
ATOM      1  C   UNL     1      37.620  -0.623  15.772  0.00  0.00    +0.000 C 
ATOM      2  C   UNL     1      36.671   0.609  15.557  0.00  0.00    +0.000 A 
ATOM      3  C   UNL     1      36.773   1.186  14.348  0.00  0.00    +0.000 A 
ATOM      4  C   UNL     1      36.001   2.301  13.979  0.00  0.00    +0.000 A 
ATOM      5  C   UNL     1      35.129   2.787  14.908  0.00  0.00    +0.000 A 
ATOM      6  C   UNL     1      35.015   2.212  16.138  0.00  0.00    +0.000 A 
ATOM      7  C   UNL     1      35.805   1.088  16.484  0.00  0.00    +0.000 A 
ATOM      8  C   UNL     1      35.426   0.735  17.868  0.00  0.00    +0.000 C 
ATOM      9  S   UNL     1      35.204  -1.012  18.156  0.00  0.00    +0.000 S 
ATOM     10  C   UNL     1      35.521  -1.937  16.625  0.00  0.00    +0.000 A 
ATOM     11  C   UNL     1      34.588  -2.957  16.466  0.00  0.00    +0.000 A 
ATOM     12  C   UNL     1      34.693  -3.757  15.346  0.00  0.00    +0.000 A 
ATOM     13  C   UNL     1      35.697  -3.556  14.404  0.00  0.00    +0.000 A 
ATOM     14  C   UNL     1      36.597  -2.535  14.605  0.00  0.00    +0.000 A 
ATOM     15  C   UNL     1      36.495  -1.767  15.681  0.00  0.00    +0.000 A 
ENDROOT
BRANCH   1  16
ATOM     16  N   UNL     1      38.191  -0.766  14.304  0.00  0.00    +0.000 NA
BRANCH  16  20
ATOM     17  C   UNL     1      42.337  -1.168  14.287  0.00  0.00    +0.000 A 
ATOM     18  C   UNL     1      41.762   0.048  13.964  0.00  0.00    +0.000 A 
ATOM     19  C   UNL     1      40.389   0.155  13.977  0.00  0.00    +0.000 A 
ATOM     20  C   UNL     1      39.622  -0.944  14.309  0.00  0.00    +0.000 A 
ATOM     21  C   UNL     1      40.221  -2.141  14.625  0.00  0.00    +0.000 A 
ATOM     22  C   UNL     1      41.571  -2.255  14.615  0.00  0.00    +0.000 A 
BRANCH  17  23
ATOM     23  O   UNL     1      43.713  -1.285  14.277  0.00  0.00    +0.000 OA
BRANCH  23  24
ATOM     24  C   UNL     1      44.544  -0.178  14.573  0.00  0.00    +0.000 C 
BRANCH  24  25
ATOM     25  C   UNL     1      44.979  -0.239  16.039  0.00  0.00    +0.000 C 
BRANCH  25  26
ATOM     26  C   UNL     1      45.942  -1.361  16.291  0.00  0.00    +0.000 C 
BRANCH  26  28
ATOM     27  C   UNL     1      48.112  -0.442  16.477  0.00  0.00    +0.000 C 
ATOM     28  N   UNL     1      46.981  -0.970  17.216  0.00  0.00    +0.000 NA
ATOM     29  C   UNL     1      46.498   0.044  18.150  0.00  0.00    +0.000 C 
ENDBRANCH  26  28
ENDBRANCH  25  26
ENDBRANCH  24  25
ENDBRANCH  23  24
ENDBRANCH  17  23
ENDBRANCH  16  20
ENDBRANCH   1  16
TORSDOF 7
ENDMDL
MODEL 6
REMARK VINA RESULT:      -6.9     23.159     26.745
REMARK  Name = 
REMARK  7 active torsions:
REMARK  status: ('A' for Active; 'I' for Inactive)
REMARK    1  A    between atoms: N_2  and  C_4
REMARK    2  A    between atoms: C_4  and  C_5
REMARK    3  A    between atoms: C_5  and  C_6
REMARK    4  A    between atoms: C_6  and  O_7
REMARK    5  A    between atoms: O_7  and  C_8
REMARK    6  A    between atoms: C_11  and  N_12
REMARK    7  A    between atoms: N_12  and  C_13
REMARK                            x       y       z     vdW  Elec       q    Type
REMARK                         _______ _______ _______ _____ _____    ______ ____
ROOT
ATOM      1  C   UNL     1      37.587  -0.709  15.751  0.00  0.00    +0.000 C 
ATOM      2  C   UNL     1      36.661   0.532  15.493  0.00  0.00    +0.000 A 
ATOM      3  C   UNL     1      36.782   1.074  14.269  0.00  0.00    +0.000 A 
ATOM      4  C   UNL     1      36.032   2.191  13.864  0.00  0.00    +0.000 A 
ATOM      5  C   UNL     1      35.161   2.717  14.772  0.00  0.00    +0.000 A 
ATOM      6  C   UNL     1      35.028   2.178  16.016  0.00  0.00    +0.000 A 
ATOM      7  C   UNL     1      35.796   1.051  16.399  0.00  0.00    +0.000 A 
ATOM      8  C   UNL     1      35.400   0.743  17.789  0.00  0.00    +0.000 C 
ATOM      9  S   UNL     1      35.146  -0.992  18.123  0.00  0.00    +0.000 S 
ATOM     10  C   UNL     1      35.460  -1.963  16.622  0.00  0.00    +0.000 A 
ATOM     11  C   UNL     1      34.511  -2.972  16.483  0.00  0.00    +0.000 A 
ATOM     12  C   UNL     1      34.612  -3.805  15.386  0.00  0.00    +0.000 A 
ATOM     13  C   UNL     1      35.626  -3.647  14.448  0.00  0.00    +0.000 A 
ATOM     14  C   UNL     1      36.542  -2.635  14.628  0.00  0.00    +0.000 A 
ATOM     15  C   UNL     1      36.444  -1.836  15.682  0.00  0.00    +0.000 A 
ENDROOT
BRANCH   1  16
ATOM     16  N   UNL     1      38.168  -0.902  14.292  0.00  0.00    +0.000 NA
BRANCH  16  20
ATOM     17  C   UNL     1      42.329  -1.068  14.338  0.00  0.00    +0.000 A 
ATOM     18  C   UNL     1      41.593  -2.182  14.697  0.00  0.00    +0.000 A 
ATOM     19  C   UNL     1      40.218  -2.101  14.674  0.00  0.00    +0.000 A 
ATOM     20  C   UNL     1      39.609  -0.921  14.295  0.00  0.00    +0.000 A 
ATOM     21  C   UNL     1      40.368   0.171  13.943  0.00  0.00    +0.000 A 
ATOM     22  C   UNL     1      41.721   0.100  13.963  0.00  0.00    +0.000 A 
BRANCH  17  23
ATOM     23  O   UNL     1      43.708  -1.139  14.358  0.00  0.00    +0.000 OA
BRANCH  23  24
ATOM     24  C   UNL     1      44.390  -2.278  13.865  0.00  0.00    +0.000 C 
BRANCH  24  25
ATOM     25  C   UNL     1      44.466  -2.211  12.338  0.00  0.00    +0.000 C 
BRANCH  25  26
ATOM     26  C   UNL     1      43.751  -3.360  11.691  0.00  0.00    +0.000 C 
BRANCH  26  28
ATOM     27  C   UNL     1      41.431  -3.325  11.239  0.00  0.00    +0.000 C 
ATOM     28  N   UNL     1      42.737  -2.903  10.770  0.00  0.00    +0.000 NA
ATOM     29  C   UNL     1      42.758  -1.447  10.646  0.00  0.00    +0.000 C 
ENDBRANCH  26  28
ENDBRANCH  25  26
ENDBRANCH  24  25
ENDBRANCH  23  24
ENDBRANCH  17  23
ENDBRANCH  16  20
ENDBRANCH   1  16
TORSDOF 7
ENDMDL
MODEL 7
REMARK VINA RESULT:      -6.8     23.111     25.895
REMARK  Name = 
REMARK  7 active torsions:
REMARK  status: ('A' for Active; 'I' for Inactive)
REMARK    1  A    between atoms: N_2  and  C_4
REMARK    2  A    between atoms: C_4  and  C_5
REMARK    3  A    between atoms: C_5  and  C_6
REMARK    4  A    between atoms: C_6  and  O_7
REMARK    5  A    between atoms: O_7  and  C_8
REMARK    6  A    between atoms: C_11  and  N_12
REMARK    7  A    between atoms: N_12  and  C_13
REMARK                            x       y       z     vdW  Elec       q    Type
REMARK                         _______ _______ _______ _____ _____    ______ ____
ROOT
ATOM      1  C   UNL     1      37.621   3.416  15.104  0.00  0.00    +0.000 C 
ATOM      2  C   UNL     1      36.948   4.568  14.277  0.00  0.00    +0.000 A 
ATOM      3  C   UNL     1      35.650   4.773  14.560  0.00  0.00    +0.000 A 
ATOM      4  C   UNL     1      34.887   5.761  13.915  0.00  0.00    +0.000 A 
ATOM      5  C   UNL     1      35.520   6.520  12.975  0.00  0.00    +0.000 A 
ATOM      6  C   UNL     1      36.835   6.324  12.678  0.00  0.00    +0.000 A 
ATOM      7  C   UNL     1      37.582   5.320  13.343  0.00  0.00    +0.000 A 
ATOM      8  C   UNL     1      38.946   5.388  12.780  0.00  0.00    +0.000 C 
ATOM      9  S   UNL     1      40.256   5.282  13.988  0.00  0.00    +0.000 S 
ATOM     10  C   UNL     1      39.550   5.101  15.651  0.00  0.00    +0.000 A 
ATOM     11  C   UNL     1      40.251   5.878  16.570  0.00  0.00    +0.000 A 
ATOM     12  C   UNL     1      39.837   5.849  17.886  0.00  0.00    +0.000 A 
ATOM     13  C   UNL     1      38.756   5.071  18.289  0.00  0.00    +0.000 A 
ATOM     14  C   UNL     1      38.094   4.320  17.346  0.00  0.00    +0.000 A 
ATOM     15  C   UNL     1      38.493   4.348  16.081  0.00  0.00    +0.000 A 
ENDROOT
BRANCH   1  16
ATOM     16  N   UNL     1      36.440   3.099  16.108  0.00  0.00    +0.000 NA
BRANCH  16  20
ATOM     17  C   UNL     1      35.565  -0.973  16.020  0.00  0.00    +0.000 A 
ATOM     18  C   UNL     1      36.485  -0.448  15.132  0.00  0.00    +0.000 A 
ATOM     19  C   UNL     1      36.757   0.901  15.181  0.00  0.00    +0.000 A 
ATOM     20  C   UNL     1      36.110   1.695  16.108  0.00  0.00    +0.000 A 
ATOM     21  C   UNL     1      35.199   1.145  16.980  0.00  0.00    +0.000 A 
ATOM     22  C   UNL     1      34.927  -0.181  16.938  0.00  0.00    +0.000 A 
BRANCH  17  23
ATOM     23  O   UNL     1      35.286  -2.325  15.980  0.00  0.00    +0.000 OA
BRANCH  23  24
ATOM     24  C   UNL     1      35.780  -3.143  14.936  0.00  0.00    +0.000 C 
BRANCH  24  25
ATOM     25  C   UNL     1      36.813  -4.123  15.495  0.00  0.00    +0.000 C 
BRANCH  25  26
ATOM     26  C   UNL     1      37.017  -3.941  16.970  0.00  0.00    +0.000 C 
BRANCH  26  28
ATOM     27  C   UNL     1      38.639  -3.376  18.593  0.00  0.00    +0.000 C 
ATOM     28  N   UNL     1      38.166  -3.111  17.248  0.00  0.00    +0.000 NA
ATOM     29  C   UNL     1      39.244  -3.370  16.297  0.00  0.00    +0.000 C 
ENDBRANCH  26  28
ENDBRANCH  25  26
ENDBRANCH  24  25
ENDBRANCH  23  24
ENDBRANCH  17  23
ENDBRANCH  16  20
ENDBRANCH   1  16
TORSDOF 7
ENDMDL
MODEL 8
REMARK VINA RESULT:      -6.7     20.511     23.034
REMARK  Name = 
REMARK  7 active torsions:
REMARK  status: ('A' for Active; 'I' for Inactive)
REMARK    1  A    between atoms: N_2  and  C_4
REMARK    2  A    between atoms: C_4  and  C_5
REMARK    3  A    between atoms: C_5  and  C_6
REMARK    4  A    between atoms: C_6  and  O_7
REMARK    5  A    between atoms: O_7  and  C_8
REMARK    6  A    between atoms: C_11  and  N_12
REMARK    7  A    between atoms: N_12  and  C_13
REMARK                            x       y       z     vdW  Elec       q    Type
REMARK                         _______ _______ _______ _____ _____    ______ ____
ROOT
ATOM      1  C   UNL     1      25.939  16.816  36.181  0.00  0.00    +0.000 C 
ATOM      2  C   UNL     1      27.153  17.711  35.748  0.00  0.00    +0.000 A 
ATOM      3  C   UNL     1      28.355  17.237  36.116  0.00  0.00    +0.000 A 
ATOM      4  C   UNL     1      29.553  17.907  35.814  0.00  0.00    +0.000 A 
ATOM      5  C   UNL     1      29.452  19.079  35.123  0.00  0.00    +0.000 A 
ATOM      6  C   UNL     1      28.240  19.572  34.743  0.00  0.00    +0.000 A 
ATOM      7  C   UNL     1      27.047  18.875  35.059  0.00  0.00    +0.000 A 
ATOM      8  C   UNL     1      25.944  19.685  34.503  0.00  0.00    +0.000 C 
ATOM      9  S   UNL     1      24.685  18.745  33.656  0.00  0.00    +0.000 S 
ATOM     10  C   UNL     1      25.094  16.977  33.707  0.00  0.00    +0.000 A 
ATOM     11  C   UNL     1      24.823  16.374  32.482  0.00  0.00    +0.000 A 
ATOM     12  C   UNL     1      25.079  15.024  32.357  0.00  0.00    +0.000 A 
ATOM     13  C   UNL     1      25.591  14.283  33.417  0.00  0.00    +0.000 A 
ATOM     14  C   UNL     1      25.843  14.922  34.609  0.00  0.00    +0.000 A 
ATOM     15  C   UNL     1      25.596  16.220  34.729  0.00  0.00    +0.000 A 
ENDROOT
BRANCH   1  16
ATOM     16  N   UNL     1      26.731  15.567  36.744  0.00  0.00    +0.000 NA
BRANCH  16  20
ATOM     17  C   UNL     1      25.240  14.479  40.478  0.00  0.00    +0.000 A 
ATOM     18  C   UNL     1      24.367  14.835  39.466  0.00  0.00    +0.000 A 
ATOM     19  C   UNL     1      24.885  15.191  38.240  0.00  0.00    +0.000 A 
ATOM     20  C   UNL     1      26.253  15.185  38.049  0.00  0.00    +0.000 A 
ATOM     21  C   UNL     1      27.097  14.826  39.075  0.00  0.00    +0.000 A 
ATOM     22  C   UNL     1      26.595  14.474  40.283  0.00  0.00    +0.000 A 
BRANCH  17  23
ATOM     23  O   UNL     1      24.730  14.119  41.710  0.00  0.00    +0.000 OA
BRANCH  23  24
ATOM     24  C   UNL     1      25.540  13.478  42.678  0.00  0.00    +0.000 C 
BRANCH  24  25
ATOM     25  C   UNL     1      25.154  12.000  42.773  0.00  0.00    +0.000 C 
BRANCH  25  26
ATOM     26  C   UNL     1      26.357  11.104  42.742  0.00  0.00    +0.000 C 
BRANCH  26  28
ATOM     27  C   UNL     1      27.248   9.925  40.898  0.00  0.00    +0.000 C 
ATOM     28  N   UNL     1      26.160   9.982  41.854  0.00  0.00    +0.000 NA
ATOM     29  C   UNL     1      26.105   8.726  42.598  0.00  0.00    +0.000 C 
ENDBRANCH  26  28
ENDBRANCH  25  26
ENDBRANCH  24  25
ENDBRANCH  23  24
ENDBRANCH  17  23
ENDBRANCH  16  20
ENDBRANCH   1  16
TORSDOF 7
ENDMDL
MODEL 9
REMARK VINA RESULT:      -6.7     24.626     27.750
REMARK  Name = 
REMARK  7 active torsions:
REMARK  status: ('A' for Active; 'I' for Inactive)
REMARK    1  A    between atoms: N_2  and  C_4
REMARK    2  A    between atoms: C_4  and  C_5
REMARK    3  A    between atoms: C_5  and  C_6
REMARK    4  A    between atoms: C_6  and  O_7
REMARK    5  A    between atoms: O_7  and  C_8
REMARK    6  A    between atoms: C_11  and  N_12
REMARK    7  A    between atoms: N_12  and  C_13
REMARK                            x       y       z     vdW  Elec       q    Type
REMARK                         _______ _______ _______ _____ _____    ______ ____
ROOT
ATOM      1  C   UNL     1      41.282   7.527  18.973  0.00  0.00    +0.000 C 
ATOM      2  C   UNL     1      40.340   8.526  19.734  0.00  0.00    +0.000 A 
ATOM      3  C   UNL     1      39.215   7.973  20.218  0.00  0.00    +0.000 A 
ATOM      4  C   UNL     1      38.255   8.716  20.926  0.00  0.00    +0.000 A 
ATOM      5  C   UNL     1      38.508  10.044  21.107  0.00  0.00    +0.000 A 
ATOM      6  C   UNL     1      39.645  10.619  20.622  0.00  0.00    +0.000 A 
ATOM      7  C   UNL     1      40.597   9.845  19.913  0.00  0.00    +0.000 A 
ATOM      8  C   UNL     1      41.682  10.777  19.541  0.00  0.00    +0.000 C 
ATOM      9  S   UNL     1      43.329  10.137  19.789  0.00  0.00    +0.000 S 
ATOM     10  C   UNL     1      43.244   8.446  20.445  0.00  0.00    +0.000 A 
ATOM     11  C   UNL     1      44.201   8.255  21.437  0.00  0.00    +0.000 A 
ATOM     12  C   UNL     1      44.268   7.015  22.038  0.00  0.00    +0.000 A 
ATOM     13  C   UNL     1      43.409   5.984  21.670  0.00  0.00    +0.000 A 
ATOM     14  C   UNL     1      42.479   6.220  20.683  0.00  0.00    +0.000 A 
ATOM     15  C   UNL     1      42.416   7.412  20.105  0.00  0.00    +0.000 A 
ENDROOT
BRANCH   1  16
ATOM     16  N   UNL     1      40.526   6.173  19.288  0.00  0.00    +0.000 NA
BRANCH  16  20
ATOM     17  C   UNL     1      38.517   4.841  15.892  0.00  0.00    +0.000 A 
ATOM     18  C   UNL     1      39.608   5.679  15.760  0.00  0.00    +0.000 A 
ATOM     19  C   UNL     1      40.256   6.106  16.899  0.00  0.00    +0.000 A 
ATOM     20  C   UNL     1      39.805   5.691  18.137  0.00  0.00    +0.000 A 
ATOM     21  C   UNL     1      38.716   4.857  18.237  0.00  0.00    +0.000 A 
ATOM     22  C   UNL     1      38.074   4.432  17.122  0.00  0.00    +0.000 A 
BRANCH  17  23
ATOM     23  O   UNL     1      37.861   4.407  14.756  0.00  0.00    +0.000 OA
BRANCH  23  24
ATOM     24  C   UNL     1      37.419   5.323  13.771  0.00  0.00    +0.000 C 
BRANCH  24  25
ATOM     25  C   UNL     1      36.265   6.159  14.328  0.00  0.00    +0.000 C 
BRANCH  25  26
ATOM     26  C   UNL     1      34.932   5.531  14.049  0.00  0.00    +0.000 C 
BRANCH  26  28
ATOM     27  C   UNL     1      33.990   7.659  14.456  0.00  0.00    +0.000 C 
ATOM     28  N   UNL     1      33.975   6.504  13.579  0.00  0.00    +0.000 NA
ATOM     29  C   UNL     1      34.283   6.929  12.215  0.00  0.00    +0.000 C 
ENDBRANCH  26  28
ENDBRANCH  25  26
ENDBRANCH  24  25
ENDBRANCH  23  24
ENDBRANCH  17  23
ENDBRANCH  16  20
ENDBRANCH   1  16
TORSDOF 7
ENDMDL
MODEL 10
REMARK VINA RESULT:      -6.6     23.402     26.112
REMARK  Name = 
REMARK  7 active torsions:
REMARK  status: ('A' for Active; 'I' for Inactive)
REMARK    1  A    between atoms: N_2  and  C_4
REMARK    2  A    between atoms: C_4  and  C_5
REMARK    3  A    between atoms: C_5  and  C_6
REMARK    4  A    between atoms: C_6  and  O_7
REMARK    5  A    between atoms: O_7  and  C_8
REMARK    6  A    between atoms: C_11  and  N_12
REMARK    7  A    between atoms: N_12  and  C_13
REMARK                            x       y       z     vdW  Elec       q    Type
REMARK                         _______ _______ _______ _____ _____    ______ ____
ROOT
ATOM      1  C   UNL     1      37.498  -1.877  15.448  0.00  0.00    +0.000 C 
ATOM      2  C   UNL     1      37.100  -1.332  16.866  0.00  0.00    +0.000 A 
ATOM      3  C   UNL     1      36.215  -0.321  16.846  0.00  0.00    +0.000 A 
ATOM      4  C   UNL     1      35.746   0.291  18.021  0.00  0.00    +0.000 A 
ATOM      5  C   UNL     1      36.229  -0.185  19.205  0.00  0.00    +0.000 A 
ATOM      6  C   UNL     1      37.127  -1.209  19.240  0.00  0.00    +0.000 A 
ATOM      7  C   UNL     1      37.583  -1.809  18.040  0.00  0.00    +0.000 A 
ATOM      8  C   UNL     1      38.530  -2.866  18.449  0.00  0.00    +0.000 C 
ATOM      9  S   UNL     1      38.342  -4.412  17.577  0.00  0.00    +0.000 S 
ATOM     10  C   UNL     1      36.997  -4.279  16.364  0.00  0.00    +0.000 A 
ATOM     11  C   UNL     1      36.227  -5.438  16.356  0.00  0.00    +0.000 A 
ATOM     12  C   UNL     1      35.159  -5.496  15.482  0.00  0.00    +0.000 A 
ATOM     13  C   UNL     1      34.858  -4.435  14.636  0.00  0.00    +0.000 A 
ATOM     14  C   UNL     1      35.648  -3.309  14.680  0.00  0.00    +0.000 A 
ATOM     15  C   UNL     1      36.673  -3.254  15.519  0.00  0.00    +0.000 A 
ENDROOT
BRANCH   1  16
ATOM     16  N   UNL     1      36.474  -1.058  14.563  0.00  0.00    +0.000 NA
BRANCH  16  20
ATOM     17  C   UNL     1      38.434   0.621  11.294  0.00  0.00    +0.000 A 
ATOM     18  C   UNL     1      38.889  -0.569  11.832  0.00  0.00    +0.000 A 
ATOM     19  C   UNL     1      38.223  -1.104  12.912  0.00  0.00    +0.000 A 
ATOM     20  C   UNL     1      37.126  -0.446  13.432  0.00  0.00    +0.000 A 
ATOM     21  C   UNL     1      36.696   0.737  12.877  0.00  0.00    +0.000 A 
ATOM     22  C   UNL     1      37.345   1.269  11.813  0.00  0.00    +0.000 A 
BRANCH  17  23
ATOM     23  O   UNL     1      39.094   1.165  10.210  0.00  0.00    +0.000 OA
BRANCH  23  24
ATOM     24  C   UNL     1      38.453   2.090   9.351  0.00  0.00    +0.000 C 
BRANCH  24  25
ATOM     25  C   UNL     1      38.075   1.397   8.039  0.00  0.00    +0.000 C 
BRANCH  25  26
ATOM     26  C   UNL     1      37.498   2.359   7.044  0.00  0.00    +0.000 C 
BRANCH  26  28
ATOM     27  C   UNL     1      38.208   1.500   4.960  0.00  0.00    +0.000 C 
ATOM     28  N   UNL     1      37.071   1.684   5.841  0.00  0.00    +0.000 NA
ATOM     29  C   UNL     1      36.483   0.382   6.149  0.00  0.00    +0.000 C 
ENDBRANCH  26  28
ENDBRANCH  25  26
ENDBRANCH  24  25
ENDBRANCH  23  24
ENDBRANCH  17  23
ENDBRANCH  16  20
ENDBRANCH   1  16
TORSDOF 7
ENDMDL
