MODEL 1
REMARK VINA RESULT:      -7.4      0.000      0.000
REMARK  Name = 
REMARK  7 active torsions:
REMARK  status: ('A' for Active; 'I' for Inactive)
REMARK    1  A    between atoms: C_2  and  C_3
REMARK    2  A    between atoms: C_3  and  N_5
REMARK    3  A    between atoms: C_6  and  C_8
REMARK    4  A    between atoms: N_11  and  C_12
REMARK    5  A    between atoms: C_12  and  C_13
REMARK    6  A    between atoms: C_13  and  C_14
REMARK    7  A    between atoms: C_17  and  O_18
REMARK                            x       y       z     vdW  Elec       q    Type
REMARK                         _______ _______ _______ _____ _____    ______ ____
ROOT
ATOM      1  C   UNL     1      36.658   2.334  15.870  0.00  0.00    +0.000 A 
ATOM      2  C   UNL     1      36.736   2.221  14.505  0.00  0.00    +0.000 A 
ATOM      3  N   UNL     1      35.984   1.310  13.696  0.00  0.00    +0.000 NA
ATOM      4  N   UNL     1      37.619   3.078  13.992  0.00  0.00    +0.000 N 
ATOM      5  C   UNL     1      38.139   3.775  15.018  0.00  0.00    +0.000 A 
ATOM      6  N   UNL     1      39.053   4.753  15.140  0.00  0.00    +0.000 NA
ATOM      7  C   UNL     1      39.393   5.282  16.338  0.00  0.00    +0.000 A 
ATOM      8  C   UNL     1      40.350   6.299  16.411  0.00  0.00    +0.000 A 
ATOM      9  C   UNL     1      40.685   6.827  17.641  0.00  0.00    +0.000 A 
ATOM     10  C   UNL     1      40.075   6.348  18.782  0.00  0.00    +0.000 A 
ATOM     11  C   UNL     1      39.132   5.350  18.741  0.00  0.00    +0.000 A 
ATOM     12  C   UNL     1      38.809   4.832  17.495  0.00  0.00    +0.000 A 
ATOM     13  N   UNL     1      37.877   3.837  17.394  0.00  0.00    +0.000 NA
ATOM     14  C   UNL     1      37.558   3.330  16.191  0.00  0.00    +0.000 A 
ENDROOT
BRANCH   1  16
ATOM     15  N   UNL     1      36.354   0.577  17.567  0.00  0.00    +0.000 NA
ATOM     16  C   UNL     1      35.808   1.567  16.769  0.00  0.00    +0.000 C 
ATOM     17  O   UNL     1      34.578   1.784  16.838  0.00  0.00    +0.000 OA
BRANCH  15  18
ATOM     18  C   UNL     1      35.467  -0.255  18.535  0.00  0.00    +0.000 C 
ATOM     19  C   UNL     1      36.749  -0.958  19.267  0.00  0.00    +0.000 C 
BRANCH  18  21
ATOM     20  C   UNL     1      33.725  -1.672  17.364  0.00  0.00    +0.000 C 
ATOM     21  C   UNL     1      35.174  -1.517  17.545  0.00  0.00    +0.000 C 
ENDBRANCH  18  21
ENDBRANCH  15  18
ENDBRANCH   1  16
BRANCH   4  22
ATOM     22  C   UNL     1      38.000   3.268  12.579  0.00  0.00    +0.000 C 
BRANCH  22  23
ATOM     23  C   UNL     1      39.428   2.918  12.318  0.00  0.00    +0.000 C 
BRANCH  23  24
ATOM     24  C   UNL     1      39.655   1.521  12.767  0.00  0.00    +0.000 A 
ATOM     25  C   UNL     1      39.048   0.442  12.155  0.00  0.00    +0.000 A 
ATOM     26  C   UNL     1      39.293  -0.834  12.610  0.00  0.00    +0.000 A 
ATOM     27  C   UNL     1      40.133  -1.108  13.672  0.00  0.00    +0.000 A 
ATOM     28  C   UNL     1      40.740  -0.032  14.284  0.00  0.00    +0.000 A 
ATOM     29  C   UNL     1      40.496   1.255  13.828  0.00  0.00    +0.000 A 
BRANCH  27  30
ATOM     30  O   UNL     1      40.324  -2.378  14.061  0.00  0.00    +0.000 OA
ATOM     31  C   UNL     1      40.353  -3.028  15.256  0.00  0.00    +0.000 C 
ENDBRANCH  27  30
ENDBRANCH  23  24
ENDBRANCH  22  23
ENDBRANCH   4  22
TORSDOF 7
ENDMDL
MODEL 2
REMARK VINA RESULT:      -7.2      2.678      5.969
REMARK  Name = 
REMARK  7 active torsions:
REMARK  status: ('A' for Active; 'I' for Inactive)
REMARK    1  A    between atoms: C_2  and  C_3
REMARK    2  A    between atoms: C_3  and  N_5
REMARK    3  A    between atoms: C_6  and  C_8
REMARK    4  A    between atoms: N_11  and  C_12
REMARK    5  A    between atoms: C_12  and  C_13
REMARK    6  A    between atoms: C_13  and  C_14
REMARK    7  A    between atoms: C_17  and  O_18
REMARK                            x       y       z     vdW  Elec       q    Type
REMARK                         _______ _______ _______ _____ _____    ______ ____
ROOT
ATOM      1  C   UNL     1      36.801  -0.325  15.780  0.00  0.00    +0.000 A 
ATOM      2  C   UNL     1      36.390   0.978  15.660  0.00  0.00    +0.000 A 
ATOM      3  N   UNL     1      35.092   1.481  15.998  0.00  0.00    +0.000 NA
ATOM      4  N   UNL     1      37.358   1.756  15.177  0.00  0.00    +0.000 N 
ATOM      5  C   UNL     1      38.432   0.972  14.970  0.00  0.00    +0.000 A 
ATOM      6  N   UNL     1      39.679   1.165  14.507  0.00  0.00    +0.000 NA
ATOM      7  C   UNL     1      40.577   0.159  14.401  0.00  0.00    +0.000 A 
ATOM      8  C   UNL     1      41.862   0.413  13.913  0.00  0.00    +0.000 A 
ATOM      9  C   UNL     1      42.766  -0.624  13.813  0.00  0.00    +0.000 A 
ATOM     10  C   UNL     1      42.394  -1.897  14.193  0.00  0.00    +0.000 A 
ATOM     11  C   UNL     1      41.138  -2.177  14.676  0.00  0.00    +0.000 A 
ATOM     12  C   UNL     1      40.244  -1.120  14.770  0.00  0.00    +0.000 A 
ATOM     13  N   UNL     1      38.980  -1.339  15.243  0.00  0.00    +0.000 NA
ATOM     14  C   UNL     1      38.109  -0.321  15.337  0.00  0.00    +0.000 A 
ENDROOT
BRANCH   1  16
ATOM     15  N   UNL     1      35.682  -2.488  15.415  0.00  0.00    +0.000 NA
ATOM     16  C   UNL     1      36.022  -1.453  16.269  0.00  0.00    +0.000 C 
ATOM     17  O   UNL     1      35.645  -1.510  17.461  0.00  0.00    +0.000 OA
BRANCH  15  18
ATOM     18  C   UNL     1      34.851  -3.702  15.915  0.00  0.00    +0.000 C 
ATOM     19  C   UNL     1      36.169  -4.649  16.119  0.00  0.00    +0.000 C 
BRANCH  18  21
ATOM     20  C   UNL     1      33.779  -5.610  14.641  0.00  0.00    +0.000 C 
ATOM     21  C   UNL     1      34.467  -4.326  14.458  0.00  0.00    +0.000 C 
ENDBRANCH  18  21
ENDBRANCH  15  18
ENDBRANCH   1  16
BRANCH   4  22
ATOM     22  C   UNL     1      37.319   3.203  14.894  0.00  0.00    +0.000 C 
BRANCH  22  23
ATOM     23  C   UNL     1      38.681   3.809  14.808  0.00  0.00    +0.000 C 
BRANCH  23  24
ATOM     24  C   UNL     1      38.971   4.490  16.095  0.00  0.00    +0.000 A 
ATOM     25  C   UNL     1      38.279   4.199  17.255  0.00  0.00    +0.000 A 
ATOM     26  C   UNL     1      38.587   4.859  18.423  0.00  0.00    +0.000 A 
ATOM     27  C   UNL     1      39.574   5.823  18.507  0.00  0.00    +0.000 A 
ATOM     28  C   UNL     1      40.265   6.114  17.350  0.00  0.00    +0.000 A 
ATOM     29  C   UNL     1      39.958   5.451  16.172  0.00  0.00    +0.000 A 
BRANCH  27  30
ATOM     30  O   UNL     1      39.819   6.426  19.681  0.00  0.00    +0.000 OA
ATOM     31  C   UNL     1      39.290   7.485  20.351  0.00  0.00    +0.000 C 
ENDBRANCH  27  30
ENDBRANCH  23  24
ENDBRANCH  22  23
ENDBRANCH   4  22
TORSDOF 7
ENDMDL
MODEL 3
REMARK VINA RESULT:      -7.1      2.719      7.344
REMARK  Name = 
REMARK  7 active torsions:
REMARK  status: ('A' for Active; 'I' for Inactive)
REMARK    1  A    between atoms: C_2  and  C_3
REMARK    2  A    between atoms: C_3  and  N_5
REMARK    3  A    between atoms: C_6  and  C_8
REMARK    4  A    between atoms: N_11  and  C_12
REMARK    5  A    between atoms: C_12  and  C_13
REMARK    6  A    between atoms: C_13  and  C_14
REMARK    7  A    between atoms: C_17  and  O_18
REMARK                            x       y       z     vdW  Elec       q    Type
REMARK                         _______ _______ _______ _____ _____    ______ ____
ROOT
ATOM      1  C   UNL     1      39.260   1.525  14.221  0.00  0.00    +0.000 A 
ATOM      2  C   UNL     1      39.291   2.864  14.520  0.00  0.00    +0.000 A 
ATOM      3  N   UNL     1      40.253   3.807  14.034  0.00  0.00    +0.000 NA
ATOM      4  N   UNL     1      38.298   3.207  15.339  0.00  0.00    +0.000 N 
ATOM      5  C   UNL     1      37.590   2.092  15.595  0.00  0.00    +0.000 A 
ATOM      6  N   UNL     1      36.505   1.800  16.332  0.00  0.00    +0.000 NA
ATOM      7  C   UNL     1      35.996   0.548  16.410  0.00  0.00    +0.000 A 
ATOM      8  C   UNL     1      34.865   0.297  17.191  0.00  0.00    +0.000 A 
ATOM      9  C   UNL     1      34.360  -0.985  17.259  0.00  0.00    +0.000 A 
ATOM     10  C   UNL     1      34.974  -2.003  16.558  0.00  0.00    +0.000 A 
ATOM     11  C   UNL     1      36.088  -1.785  15.782  0.00  0.00    +0.000 A 
ATOM     12  C   UNL     1      36.580  -0.489  15.727  0.00  0.00    +0.000 A 
ATOM     13  N   UNL     1      37.686  -0.214  14.971  0.00  0.00    +0.000 NA
ATOM     14  C   UNL     1      38.169   1.038  14.913  0.00  0.00    +0.000 A 
ENDROOT
BRANCH   1  16
ATOM     15  N   UNL     1      41.238   0.092  13.914  0.00  0.00    +0.000 NA
ATOM     16  C   UNL     1      40.180   0.793  13.363  0.00  0.00    +0.000 C 
ATOM     17  O   UNL     1      40.034   0.782  12.120  0.00  0.00    +0.000 OA
BRANCH  15  18
ATOM     18  C   UNL     1      42.233  -0.698  13.018  0.00  0.00    +0.000 C 
ATOM     19  C   UNL     1      42.522  -1.829  14.162  0.00  0.00    +0.000 C 
BRANCH  18  21
ATOM     20  C   UNL     1      44.077  -0.199  14.679  0.00  0.00    +0.000 C 
ATOM     21  C   UNL     1      43.573   0.170  13.351  0.00  0.00    +0.000 C 
ENDBRANCH  18  21
ENDBRANCH  15  18
ENDBRANCH   1  16
BRANCH   4  22
ATOM     22  C   UNL     1      37.986   4.536  15.898  0.00  0.00    +0.000 C 
BRANCH  22  23
ATOM     23  C   UNL     1      38.040   4.559  17.390  0.00  0.00    +0.000 C 
BRANCH  23  24
ATOM     24  C   UNL     1      39.227   5.351  17.802  0.00  0.00    +0.000 A 
ATOM     25  C   UNL     1      40.214   5.718  16.907  0.00  0.00    +0.000 A 
ATOM     26  C   UNL     1      41.294   6.453  17.339  0.00  0.00    +0.000 A 
ATOM     27  C   UNL     1      41.456   6.858  18.651  0.00  0.00    +0.000 A 
ATOM     28  C   UNL     1      40.472   6.492  19.545  0.00  0.00    +0.000 A 
ATOM     29  C   UNL     1      39.381   5.752  19.113  0.00  0.00    +0.000 A 
BRANCH  27  30
ATOM     30  O   UNL     1      42.537   7.573  19.000  0.00  0.00    +0.000 OA
ATOM     31  C   UNL     1      43.111   7.943  20.176  0.00  0.00    +0.000 C 
ENDBRANCH  27  30
ENDBRANCH  23  24
ENDBRANCH  22  23
ENDBRANCH   4  22
TORSDOF 7
ENDMDL
MODEL 4
REMARK VINA RESULT:      -7.1      2.505      6.853
REMARK  Name = 
REMARK  7 active torsions:
REMARK  status: ('A' for Active; 'I' for Inactive)
REMARK    1  A    between atoms: C_2  and  C_3
REMARK    2  A    between atoms: C_3  and  N_5
REMARK    3  A    between atoms: C_6  and  C_8
REMARK    4  A    between atoms: N_11  and  C_12
REMARK    5  A    between atoms: C_12  and  C_13
REMARK    6  A    between atoms: C_13  and  C_14
REMARK    7  A    between atoms: C_17  and  O_18
REMARK                            x       y       z     vdW  Elec       q    Type
REMARK                         _______ _______ _______ _____ _____    ______ ____
ROOT
ATOM      1  C   UNL     1      36.900   1.473  15.564  0.00  0.00    +0.000 A 
ATOM      2  C   UNL     1      37.150   2.613  16.286  0.00  0.00    +0.000 A 
ATOM      3  N   UNL     1      37.080   2.733  17.711  0.00  0.00    +0.000 NA
ATOM      4  N   UNL     1      37.474   3.634  15.494  0.00  0.00    +0.000 N 
ATOM      5  C   UNL     1      37.444   3.181  14.228  0.00  0.00    +0.000 A 
ATOM      6  N   UNL     1      37.669   3.719  13.017  0.00  0.00    +0.000 NA
ATOM      7  C   UNL     1      37.560   3.003  11.874  0.00  0.00    +0.000 A 
ATOM      8  C   UNL     1      37.805   3.610  10.638  0.00  0.00    +0.000 A 
ATOM      9  C   UNL     1      37.689   2.865   9.483  0.00  0.00    +0.000 A 
ATOM     10  C   UNL     1      37.334   1.534   9.557  0.00  0.00    +0.000 A 
ATOM     11  C   UNL     1      37.087   0.911  10.757  0.00  0.00    +0.000 A 
ATOM     12  C   UNL     1      37.210   1.677  11.907  0.00  0.00    +0.000 A 
ATOM     13  N   UNL     1      36.975   1.109  13.129  0.00  0.00    +0.000 NA
ATOM     14  C   UNL     1      37.091   1.844  14.248  0.00  0.00    +0.000 A 
ENDROOT
BRANCH   1  16
ATOM     15  N   UNL     1      37.484  -0.689  16.587  0.00  0.00    +0.000 NA
ATOM     16  C   UNL     1      36.521   0.167  16.083  0.00  0.00    +0.000 C 
ATOM     17  O   UNL     1      35.326  -0.205  16.085  0.00  0.00    +0.000 OA
BRANCH  15  18
ATOM     18  C   UNL     1      37.103  -2.087  17.147  0.00  0.00    +0.000 C 
ATOM     19  C   UNL     1      37.185  -1.597  18.705  0.00  0.00    +0.000 C 
BRANCH  18  21
ATOM     20  C   UNL     1      39.363  -2.207  16.011  0.00  0.00    +0.000 C 
ATOM     21  C   UNL     1      38.594  -2.747  17.140  0.00  0.00    +0.000 C 
ENDBRANCH  18  21
ENDBRANCH  15  18
ENDBRANCH   1  16
BRANCH   4  22
ATOM     22  C   UNL     1      37.805   5.021  15.872  0.00  0.00    +0.000 C 
BRANCH  22  23
ATOM     23  C   UNL     1      39.154   5.138  16.503  0.00  0.00    +0.000 C 
BRANCH  23  24
ATOM     24  C   UNL     1      39.042   6.034  17.681  0.00  0.00    +0.000 A 
ATOM     25  C   UNL     1      39.839   5.884  18.800  0.00  0.00    +0.000 A 
ATOM     26  C   UNL     1      39.696   6.741  19.866  0.00  0.00    +0.000 A 
ATOM     27  C   UNL     1      38.778   7.774  19.886  0.00  0.00    +0.000 A 
ATOM     28  C   UNL     1      37.982   7.926  18.770  0.00  0.00    +0.000 A 
ATOM     29  C   UNL     1      38.123   7.063  17.694  0.00  0.00    +0.000 A 
BRANCH  27  30
ATOM     30  O   UNL     1      38.695   8.572  20.963  0.00  0.00    +0.000 OA
ATOM     31  C   UNL     1      38.665   9.916  21.167  0.00  0.00    +0.000 C 
ENDBRANCH  27  30
ENDBRANCH  23  24
ENDBRANCH  22  23
ENDBRANCH   4  22
TORSDOF 7
ENDMDL
MODEL 5
REMARK VINA RESULT:      -7.0      3.528      6.391
REMARK  Name = 
REMARK  7 active torsions:
REMARK  status: ('A' for Active; 'I' for Inactive)
REMARK    1  A    between atoms: C_2  and  C_3
REMARK    2  A    between atoms: C_3  and  N_5
REMARK    3  A    between atoms: C_6  and  C_8
REMARK    4  A    between atoms: N_11  and  C_12
REMARK    5  A    between atoms: C_12  and  C_13
REMARK    6  A    between atoms: C_13  and  C_14
REMARK    7  A    between atoms: C_17  and  O_18
REMARK                            x       y       z     vdW  Elec       q    Type
REMARK                         _______ _______ _______ _____ _____    ______ ____
ROOT
ATOM      1  C   UNL     1      37.807   5.829  15.378  0.00  0.00    +0.000 A 
ATOM      2  C   UNL     1      37.642   4.467  15.342  0.00  0.00    +0.000 A 
ATOM      3  N   UNL     1      38.319   3.519  16.174  0.00  0.00    +0.000 NA
ATOM      4  N   UNL     1      36.754   4.106  14.416  0.00  0.00    +0.000 N 
ATOM      5  C   UNL     1      36.316   5.232  13.823  0.00  0.00    +0.000 A 
ATOM      6  N   UNL     1      35.442   5.515  12.843  0.00  0.00    +0.000 NA
ATOM      7  C   UNL     1      35.192   6.781  12.437  0.00  0.00    +0.000 A 
ATOM      8  C   UNL     1      34.273   7.023  11.412  0.00  0.00    +0.000 A 
ATOM      9  C   UNL     1      34.030   8.321  11.012  0.00  0.00    +0.000 A 
ATOM     10  C   UNL     1      34.695   9.363  11.624  0.00  0.00    +0.000 A 
ATOM     11  C   UNL     1      35.603   9.156  12.634  0.00  0.00    +0.000 A 
ATOM     12  C   UNL     1      35.833   7.844  13.023  0.00  0.00    +0.000 A 
ATOM     13  N   UNL     1      36.727   7.578  14.023  0.00  0.00    +0.000 NA
ATOM     14  C   UNL     1      36.955   6.310  14.405  0.00  0.00    +0.000 A 
ENDROOT
BRANCH   1  16
ATOM     15  N   UNL     1      38.329   6.814  17.573  0.00  0.00    +0.000 NA
ATOM     16  C   UNL     1      38.688   6.585  16.256  0.00  0.00    +0.000 C 
ATOM     17  O   UNL     1      39.778   7.040  15.843  0.00  0.00    +0.000 OA
BRANCH  15  18
ATOM     18  C   UNL     1      39.254   7.619  18.529  0.00  0.00    +0.000 C 
ATOM     19  C   UNL     1      39.539   6.332  19.498  0.00  0.00    +0.000 C 
BRANCH  18  21
ATOM     20  C   UNL     1      38.620   8.419  20.847  0.00  0.00    +0.000 C 
ATOM     21  C   UNL     1      38.094   8.248  19.487  0.00  0.00    +0.000 C 
ENDBRANCH  18  21
ENDBRANCH  15  18
ENDBRANCH   1  16
BRANCH   4  22
ATOM     22  C   UNL     1      36.302   2.748  14.057  0.00  0.00    +0.000 C 
BRANCH  22  23
ATOM     23  C   UNL     1      35.103   2.317  14.836  0.00  0.00    +0.000 C 
BRANCH  23  24
ATOM     24  C   UNL     1      35.511   1.222  15.751  0.00  0.00    +0.000 A 
ATOM     25  C   UNL     1      34.976   1.083  17.018  0.00  0.00    +0.000 A 
ATOM     26  C   UNL     1      35.387   0.049  17.828  0.00  0.00    +0.000 A 
ATOM     27  C   UNL     1      36.329  -0.885  17.440  0.00  0.00    +0.000 A 
ATOM     28  C   UNL     1      36.863  -0.748  16.176  0.00  0.00    +0.000 A 
ATOM     29  C   UNL     1      36.451   0.292  15.357  0.00  0.00    +0.000 A 
BRANCH  27  30
ATOM     30  O   UNL     1      36.682  -1.867  18.285  0.00  0.00    +0.000 OA
ATOM     31  C   UNL     1      37.304  -1.923  19.493  0.00  0.00    +0.000 C 
ENDBRANCH  27  30
ENDBRANCH  23  24
ENDBRANCH  22  23
ENDBRANCH   4  22
TORSDOF 7
ENDMDL
MODEL 6
REMARK VINA RESULT:      -7.0      2.477      5.907
REMARK  Name = 
REMARK  7 active torsions:
REMARK  status: ('A' for Active; 'I' for Inactive)
REMARK    1  A    between atoms: C_2  and  C_3
REMARK    2  A    between atoms: C_3  and  N_5
REMARK    3  A    between atoms: C_6  and  C_8
REMARK    4  A    between atoms: N_11  and  C_12
REMARK    5  A    between atoms: C_12  and  C_13
REMARK    6  A    between atoms: C_13  and  C_14
REMARK    7  A    between atoms: C_17  and  O_18
REMARK                            x       y       z     vdW  Elec       q    Type
REMARK                         _______ _______ _______ _____ _____    ______ ____
ROOT
ATOM      1  C   UNL     1      38.230   2.583  15.040  0.00  0.00    +0.000 A 
ATOM      2  C   UNL     1      39.099   2.209  14.045  0.00  0.00    +0.000 A 
ATOM      3  N   UNL     1      40.070   3.056  13.420  0.00  0.00    +0.000 NA
ATOM      4  N   UNL     1      38.937   0.930  13.708  0.00  0.00    +0.000 N 
ATOM      5  C   UNL     1      37.953   0.436  14.481  0.00  0.00    +0.000 A 
ATOM      6  N   UNL     1      37.349  -0.757  14.608  0.00  0.00    +0.000 NA
ATOM      7  C   UNL     1      36.353  -0.975  15.498  0.00  0.00    +0.000 A 
ATOM      8  C   UNL     1      35.756  -2.236  15.591  0.00  0.00    +0.000 A 
ATOM      9  C   UNL     1      34.742  -2.440  16.504  0.00  0.00    +0.000 A 
ATOM     10  C   UNL     1      34.328  -1.402  17.312  0.00  0.00    +0.000 A 
ATOM     11  C   UNL     1      34.895  -0.152  17.243  0.00  0.00    +0.000 A 
ATOM     12  C   UNL     1      35.913   0.033  16.319  0.00  0.00    +0.000 A 
ATOM     13  N   UNL     1      36.514   1.256  16.206  0.00  0.00    +0.000 NA
ATOM     14  C   UNL     1      37.501   1.443  15.313  0.00  0.00    +0.000 A 
ENDROOT
BRANCH   1  16
ATOM     15  N   UNL     1      39.145   4.388  16.442  0.00  0.00    +0.000 NA
ATOM     16  C   UNL     1      38.115   3.894  15.661  0.00  0.00    +0.000 C 
ATOM     17  O   UNL     1      37.091   4.597  15.503  0.00  0.00    +0.000 OA
BRANCH  15  18
ATOM     18  C   UNL     1      39.045   5.785  17.115  0.00  0.00    +0.000 C 
ATOM     19  C   UNL     1      40.654   6.058  17.018  0.00  0.00    +0.000 C 
BRANCH  18  21
ATOM     20  C   UNL     1      39.705   6.335  19.497  0.00  0.00    +0.000 C 
ATOM     21  C   UNL     1      39.090   5.291  18.668  0.00  0.00    +0.000 C 
ENDBRANCH  18  21
ENDBRANCH  15  18
ENDBRANCH   1  16
BRANCH   4  22
ATOM     22  C   UNL     1      39.662   0.151  12.686  0.00  0.00    +0.000 C 
BRANCH  22  23
ATOM     23  C   UNL     1      40.381  -1.024  13.263  0.00  0.00    +0.000 C 
BRANCH  23  24
ATOM     24  C   UNL     1      41.775  -0.614  13.569  0.00  0.00    +0.000 A 
ATOM     25  C   UNL     1      42.382   0.457  12.941  0.00  0.00    +0.000 A 
ATOM     26  C   UNL     1      43.676   0.797  13.261  0.00  0.00    +0.000 A 
ATOM     27  C   UNL     1      44.427   0.114  14.199  0.00  0.00    +0.000 A 
ATOM     28  C   UNL     1      43.822  -0.955  14.827  0.00  0.00    +0.000 A 
ATOM     29  C   UNL     1      42.517  -1.300  14.507  0.00  0.00    +0.000 A 
BRANCH  27  30
ATOM     30  O   UNL     1      45.685   0.503  14.459  0.00  0.00    +0.000 OA
ATOM     31  C   UNL     1      46.553   0.333  15.492  0.00  0.00    +0.000 C 
ENDBRANCH  27  30
ENDBRANCH  23  24
ENDBRANCH  22  23
ENDBRANCH   4  22
TORSDOF 7
ENDMDL
MODEL 7
REMARK VINA RESULT:      -7.0      2.833      8.025
REMARK  Name = 
REMARK  7 active torsions:
REMARK  status: ('A' for Active; 'I' for Inactive)
REMARK    1  A    between atoms: C_2  and  C_3
REMARK    2  A    between atoms: C_3  and  N_5
REMARK    3  A    between atoms: C_6  and  C_8
REMARK    4  A    between atoms: N_11  and  C_12
REMARK    5  A    between atoms: C_12  and  C_13
REMARK    6  A    between atoms: C_13  and  C_14
REMARK    7  A    between atoms: C_17  and  O_18
REMARK                            x       y       z     vdW  Elec       q    Type
REMARK                         _______ _______ _______ _____ _____    ______ ____
ROOT
ATOM      1  C   UNL     1      38.838   2.598  14.220  0.00  0.00    +0.000 A 
ATOM      2  C   UNL     1      38.970   3.814  14.841  0.00  0.00    +0.000 A 
ATOM      3  N   UNL     1      39.815   4.887  14.410  0.00  0.00    +0.000 NA
ATOM      4  N   UNL     1      38.202   3.895  15.928  0.00  0.00    +0.000 N 
ATOM      5  C   UNL     1      37.547   2.726  16.041  0.00  0.00    +0.000 A 
ATOM      6  N   UNL     1      36.656   2.212  16.906  0.00  0.00    +0.000 NA
ATOM      7  C   UNL     1      36.150   0.964  16.770  0.00  0.00    +0.000 A 
ATOM      8  C   UNL     1      35.225   0.476  17.698  0.00  0.00    +0.000 A 
ATOM      9  C   UNL     1      34.719  -0.798  17.544  0.00  0.00    +0.000 A 
ATOM     10  C   UNL     1      35.129  -1.575  16.480  0.00  0.00    +0.000 A 
ATOM     11  C   UNL     1      36.037  -1.122  15.553  0.00  0.00    +0.000 A 
ATOM     12  C   UNL     1      36.534   0.162  15.725  0.00  0.00    +0.000 A 
ATOM     13  N   UNL     1      37.440   0.665  14.833  0.00  0.00    +0.000 NA
ATOM     14  C   UNL     1      37.926   1.908  14.993  0.00  0.00    +0.000 A 
ENDROOT
BRANCH   1  16
ATOM     15  N   UNL     1      40.448   1.128  13.076  0.00  0.00    +0.000 NA
ATOM     16  C   UNL     1      39.515   2.148  13.012  0.00  0.00    +0.000 C 
ATOM     17  O   UNL     1      39.270   2.670  11.902  0.00  0.00    +0.000 OA
BRANCH  15  18
ATOM     18  C   UNL     1      41.183   0.631  11.800  0.00  0.00    +0.000 C 
ATOM     19  C   UNL     1      41.322  -0.901  12.355  0.00  0.00    +0.000 C 
BRANCH  18  21
ATOM     20  C   UNL     1      43.022   0.471  13.534  0.00  0.00    +0.000 C 
ATOM     21  C   UNL     1      42.696   1.062  12.230  0.00  0.00    +0.000 C 
ENDBRANCH  18  21
ENDBRANCH  15  18
ENDBRANCH   1  16
BRANCH   4  22
ATOM     22  C   UNL     1      38.061   5.022  16.870  0.00  0.00    +0.000 C 
BRANCH  22  23
ATOM     23  C   UNL     1      39.148   5.055  17.893  0.00  0.00    +0.000 C 
BRANCH  23  24
ATOM     24  C   UNL     1      38.966   6.268  18.729  0.00  0.00    +0.000 A 
ATOM     25  C   UNL     1      39.776   6.545  19.813  0.00  0.00    +0.000 A 
ATOM     26  C   UNL     1      39.566   7.684  20.555  0.00  0.00    +0.000 A 
ATOM     27  C   UNL     1      38.564   8.594  20.274  0.00  0.00    +0.000 A 
ATOM     28  C   UNL     1      37.754   8.319  19.193  0.00  0.00    +0.000 A 
ATOM     29  C   UNL     1      37.964   7.172  18.442  0.00  0.00    +0.000 A 
BRANCH  27  30
ATOM     30  O   UNL     1      38.418   9.684  21.044  0.00  0.00    +0.000 OA
ATOM     31  C   UNL     1      38.440  11.027  20.829  0.00  0.00    +0.000 C 
ENDBRANCH  27  30
ENDBRANCH  23  24
ENDBRANCH  22  23
ENDBRANCH   4  22
TORSDOF 7
ENDMDL
MODEL 8
REMARK VINA RESULT:      -7.0      2.756      7.996
REMARK  Name = 
REMARK  7 active torsions:
REMARK  status: ('A' for Active; 'I' for Inactive)
REMARK    1  A    between atoms: C_2  and  C_3
REMARK    2  A    between atoms: C_3  and  N_5
REMARK    3  A    between atoms: C_6  and  C_8
REMARK    4  A    between atoms: N_11  and  C_12
REMARK    5  A    between atoms: C_12  and  C_13
REMARK    6  A    between atoms: C_13  and  C_14
REMARK    7  A    between atoms: C_17  and  O_18
REMARK                            x       y       z     vdW  Elec       q    Type
REMARK                         _______ _______ _______ _____ _____    ______ ____
ROOT
ATOM      1  C   UNL     1      38.860   2.552  14.152  0.00  0.00    +0.000 A 
ATOM      2  C   UNL     1      39.009   3.764  14.779  0.00  0.00    +0.000 A 
ATOM      3  N   UNL     1      39.872   4.825  14.355  0.00  0.00    +0.000 NA
ATOM      4  N   UNL     1      38.241   3.852  15.865  0.00  0.00    +0.000 N 
ATOM      5  C   UNL     1      37.567   2.693  15.971  0.00  0.00    +0.000 A 
ATOM      6  N   UNL     1      36.666   2.189  16.832  0.00  0.00    +0.000 NA
ATOM      7  C   UNL     1      36.141   0.950  16.690  0.00  0.00    +0.000 A 
ATOM      8  C   UNL     1      35.207   0.473  17.614  0.00  0.00    +0.000 A 
ATOM      9  C   UNL     1      34.681  -0.793  17.453  0.00  0.00    +0.000 A 
ATOM     10  C   UNL     1      35.082  -1.571  16.386  0.00  0.00    +0.000 A 
ATOM     11  C   UNL     1      35.998  -1.129  15.463  0.00  0.00    +0.000 A 
ATOM     12  C   UNL     1      36.515   0.146  15.642  0.00  0.00    +0.000 A 
ATOM     13  N   UNL     1      37.431   0.639  14.755  0.00  0.00    +0.000 NA
ATOM     14  C   UNL     1      37.936   1.873  14.921  0.00  0.00    +0.000 A 
ENDROOT
BRANCH   1  16
ATOM     15  N   UNL     1      38.869   2.112  11.730  0.00  0.00    +0.000 NA
ATOM     16  C   UNL     1      39.533   2.097  12.944  0.00  0.00    +0.000 C 
ATOM     17  O   UNL     1      40.714   1.687  12.978  0.00  0.00    +0.000 OA
BRANCH  15  18
ATOM     18  C   UNL     1      39.566   1.631  10.427  0.00  0.00    +0.000 C 
ATOM     19  C   UNL     1      39.772   3.150   9.858  0.00  0.00    +0.000 C 
BRANCH  18  21
ATOM     20  C   UNL     1      37.210   2.360   9.853  0.00  0.00    +0.000 C 
ATOM     21  C   UNL     1      38.224   1.343   9.547  0.00  0.00    +0.000 C 
ENDBRANCH  18  21
ENDBRANCH  15  18
ENDBRANCH   1  16
BRANCH   4  22
ATOM     22  C   UNL     1      38.115   4.977  16.811  0.00  0.00    +0.000 C 
BRANCH  22  23
ATOM     23  C   UNL     1      38.892   4.759  18.068  0.00  0.00    +0.000 C 
BRANCH  23  24
ATOM     24  C   UNL     1      39.034   6.065  18.760  0.00  0.00    +0.000 A 
ATOM     25  C   UNL     1      38.170   7.118  18.532  0.00  0.00    +0.000 A 
ATOM     26  C   UNL     1      38.344   8.308  19.200  0.00  0.00    +0.000 A 
ATOM     27  C   UNL     1      39.361   8.519  20.112  0.00  0.00    +0.000 A 
ATOM     28  C   UNL     1      40.225   7.469  20.342  0.00  0.00    +0.000 A 
ATOM     29  C   UNL     1      40.051   6.268  19.670  0.00  0.00    +0.000 A 
BRANCH  27  30
ATOM     30  O   UNL     1      39.470   9.708  20.726  0.00  0.00    +0.000 OA
ATOM     31  C   UNL     1      38.600  10.682  21.105  0.00  0.00    +0.000 C 
ENDBRANCH  27  30
ENDBRANCH  23  24
ENDBRANCH  22  23
ENDBRANCH   4  22
TORSDOF 7
ENDMDL
MODEL 9
REMARK VINA RESULT:      -6.9      1.550      5.223
REMARK  Name = 
REMARK  7 active torsions:
REMARK  status: ('A' for Active; 'I' for Inactive)
REMARK    1  A    between atoms: C_2  and  C_3
REMARK    2  A    between atoms: C_3  and  N_5
REMARK    3  A    between atoms: C_6  and  C_8
REMARK    4  A    between atoms: N_11  and  C_12
REMARK    5  A    between atoms: C_12  and  C_13
REMARK    6  A    between atoms: C_13  and  C_14
REMARK    7  A    between atoms: C_17  and  O_18
REMARK                            x       y       z     vdW  Elec       q    Type
REMARK                         _______ _______ _______ _____ _____    ______ ____
ROOT
ATOM      1  C   UNL     1      38.062   3.845  14.946  0.00  0.00    +0.000 A 
ATOM      2  C   UNL     1      38.445   3.631  13.646  0.00  0.00    +0.000 A 
ATOM      3  N   UNL     1      39.144   4.564  12.815  0.00  0.00    +0.000 NA
ATOM      4  N   UNL     1      38.086   2.419  13.222  0.00  0.00    +0.000 N 
ATOM      5  C   UNL     1      37.455   1.811  14.243  0.00  0.00    +0.000 A 
ATOM      6  N   UNL     1      36.876   0.612  14.428  0.00  0.00    +0.000 NA
ATOM      7  C   UNL     1      36.297   0.259  15.598  0.00  0.00    +0.000 A 
ATOM      8  C   UNL     1      35.708  -1.001  15.739  0.00  0.00    +0.000 A 
ATOM      9  C   UNL     1      35.123  -1.345  16.940  0.00  0.00    +0.000 A 
ATOM     10  C   UNL     1      35.124  -0.445  17.986  0.00  0.00    +0.000 A 
ATOM     11  C   UNL     1      35.695   0.800  17.877  0.00  0.00    +0.000 A 
ATOM     12  C   UNL     1      36.279   1.127  16.661  0.00  0.00    +0.000 A 
ATOM     13  N   UNL     1      36.862   2.352  16.495  0.00  0.00    +0.000 NA
ATOM     14  C   UNL     1      37.429   2.676  15.321  0.00  0.00    +0.000 A 
ENDROOT
BRANCH   1  16
ATOM     15  N   UNL     1      39.400   5.148  16.551  0.00  0.00    +0.000 NA
ATOM     16  C   UNL     1      38.281   5.043  15.743  0.00  0.00    +0.000 C 
ATOM     17  O   UNL     1      37.470   5.996  15.714  0.00  0.00    +0.000 OA
BRANCH  15  18
ATOM     18  C   UNL     1      39.655   6.418  17.409  0.00  0.00    +0.000 C 
ATOM     19  C   UNL     1      41.277   6.205  17.422  0.00  0.00    +0.000 C 
BRANCH  18  21
ATOM     20  C   UNL     1      40.308   6.394  19.856  0.00  0.00    +0.000 C 
ATOM     21  C   UNL     1      39.425   5.746  18.877  0.00  0.00    +0.000 C 
ENDBRANCH  18  21
ENDBRANCH  15  18
ENDBRANCH   1  16
BRANCH   4  22
ATOM     22  C   UNL     1      38.302   1.809  11.897  0.00  0.00    +0.000 C 
BRANCH  22  23
ATOM     23  C   UNL     1      39.676   1.244  11.742  0.00  0.00    +0.000 C 
BRANCH  23  24
ATOM     24  C   UNL     1      39.822   0.108  12.686  0.00  0.00    +0.000 A 
ATOM     25  C   UNL     1      40.623   0.181  13.809  0.00  0.00    +0.000 A 
ATOM     26  C   UNL     1      40.725  -0.900  14.653  0.00  0.00    +0.000 A 
ATOM     27  C   UNL     1      40.054  -2.090  14.440  0.00  0.00    +0.000 A 
ATOM     28  C   UNL     1      39.254  -2.165  13.319  0.00  0.00    +0.000 A 
ATOM     29  C   UNL     1      39.149  -1.076  12.466  0.00  0.00    +0.000 A 
BRANCH  27  30
ATOM     30  O   UNL     1      40.201  -3.104  15.307  0.00  0.00    +0.000 OA
ATOM     31  C   UNL     1      39.527  -3.541  16.403  0.00  0.00    +0.000 C 
ENDBRANCH  27  30
ENDBRANCH  23  24
ENDBRANCH  22  23
ENDBRANCH   4  22
TORSDOF 7
ENDMDL
MODEL 10
REMARK VINA RESULT:      -6.9      3.553      5.974
REMARK  Name = 
REMARK  7 active torsions:
REMARK  status: ('A' for Active; 'I' for Inactive)
REMARK    1  A    between atoms: C_2  and  C_3
REMARK    2  A    between atoms: C_3  and  N_5
REMARK    3  A    between atoms: C_6  and  C_8
REMARK    4  A    between atoms: N_11  and  C_12
REMARK    5  A    between atoms: C_12  and  C_13
REMARK    6  A    between atoms: C_13  and  C_14
REMARK    7  A    between atoms: C_17  and  O_18
REMARK                            x       y       z     vdW  Elec       q    Type
REMARK                         _______ _______ _______ _____ _____    ______ ____
ROOT
ATOM      1  C   UNL     1      37.846   2.729  14.955  0.00  0.00    +0.000 A 
ATOM      2  C   UNL     1      37.484   3.190  13.714  0.00  0.00    +0.000 A 
ATOM      3  N   UNL     1      37.124   2.377  12.592  0.00  0.00    +0.000 NA
ATOM      4  N   UNL     1      37.505   4.522  13.660  0.00  0.00    +0.000 N 
ATOM      5  C   UNL     1      37.883   4.963  14.874  0.00  0.00    +0.000 A 
ATOM      6  N   UNL     1      38.086   6.170  15.428  0.00  0.00    +0.000 NA
ATOM      7  C   UNL     1      38.479   6.321  16.714  0.00  0.00    +0.000 A 
ATOM      8  C   UNL     1      38.677   7.599  17.243  0.00  0.00    +0.000 A 
ATOM      9  C   UNL     1      39.078   7.734  18.557  0.00  0.00    +0.000 A 
ATOM     10  C   UNL     1      39.280   6.610  19.331  0.00  0.00    +0.000 A 
ATOM     11  C   UNL     1      39.095   5.341  18.838  0.00  0.00    +0.000 A 
ATOM     12  C   UNL     1      38.690   5.227  17.515  0.00  0.00    +0.000 A 
ATOM     13  N   UNL     1      38.491   3.989  16.971  0.00  0.00    +0.000 NA
ATOM     14  C   UNL     1      38.099   3.869  15.691  0.00  0.00    +0.000 A 
ENDROOT
BRANCH   1  16
ATOM     15  N   UNL     1      36.915   0.773  16.124  0.00  0.00    +0.000 NA
ATOM     16  C   UNL     1      37.938   1.342  15.386  0.00  0.00    +0.000 C 
ATOM     17  O   UNL     1      38.935   0.641  15.103  0.00  0.00    +0.000 OA
BRANCH  15  18
ATOM     18  C   UNL     1      36.990  -0.706  16.596  0.00  0.00    +0.000 C 
ATOM     19  C   UNL     1      36.047  -1.248  15.374  0.00  0.00    +0.000 C 
BRANCH  18  21
ATOM     20  C   UNL     1      36.125   0.276  18.764  0.00  0.00    +0.000 C 
ATOM     21  C   UNL     1      35.777  -0.657  17.684  0.00  0.00    +0.000 C 
ENDBRANCH  18  21
ENDBRANCH  15  18
ENDBRANCH   1  16
BRANCH   4  22
ATOM     22  C   UNL     1      37.191   5.399  12.517  0.00  0.00    +0.000 C 
BRANCH  22  23
ATOM     23  C   UNL     1      35.722   5.565  12.307  0.00  0.00    +0.000 C 
BRANCH  23  24
ATOM     24  C   UNL     1      35.268   6.737  13.096  0.00  0.00    +0.000 A 
ATOM     25  C   UNL     1      35.961   7.932  13.108  0.00  0.00    +0.000 A 
ATOM     26  C   UNL     1      35.497   8.990  13.856  0.00  0.00    +0.000 A 
ATOM     27  C   UNL     1      34.346   8.927  14.619  0.00  0.00    +0.000 A 
ATOM     28  C   UNL     1      33.653   7.735  14.609  0.00  0.00    +0.000 A 
ATOM     29  C   UNL     1      34.118   6.667  13.855  0.00  0.00    +0.000 A 
BRANCH  27  30
ATOM     30  O   UNL     1      33.955   9.999  15.325  0.00  0.00    +0.000 OA
ATOM     31  C   UNL     1      33.925  11.341  15.105  0.00  0.00    +0.000 C 
ENDBRANCH  27  30
ENDBRANCH  23  24
ENDBRANCH  22  23
ENDBRANCH   4  22
TORSDOF 7
ENDMDL
