MODEL 1
REMARK VINA RESULT:      -6.3      0.000      0.000
REMARK  Name = 
REMARK  3 active torsions:
REMARK  status: ('A' for Active; 'I' for Inactive)
REMARK    1  A    between atoms: C_6  and  C_7
REMARK    2  A    between atoms: N_9  and  C_10
REMARK    3  A    between atoms: C_16  and  C_17
REMARK                            x       y       z     vdW  Elec       q    Type
REMARK                         _______ _______ _______ _____ _____    ______ ____
ROOT
ATOM      1  C   UNL     1      21.561  -6.570  24.874  0.00  0.00    +0.000 C 
ATOM      2  O   UNL     1      21.726  -5.607  24.073  0.00  0.00    +0.000 OA
ATOM      3  N   UNL     1      22.499  -7.491  24.874  0.00  0.00    +0.000 NA
ENDROOT
BRANCH   1   9
ATOM      4  C   UNL     1      18.108  -8.867  27.659  0.00  0.00    +0.000 C 
ATOM      5  C   UNL     1      18.647  -7.609  27.070  0.00  0.00    +0.000 A 
ATOM      6  C   UNL     1      18.048  -6.400  27.276  0.00  0.00    +0.000 A 
ATOM      7  C   UNL     1      18.581  -5.271  26.712  0.00  0.00    +0.000 A 
ATOM      8  C   UNL     1      19.736  -5.348  25.926  0.00  0.00    +0.000 A 
ATOM      9  C   UNL     1      20.342  -6.553  25.715  0.00  0.00    +0.000 A 
ATOM     10  C   UNL     1      19.788  -7.662  26.289  0.00  0.00    +0.000 A 
ENDBRANCH   1   9
BRANCH   3  11
ATOM     11  C   UNL     1      23.665  -8.055  24.461  0.00  0.00    +0.000 A 
ATOM     12  S   UNL     1      24.796  -7.054  23.519  0.00  0.00    +0.000 S 
ATOM     13  C   UNL     1      26.009  -8.169  23.273  0.00  0.00    +0.000 A 
ATOM     14  C   UNL     1      27.307  -8.010  22.538  0.00  0.00    +0.000 C 
ATOM     15  C   UNL     1      25.555  -9.281  23.901  0.00  0.00    +0.000 A 
ATOM     16  C   UNL     1      26.443 -10.538  23.877  0.00  0.00    +0.000 C 
ATOM     17  C   UNL     1      24.353  -9.233  24.513  0.00  0.00    +0.000 A 
BRANCH  17  18
ATOM     18  C   UNL     1      23.803 -10.422  25.219  0.00  0.00    +0.000 C 
ATOM     19  N   UNL     1      22.950 -11.324  24.475  0.00  0.00    +0.000 NA
ATOM     20  O   UNL     1      23.977 -10.748  26.377  0.00  0.00    +0.000 OA
ENDBRANCH  17  18
ENDBRANCH   3  11
TORSDOF 3
ENDMDL
MODEL 2
REMARK VINA RESULT:      -6.3     32.548     34.545
REMARK  Name = 
REMARK  3 active torsions:
REMARK  status: ('A' for Active; 'I' for Inactive)
REMARK    1  A    between atoms: C_6  and  C_7
REMARK    2  A    between atoms: N_9  and  C_10
REMARK    3  A    between atoms: C_16  and  C_17
REMARK                            x       y       z     vdW  Elec       q    Type
REMARK                         _______ _______ _______ _____ _____    ______ ____
ROOT
ATOM      1  C   UNL     1      29.460  25.511  21.314  0.00  0.00    +0.000 C 
ATOM      2  O   UNL     1      29.712  24.514  20.580  0.00  0.00    +0.000 OA
ATOM      3  N   UNL     1      29.178  25.249  22.571  0.00  0.00    +0.000 NA
ENDROOT
BRANCH   1   9
ATOM      4  C   UNL     1      30.506  28.522  17.467  0.00  0.00    +0.000 C 
ATOM      5  C   UNL     1      29.995  28.352  18.857  0.00  0.00    +0.000 A 
ATOM      6  C   UNL     1      29.556  29.408  19.600  0.00  0.00    +0.000 A 
ATOM      7  C   UNL     1      29.096  29.202  20.873  0.00  0.00    +0.000 A 
ATOM      8  C   UNL     1      29.072  27.913  21.418  0.00  0.00    +0.000 A 
ATOM      9  C   UNL     1      29.510  26.850  20.681  0.00  0.00    +0.000 A 
ATOM     10  C   UNL     1      29.963  27.086  19.416  0.00  0.00    +0.000 A 
ENDBRANCH   1   9
BRANCH   3  11
ATOM     11  C   UNL     1      28.983  24.433  23.640  0.00  0.00    +0.000 A 
ATOM     12  S   UNL     1      30.413  23.869  24.539  0.00  0.00    +0.000 S 
ATOM     13  C   UNL     1      29.658  22.942  25.698  0.00  0.00    +0.000 A 
ATOM     14  C   UNL     1      30.265  22.149  26.819  0.00  0.00    +0.000 C 
ATOM     15  C   UNL     1      28.342  23.064  25.403  0.00  0.00    +0.000 A 
ATOM     16  C   UNL     1      27.328  22.322  26.291  0.00  0.00    +0.000 C 
ATOM     17  C   UNL     1      27.985  23.828  24.347  0.00  0.00    +0.000 A 
BRANCH  17  18
ATOM     18  C   UNL     1      26.555  24.000  23.974  0.00  0.00    +0.000 C 
ATOM     19  N   UNL     1      25.991  23.098  22.993  0.00  0.00    +0.000 NA
ATOM     20  O   UNL     1      25.769  24.827  24.394  0.00  0.00    +0.000 OA
ENDBRANCH  17  18
ENDBRANCH   3  11
TORSDOF 3
ENDMDL
MODEL 3
REMARK VINA RESULT:      -6.2     13.345     14.702
REMARK  Name = 
REMARK  3 active torsions:
REMARK  status: ('A' for Active; 'I' for Inactive)
REMARK    1  A    between atoms: C_6  and  C_7
REMARK    2  A    between atoms: N_9  and  C_10
REMARK    3  A    between atoms: C_16  and  C_17
REMARK                            x       y       z     vdW  Elec       q    Type
REMARK                         _______ _______ _______ _____ _____    ______ ____
ROOT
ATOM      1  C   UNL     1      33.479  -3.811  33.687  0.00  0.00    +0.000 C 
ATOM      2  O   UNL     1      33.376  -4.616  34.655  0.00  0.00    +0.000 OA
ATOM      3  N   UNL     1      33.766  -4.341  32.519  0.00  0.00    +0.000 NA
ENDROOT
BRANCH   1   9
ATOM      4  C   UNL     1      34.198   1.028  32.674  0.00  0.00    +0.000 C 
ATOM      5  C   UNL     1      33.581  -0.021  33.533  0.00  0.00    +0.000 A 
ATOM      6  C   UNL     1      32.803   0.291  34.610  0.00  0.00    +0.000 A 
ATOM      7  C   UNL     1      32.258  -0.708  35.370  0.00  0.00    +0.000 A 
ATOM      8  C   UNL     1      32.492  -2.050  35.051  0.00  0.00    +0.000 A 
ATOM      9  C   UNL     1      33.268  -2.373  33.975  0.00  0.00    +0.000 A 
ATOM     10  C   UNL     1      33.799  -1.355  33.236  0.00  0.00    +0.000 A 
ENDBRANCH   1   9
BRANCH   3  11
ATOM     11  C   UNL     1      34.042  -5.368  31.673  0.00  0.00    +0.000 A 
ATOM     12  S   UNL     1      33.302  -5.347  30.053  0.00  0.00    +0.000 S 
ATOM     13  C   UNL     1      33.933  -6.763  29.446  0.00  0.00    +0.000 A 
ATOM     14  C   UNL     1      33.728  -7.389  28.098  0.00  0.00    +0.000 C 
ATOM     15  C   UNL     1      34.693  -7.239  30.461  0.00  0.00    +0.000 A 
ATOM     16  C   UNL     1      35.444  -8.564  30.244  0.00  0.00    +0.000 C 
ATOM     17  C   UNL     1      34.755  -6.530  31.609  0.00  0.00    +0.000 A 
BRANCH  17  18
ATOM     18  C   UNL     1      35.574  -7.002  32.759  0.00  0.00    +0.000 C 
ATOM     19  N   UNL     1      34.934  -7.825  33.762  0.00  0.00    +0.000 NA
ATOM     20  O   UNL     1      36.749  -6.780  32.978  0.00  0.00    +0.000 OA
ENDBRANCH  17  18
ENDBRANCH   3  11
TORSDOF 3
ENDMDL
MODEL 4
REMARK VINA RESULT:      -6.2     21.905     23.638
REMARK  Name = 
REMARK  3 active torsions:
REMARK  status: ('A' for Active; 'I' for Inactive)
REMARK    1  A    between atoms: C_6  and  C_7
REMARK    2  A    between atoms: N_9  and  C_10
REMARK    3  A    between atoms: C_16  and  C_17
REMARK                            x       y       z     vdW  Elec       q    Type
REMARK                         _______ _______ _______ _____ _____    ______ ____
ROOT
ATOM      1  C   UNL     1      18.218  10.485  37.923  0.00  0.00    +0.000 C 
ATOM      2  O   UNL     1      18.267   9.337  38.447  0.00  0.00    +0.000 OA
ATOM      3  N   UNL     1      19.375  11.058  37.672  0.00  0.00    +0.000 NA
ENDROOT
BRANCH   1   9
ATOM      4  C   UNL     1      13.313  10.792  38.816  0.00  0.00    +0.000 C 
ATOM      5  C   UNL     1      14.503  11.243  38.041  0.00  0.00    +0.000 A 
ATOM      6  C   UNL     1      14.411  12.188  37.061  0.00  0.00    +0.000 A 
ATOM      7  C   UNL     1      15.534  12.570  36.375  0.00  0.00    +0.000 A 
ATOM      8  C   UNL     1      16.776  11.999  36.673  0.00  0.00    +0.000 A 
ATOM      9  C   UNL     1      16.877  11.053  37.653  0.00  0.00    +0.000 A 
ATOM     10  C   UNL     1      15.741  10.691  38.319  0.00  0.00    +0.000 A 
ENDBRANCH   1   9
BRANCH   3  11
ATOM     11  C   UNL     1      20.732  11.124  37.652  0.00  0.00    +0.000 A 
ATOM     12  S   UNL     1      21.622   9.898  36.717  0.00  0.00    +0.000 S 
ATOM     13  C   UNL     1      23.180  10.407  37.010  0.00  0.00    +0.000 A 
ATOM     14  C   UNL     1      24.474   9.825  36.522  0.00  0.00    +0.000 C 
ATOM     15  C   UNL     1      23.020  11.492  37.806  0.00  0.00    +0.000 A 
ATOM     16  C   UNL     1      24.282  12.234  38.280  0.00  0.00    +0.000 C 
ATOM     17  C   UNL     1      21.767  11.868  38.141  0.00  0.00    +0.000 A 
BRANCH  17  18
ATOM     18  C   UNL     1      21.528  13.052  39.012  0.00  0.00    +0.000 C 
ATOM     19  N   UNL     1      21.372  12.834  40.433  0.00  0.00    +0.000 NA
ATOM     20  O   UNL     1      21.442  14.217  38.678  0.00  0.00    +0.000 OA
ENDBRANCH  17  18
ENDBRANCH   3  11
TORSDOF 3
ENDMDL
MODEL 5
REMARK VINA RESULT:      -6.1     22.620     23.947
REMARK  Name = 
REMARK  3 active torsions:
REMARK  status: ('A' for Active; 'I' for Inactive)
REMARK    1  A    between atoms: C_6  and  C_7
REMARK    2  A    between atoms: N_9  and  C_10
REMARK    3  A    between atoms: C_16  and  C_17
REMARK                            x       y       z     vdW  Elec       q    Type
REMARK                         _______ _______ _______ _____ _____    ______ ____
ROOT
ATOM      1  C   UNL     1      16.557  10.963  37.554  0.00  0.00    +0.000 C 
ATOM      2  O   UNL     1      17.524  11.154  36.765  0.00  0.00    +0.000 OA
ATOM      3  N   UNL     1      16.821  10.267  38.638  0.00  0.00    +0.000 NA
ENDROOT
BRANCH   1   9
ATOM      4  C   UNL     1      13.706  13.900  34.690  0.00  0.00    +0.000 C 
ATOM      5  C   UNL     1      13.819  12.937  35.823  0.00  0.00    +0.000 A 
ATOM      6  C   UNL     1      12.733  12.547  36.551  0.00  0.00    +0.000 A 
ATOM      7  C   UNL     1      12.888  11.661  37.583  0.00  0.00    +0.000 A 
ATOM      8  C   UNL     1      14.153  11.151  37.897  0.00  0.00    +0.000 A 
ATOM      9  C   UNL     1      15.245  11.536  37.174  0.00  0.00    +0.000 A 
ATOM     10  C   UNL     1      15.061  12.421  36.151  0.00  0.00    +0.000 A 
ENDBRANCH   1   9
BRANCH   3  11
ATOM     11  C   UNL     1      17.626   9.565  39.479  0.00  0.00    +0.000 A 
ATOM     12  S   UNL     1      19.281   9.188  38.942  0.00  0.00    +0.000 S 
ATOM     13  C   UNL     1      19.820   8.354  40.279  0.00  0.00    +0.000 A 
ATOM     14  C   UNL     1      21.160   7.727  40.527  0.00  0.00    +0.000 C 
ATOM     15  C   UNL     1      18.755   8.367  41.117  0.00  0.00    +0.000 A 
ATOM     16  C   UNL     1      18.900   7.671  42.482  0.00  0.00    +0.000 C 
ATOM     17  C   UNL     1      17.624   8.986  40.715  0.00  0.00    +0.000 A 
BRANCH  17  18
ATOM     18  C   UNL     1      16.422   9.033  41.592  0.00  0.00    +0.000 C 
ATOM     19  N   UNL     1      15.417   8.005  41.430  0.00  0.00    +0.000 NA
ATOM     20  O   UNL     1      16.160   9.847  42.455  0.00  0.00    +0.000 OA
ENDBRANCH  17  18
ENDBRANCH   3  11
TORSDOF 3
ENDMDL
MODEL 6
REMARK VINA RESULT:      -6.1      5.414      8.925
REMARK  Name = 
REMARK  3 active torsions:
REMARK  status: ('A' for Active; 'I' for Inactive)
REMARK    1  A    between atoms: C_6  and  C_7
REMARK    2  A    between atoms: N_9  and  C_10
REMARK    3  A    between atoms: C_16  and  C_17
REMARK                            x       y       z     vdW  Elec       q    Type
REMARK                         _______ _______ _______ _____ _____    ______ ____
ROOT
ATOM      1  C   UNL     1      17.420  -8.458  27.302  0.00  0.00    +0.000 C 
ATOM      2  O   UNL     1      17.673  -8.955  28.436  0.00  0.00    +0.000 OA
ATOM      3  N   UNL     1      16.391  -8.967  26.662  0.00  0.00    +0.000 NA
ENDROOT
BRANCH   1   9
ATOM      4  C   UNL     1      21.561  -6.824  25.035  0.00  0.00    +0.000 C 
ATOM      5  C   UNL     1      20.285  -6.521  25.742  0.00  0.00    +0.000 A 
ATOM      6  C   UNL     1      19.876  -5.240  25.979  0.00  0.00    +0.000 A 
ATOM      7  C   UNL     1      18.695  -5.012  26.632  0.00  0.00    +0.000 A 
ATOM      8  C   UNL     1      17.902  -6.082  27.060  0.00  0.00    +0.000 A 
ATOM      9  C   UNL     1      18.303  -7.367  26.826  0.00  0.00    +0.000 A 
ATOM     10  C   UNL     1      19.485  -7.564  26.173  0.00  0.00    +0.000 A 
ENDBRANCH   1   9
BRANCH   3  11
ATOM     11  C   UNL     1      15.337  -9.811  26.510  0.00  0.00    +0.000 A 
ATOM     12  S   UNL     1      15.405 -11.398  27.315  0.00  0.00    +0.000 S 
ATOM     13  C   UNL     1      13.935 -12.013  26.831  0.00  0.00    +0.000 A 
ATOM     14  C   UNL     1      13.316 -13.343  27.146  0.00  0.00    +0.000 C 
ATOM     15  C   UNL     1      13.406 -11.024  26.071  0.00  0.00    +0.000 A 
ATOM     16  C   UNL     1      12.019 -11.255  25.446  0.00  0.00    +0.000 C 
ATOM     17  C   UNL     1      14.118  -9.890  25.900  0.00  0.00    +0.000 A 
BRANCH  17  18
ATOM     18  C   UNL     1      13.589  -8.769  25.076  0.00  0.00    +0.000 C 
ATOM     19  N   UNL     1      12.583  -7.908  25.659  0.00  0.00    +0.000 NA
ATOM     20  O   UNL     1      13.897  -8.469  23.939  0.00  0.00    +0.000 OA
ENDBRANCH  17  18
ENDBRANCH   3  11
TORSDOF 3
ENDMDL
MODEL 7
REMARK VINA RESULT:      -6.1      2.582      2.800
REMARK  Name = 
REMARK  3 active torsions:
REMARK  status: ('A' for Active; 'I' for Inactive)
REMARK    1  A    between atoms: C_6  and  C_7
REMARK    2  A    between atoms: N_9  and  C_10
REMARK    3  A    between atoms: C_16  and  C_17
REMARK                            x       y       z     vdW  Elec       q    Type
REMARK                         _______ _______ _______ _____ _____    ______ ____
ROOT
ATOM      1  C   UNL     1      21.698  -7.180  24.973  0.00  0.00    +0.000 C 
ATOM      2  O   UNL     1      22.755  -6.647  25.414  0.00  0.00    +0.000 OA
ATOM      3  N   UNL     1      21.819  -7.879  23.866  0.00  0.00    +0.000 NA
ENDROOT
BRANCH   1   9
ATOM      4  C   UNL     1      17.968  -8.820  27.864  0.00  0.00    +0.000 C 
ATOM      5  C   UNL     1      18.628  -7.696  27.142  0.00  0.00    +0.000 A 
ATOM      6  C   UNL     1      18.121  -6.429  27.159  0.00  0.00    +0.000 A 
ATOM      7  C   UNL     1      18.764  -5.429  26.479  0.00  0.00    +0.000 A 
ATOM      8  C   UNL     1      19.938  -5.696  25.767  0.00  0.00    +0.000 A 
ATOM      9  C   UNL     1      20.453  -6.960  25.745  0.00  0.00    +0.000 A 
ATOM     10  C   UNL     1      19.791  -7.938  26.431  0.00  0.00    +0.000 A 
ENDBRANCH   1   9
BRANCH   3  11
ATOM     11  C   UNL     1      22.505  -8.409  22.819  0.00  0.00    +0.000 A 
ATOM     12  S   UNL     1      21.578  -8.993  21.415  0.00  0.00    +0.000 S 
ATOM     13  C   UNL     1      22.835  -9.521  20.458  0.00  0.00    +0.000 A 
ATOM     14  C   UNL     1      22.788 -10.146  19.095  0.00  0.00    +0.000 C 
ATOM     15  C   UNL     1      23.938  -9.254  21.199  0.00  0.00    +0.000 A 
ATOM     16  C   UNL     1      25.311  -9.620  20.609  0.00  0.00    +0.000 C 
ATOM     17  C   UNL     1      23.779  -8.684  22.412  0.00  0.00    +0.000 A 
BRANCH  17  18
ATOM     18  C   UNL     1      24.952  -8.367  23.271  0.00  0.00    +0.000 C 
ATOM     19  N   UNL     1      25.422  -9.382  24.189  0.00  0.00    +0.000 NA
ATOM     20  O   UNL     1      25.591  -7.334  23.309  0.00  0.00    +0.000 OA
ENDBRANCH  17  18
ENDBRANCH   3  11
TORSDOF 3
ENDMDL
MODEL 8
REMARK VINA RESULT:      -6.0     22.587     23.515
REMARK  Name = 
REMARK  3 active torsions:
REMARK  status: ('A' for Active; 'I' for Inactive)
REMARK    1  A    between atoms: C_6  and  C_7
REMARK    2  A    between atoms: N_9  and  C_10
REMARK    3  A    between atoms: C_16  and  C_17
REMARK                            x       y       z     vdW  Elec       q    Type
REMARK                         _______ _______ _______ _____ _____    ______ ____
ROOT
ATOM      1  C   UNL     1      16.655  11.321  37.329  0.00  0.00    +0.000 C 
ATOM      2  O   UNL     1      17.503  11.850  36.556  0.00  0.00    +0.000 OA
ATOM      3  N   UNL     1      17.135  10.520  38.254  0.00  0.00    +0.000 NA
ENDROOT
BRANCH   1   9
ATOM      4  C   UNL     1      11.789  10.686  38.265  0.00  0.00    +0.000 C 
ATOM      5  C   UNL     1      12.867  11.395  37.520  0.00  0.00    +0.000 A 
ATOM      6  C   UNL     1      12.592  12.375  36.611  0.00  0.00    +0.000 A 
ATOM      7  C   UNL     1      13.617  12.998  35.950  0.00  0.00    +0.000 A 
ATOM      8  C   UNL     1      14.945  12.638  36.200  0.00  0.00    +0.000 A 
ATOM      9  C   UNL     1      15.229  11.658  37.108  0.00  0.00    +0.000 A 
ATOM     10  C   UNL     1      14.188  11.054  37.751  0.00  0.00    +0.000 A 
ENDBRANCH   1   9
BRANCH   3  11
ATOM     11  C   UNL     1      18.125   9.871  38.922  0.00  0.00    +0.000 A 
ATOM     12  S   UNL     1      17.694   8.957  40.388  0.00  0.00    +0.000 S 
ATOM     13  C   UNL     1      19.200   8.379  40.803  0.00  0.00    +0.000 A 
ATOM     14  C   UNL     1      19.594   7.512  41.961  0.00  0.00    +0.000 C 
ATOM     15  C   UNL     1      20.012   8.875  39.839  0.00  0.00    +0.000 A 
ATOM     16  C   UNL     1      21.511   8.533  39.908  0.00  0.00    +0.000 C 
ATOM     17  C   UNL     1      19.470   9.643  38.869  0.00  0.00    +0.000 A 
BRANCH  17  18
ATOM     18  C   UNL     1      20.312  10.216  37.783  0.00  0.00    +0.000 C 
ATOM     19  N   UNL     1      20.928  11.506  38.005  0.00  0.00    +0.000 NA
ATOM     20  O   UNL     1      20.559   9.731  36.697  0.00  0.00    +0.000 OA
ENDBRANCH  17  18
ENDBRANCH   3  11
TORSDOF 3
ENDMDL
MODEL 9
REMARK VINA RESULT:      -6.0     14.893     16.794
REMARK  Name = 
REMARK  3 active torsions:
REMARK  status: ('A' for Active; 'I' for Inactive)
REMARK    1  A    between atoms: C_6  and  C_7
REMARK    2  A    between atoms: N_9  and  C_10
REMARK    3  A    between atoms: C_16  and  C_17
REMARK                            x       y       z     vdW  Elec       q    Type
REMARK                         _______ _______ _______ _____ _____    ______ ____
ROOT
ATOM      1  C   UNL     1      33.574  -3.966  33.613  0.00  0.00    +0.000 C 
ATOM      2  O   UNL     1      32.383  -4.097  34.014  0.00  0.00    +0.000 OA
ATOM      3  N   UNL     1      34.283  -3.026  34.199  0.00  0.00    +0.000 NA
ENDROOT
BRANCH   1   9
ATOM      4  C   UNL     1      33.296  -5.776  28.965  0.00  0.00    +0.000 C 
ATOM      5  C   UNL     1      33.945  -5.788  30.307  0.00  0.00    +0.000 A 
ATOM      6  C   UNL     1      34.979  -6.629  30.602  0.00  0.00    +0.000 A 
ATOM      7  C   UNL     1      35.543  -6.603  31.849  0.00  0.00    +0.000 A 
ATOM      8  C   UNL     1      35.067  -5.721  32.825  0.00  0.00    +0.000 A 
ATOM      9  C   UNL     1      34.033  -4.876  32.539  0.00  0.00    +0.000 A 
ATOM     10  C   UNL     1      33.490  -4.924  31.287  0.00  0.00    +0.000 A 
ENDBRANCH   1   9
BRANCH   3  11
ATOM     11  C   UNL     1      34.485  -2.012  35.081  0.00  0.00    +0.000 A 
ATOM     12  S   UNL     1      35.956  -2.049  36.083  0.00  0.00    +0.000 S 
ATOM     13  C   UNL     1      35.730  -0.645  36.951  0.00  0.00    +0.000 A 
ATOM     14  C   UNL     1      36.604  -0.035  38.007  0.00  0.00    +0.000 C 
ATOM     15  C   UNL     1      34.555  -0.161  36.481  0.00  0.00    +0.000 A 
ATOM     16  C   UNL     1      34.028   1.158  37.073  0.00  0.00    +0.000 C 
ATOM     17  C   UNL     1      33.908  -0.856  35.521  0.00  0.00    +0.000 A 
BRANCH  17  18
ATOM     18  C   UNL     1      32.614  -0.374  34.965  0.00  0.00    +0.000 C 
ATOM     19  N   UNL     1      32.649   0.519  33.827  0.00  0.00    +0.000 NA
ATOM     20  O   UNL     1      31.493  -0.636  35.353  0.00  0.00    +0.000 OA
ENDBRANCH  17  18
ENDBRANCH   3  11
TORSDOF 3
ENDMDL
MODEL 10
REMARK VINA RESULT:      -6.0     21.360     22.279
REMARK  Name = 
REMARK  3 active torsions:
REMARK  status: ('A' for Active; 'I' for Inactive)
REMARK    1  A    between atoms: C_6  and  C_7
REMARK    2  A    between atoms: N_9  and  C_10
REMARK    3  A    between atoms: C_16  and  C_17
REMARK                            x       y       z     vdW  Elec       q    Type
REMARK                         _______ _______ _______ _____ _____    ______ ____
ROOT
ATOM      1  C   UNL     1      18.125  10.073  36.844  0.00  0.00    +0.000 C 
ATOM      2  O   UNL     1      17.512   9.580  37.833  0.00  0.00    +0.000 OA
ATOM      3  N   UNL     1      19.437  10.081  36.920  0.00  0.00    +0.000 NA
ENDROOT
BRANCH   1   9
ATOM      4  C   UNL     1      14.438  12.911  35.026  0.00  0.00    +0.000 C 
ATOM      5  C   UNL     1      15.536  11.932  34.787  0.00  0.00    +0.000 A 
ATOM      6  C   UNL     1      15.830  11.466  33.539  0.00  0.00    +0.000 A 
ATOM      7  C   UNL     1      16.848  10.567  33.369  0.00  0.00    +0.000 A 
ATOM      8  C   UNL     1      17.590  10.121  34.468  0.00  0.00    +0.000 A 
ATOM      9  C   UNL     1      17.303  10.582  35.721  0.00  0.00    +0.000 A 
ATOM     10  C   UNL     1      16.282  11.478  35.860  0.00  0.00    +0.000 A 
ENDBRANCH   1   9
BRANCH   3  11
ATOM     11  C   UNL     1      20.633   9.836  37.518  0.00  0.00    +0.000 A 
ATOM     12  S   UNL     1      22.100   9.866  36.509  0.00  0.00    +0.000 S 
ATOM     13  C   UNL     1      23.239   9.518  37.673  0.00  0.00    +0.000 A 
ATOM     14  C   UNL     1      24.726   9.382  37.532  0.00  0.00    +0.000 C 
ATOM     15  C   UNL     1      22.510   9.383  38.808  0.00  0.00    +0.000 A 
ATOM     16  C   UNL     1      23.256   9.054  40.113  0.00  0.00    +0.000 C 
ATOM     17  C   UNL     1      21.171   9.544  38.738  0.00  0.00    +0.000 A 
BRANCH  17  18
ATOM     18  C   UNL     1      20.318   9.409  39.950  0.00  0.00    +0.000 C 
ATOM     19  N   UNL     1      19.725   8.118  40.228  0.00  0.00    +0.000 NA
ATOM     20  O   UNL     1      20.040  10.266  40.766  0.00  0.00    +0.000 OA
ENDBRANCH  17  18
ENDBRANCH   3  11
TORSDOF 3
ENDMDL
