MODEL 1
REMARK VINA RESULT:      -7.3      0.000      0.000
REMARK  Name = 
REMARK  7 active torsions:
REMARK  status: ('A' for Active; 'I' for Inactive)
REMARK    1  A    between atoms: C_2  and  C_27
REMARK    2  A    between atoms: N_3  and  N_4
REMARK    3  A    between atoms: C_5  and  C_7
REMARK    4  A    between atoms: C_10  and  C_11
REMARK    5  A    between atoms: C_11  and  N_12
REMARK    6  A    between atoms: C_15  and  C_16
REMARK    7  A    between atoms: C_16  and  C_17
REMARK                            x       y       z     vdW  Elec       q    Type
REMARK                         _______ _______ _______ _____ _____    ______ ____
ROOT
ATOM      1  C   UNL     1      35.304   6.532  11.452  0.00  0.00    +0.000 A 
ATOM      2  C   UNL     1      34.598   6.765  12.591  0.00  0.00    +0.000 A 
ATOM      3  C   UNL     1      34.902   6.036  13.745  0.00  0.00    +0.000 A 
ATOM      4  C   UNL     1      35.893   5.088  13.773  0.00  0.00    +0.000 A 
ATOM      5  C   UNL     1      36.591   4.876  12.598  0.00  0.00    +0.000 A 
ATOM      6  C   UNL     1      36.298   5.583  11.469  0.00  0.00    +0.000 A 
ENDROOT
BRANCH   1   8
ATOM      7  N   UNL     1      33.973   6.886   9.337  0.00  0.00    +0.000 NA
ATOM      8  C   UNL     1      35.015   7.273  10.226  0.00  0.00    +0.000 C 
ATOM      9  O   UNL     1      35.682   8.285   9.912  0.00  0.00    +0.000 OA
BRANCH   7  12
ATOM     10  C   UNL     1      34.376   5.697   6.908  0.00  0.00    +0.000 C 
ATOM     11  C   UNL     1      33.846   7.089   6.989  0.00  0.00    +0.000 C 
ATOM     12  N   UNL     1      33.682   7.585   8.159  0.00  0.00    +0.000 NA
BRANCH  11  13
ATOM     13  C   UNL     1      33.541   7.820   5.731  0.00  0.00    +0.000 C 
ATOM     14  C   UNL     1      32.162   8.429   5.796  0.00  0.00    +0.000 C 
ATOM     15  C   UNL     1      33.735   6.919   4.549  0.00  0.00    +0.000 C 
ATOM     16  C   UNL     1      34.546   8.975   5.662  0.00  0.00    +0.000 C 
ENDBRANCH  11  13
ENDBRANCH   7  12
ENDBRANCH   1   8
BRANCH   4  17
ATOM     17  C   UNL     1      36.246   4.295  14.977  0.00  0.00    +0.000 C 
BRANCH  17  18
ATOM     18  N   UNL     1      36.140   2.892  14.599  0.00  0.00    +0.000 NA
ATOM     19  C   UNL     1      37.222   2.095  15.085  0.00  0.00    +0.000 C 
ATOM     20  C   UNL     1      36.816   0.763  15.627  0.00  0.00    +0.000 C 
ATOM     21  C   UNL     1      35.775   0.913  16.693  0.00  0.00    +0.000 C 
ATOM     22  C   UNL     1      34.711   1.906  16.346  0.00  0.00    +0.000 C 
ATOM     23  C   UNL     1      34.833   2.356  14.906  0.00  0.00    +0.000 C 
BRANCH  21  24
ATOM     24  C   UNL     1      35.171  -0.445  17.051  0.00  0.00    +0.000 C 
BRANCH  24  25
ATOM     25  C   UNL     1      36.198  -1.319  17.670  0.00  0.00    +0.000 A 
ATOM     26  C   UNL     1      36.739  -1.051  18.906  0.00  0.00    +0.000 A 
ATOM     27  C   UNL     1      37.691  -1.857  19.486  0.00  0.00    +0.000 A 
ATOM     28  C   UNL     1      38.110  -2.970  18.793  0.00  0.00    +0.000 A 
ATOM     29  C   UNL     1      37.577  -3.238  17.569  0.00  0.00    +0.000 A 
ATOM     30  C   UNL     1      36.632  -2.448  16.983  0.00  0.00    +0.000 A 
ENDBRANCH  24  25
ENDBRANCH  21  24
ENDBRANCH  17  18
ENDBRANCH   4  17
TORSDOF 7
ENDMDL
MODEL 2
REMARK VINA RESULT:      -7.2      8.552     11.073
REMARK  Name = 
REMARK  7 active torsions:
REMARK  status: ('A' for Active; 'I' for Inactive)
REMARK    1  A    between atoms: C_2  and  C_27
REMARK    2  A    between atoms: N_3  and  N_4
REMARK    3  A    between atoms: C_5  and  C_7
REMARK    4  A    between atoms: C_10  and  C_11
REMARK    5  A    between atoms: C_11  and  N_12
REMARK    6  A    between atoms: C_15  and  C_16
REMARK    7  A    between atoms: C_16  and  C_17
REMARK                            x       y       z     vdW  Elec       q    Type
REMARK                         _______ _______ _______ _____ _____    ______ ____
ROOT
ATOM      1  C   UNL     1      39.726   5.829  18.034  0.00  0.00    +0.000 A 
ATOM      2  C   UNL     1      39.676   6.178  19.348  0.00  0.00    +0.000 A 
ATOM      3  C   UNL     1      40.809   6.730  19.953  0.00  0.00    +0.000 A 
ATOM      4  C   UNL     1      41.979   6.936  19.267  0.00  0.00    +0.000 A 
ATOM      5  C   UNL     1      41.997   6.570  17.933  0.00  0.00    +0.000 A 
ATOM      6  C   UNL     1      40.894   6.030  17.338  0.00  0.00    +0.000 A 
ENDROOT
BRANCH   1   8
ATOM      7  N   UNL     1      38.218   3.874  17.509  0.00  0.00    +0.000 NA
ATOM      8  C   UNL     1      38.563   5.248  17.368  0.00  0.00    +0.000 C 
ATOM      9  O   UNL     1      37.821   5.947  16.640  0.00  0.00    +0.000 OA
BRANCH   7  12
ATOM     10  C   UNL     1      38.502   2.667  15.072  0.00  0.00    +0.000 C 
ATOM     11  C   UNL     1      37.169   2.721  15.738  0.00  0.00    +0.000 C 
ATOM     12  N   UNL     1      37.107   3.302  16.878  0.00  0.00    +0.000 NA
BRANCH  11  13
ATOM     13  C   UNL     1      35.996   2.109  15.058  0.00  0.00    +0.000 C 
ATOM     14  C   UNL     1      36.400   1.528  13.726  0.00  0.00    +0.000 C 
ATOM     15  C   UNL     1      34.881   3.106  14.955  0.00  0.00    +0.000 C 
ATOM     16  C   UNL     1      35.555   0.944  15.950  0.00  0.00    +0.000 C 
ENDBRANCH  11  13
ENDBRANCH   7  12
ENDBRANCH   1   8
BRANCH   4  17
ATOM     17  C   UNL     1      43.202   7.520  19.873  0.00  0.00    +0.000 C 
BRANCH  17  18
ATOM     18  N   UNL     1      44.020   6.401  20.324  0.00  0.00    +0.000 NA
ATOM     19  C   UNL     1      45.397   6.743  20.492  0.00  0.00    +0.000 C 
ATOM     20  C   UNL     1      46.031   6.176  21.720  0.00  0.00    +0.000 C 
ATOM     21  C   UNL     1      45.259   6.556  22.946  0.00  0.00    +0.000 C 
ATOM     22  C   UNL     1      43.778   6.432  22.775  0.00  0.00    +0.000 C 
ATOM     23  C   UNL     1      43.435   5.744  21.471  0.00  0.00    +0.000 C 
BRANCH  21  24
ATOM     24  C   UNL     1      45.747   5.762  24.157  0.00  0.00    +0.000 C 
BRANCH  24  25
ATOM     25  C   UNL     1      44.818   5.941  25.300  0.00  0.00    +0.000 A 
ATOM     26  C   UNL     1      44.034   4.916  25.774  0.00  0.00    +0.000 A 
ATOM     27  C   UNL     1      43.171   5.074  26.834  0.00  0.00    +0.000 A 
ATOM     28  C   UNL     1      43.098   6.312  27.432  0.00  0.00    +0.000 A 
ATOM     29  C   UNL     1      43.873   7.329  26.965  0.00  0.00    +0.000 A 
ATOM     30  C   UNL     1      44.733   7.185  25.917  0.00  0.00    +0.000 A 
ENDBRANCH  24  25
ENDBRANCH  21  24
ENDBRANCH  17  18
ENDBRANCH   4  17
TORSDOF 7
ENDMDL
MODEL 3
REMARK VINA RESULT:      -7.1      6.806     11.169
REMARK  Name = 
REMARK  7 active torsions:
REMARK  status: ('A' for Active; 'I' for Inactive)
REMARK    1  A    between atoms: C_2  and  C_27
REMARK    2  A    between atoms: N_3  and  N_4
REMARK    3  A    between atoms: C_5  and  C_7
REMARK    4  A    between atoms: C_10  and  C_11
REMARK    5  A    between atoms: C_11  and  N_12
REMARK    6  A    between atoms: C_15  and  C_16
REMARK    7  A    between atoms: C_16  and  C_17
REMARK                            x       y       z     vdW  Elec       q    Type
REMARK                         _______ _______ _______ _____ _____    ______ ____
ROOT
ATOM      1  C   UNL     1      40.565   6.345  18.813  0.00  0.00    +0.000 A 
ATOM      2  C   UNL     1      41.065   6.403  17.550  0.00  0.00    +0.000 A 
ATOM      3  C   UNL     1      40.335   5.844  16.498  0.00  0.00    +0.000 A 
ATOM      4  C   UNL     1      39.122   5.234  16.691  0.00  0.00    +0.000 A 
ATOM      5  C   UNL     1      38.641   5.191  17.988  0.00  0.00    +0.000 A 
ATOM      6  C   UNL     1      39.350   5.735  19.018  0.00  0.00    +0.000 A 
ENDROOT
BRANCH   1   8
ATOM      7  N   UNL     1      42.320   6.197  20.620  0.00  0.00    +0.000 NA
ATOM      8  C   UNL     1      41.300   6.918  19.938  0.00  0.00    +0.000 C 
ATOM      9  O   UNL     1      41.055   8.077  20.345  0.00  0.00    +0.000 OA
BRANCH   7  12
ATOM     10  C   UNL     1      44.282   4.722  21.824  0.00  0.00    +0.000 C 
ATOM     11  C   UNL     1      43.966   6.096  22.309  0.00  0.00    +0.000 C 
ATOM     12  N   UNL     1      43.035   6.731  21.699  0.00  0.00    +0.000 NA
BRANCH  11  13
ATOM     13  C   UNL     1      44.732   6.653  23.455  0.00  0.00    +0.000 C 
ATOM     14  C   UNL     1      46.215   6.496  23.226  0.00  0.00    +0.000 C 
ATOM     15  C   UNL     1      44.263   6.036  24.738  0.00  0.00    +0.000 C 
ATOM     16  C   UNL     1      44.429   8.155  23.472  0.00  0.00    +0.000 C 
ENDBRANCH  11  13
ENDBRANCH   7  12
ENDBRANCH   1   8
BRANCH   4  17
ATOM     17  C   UNL     1      38.315   4.628  15.602  0.00  0.00    +0.000 C 
BRANCH  17  18
ATOM     18  N   UNL     1      38.286   3.193  15.851  0.00  0.00    +0.000 NA
ATOM     19  C   UNL     1      36.962   2.673  15.985  0.00  0.00    +0.000 C 
ATOM     20  C   UNL     1      36.736   1.368  15.293  0.00  0.00    +0.000 C 
ATOM     21  C   UNL     1      37.103   1.459  13.844  0.00  0.00    +0.000 C 
ATOM     22  C   UNL     1      38.385   2.191  13.603  0.00  0.00    +0.000 C 
ATOM     23  C   UNL     1      39.106   2.473  14.904  0.00  0.00    +0.000 C 
BRANCH  21  24
ATOM     24  C   UNL     1      37.129   0.070  13.207  0.00  0.00    +0.000 C 
BRANCH  24  25
ATOM     25  C   UNL     1      37.622  -0.935  14.180  0.00  0.00    +0.000 A 
ATOM     26  C   UNL     1      38.961  -1.106  14.442  0.00  0.00    +0.000 A 
ATOM     27  C   UNL     1      39.426  -2.035  15.343  0.00  0.00    +0.000 A 
ATOM     28  C   UNL     1      38.505  -2.820  16.000  0.00  0.00    +0.000 A 
ATOM     29  C   UNL     1      37.178  -2.655  15.742  0.00  0.00    +0.000 A 
ATOM     30  C   UNL     1      36.705  -1.737  14.852  0.00  0.00    +0.000 A 
ENDBRANCH  24  25
ENDBRANCH  21  24
ENDBRANCH  17  18
ENDBRANCH   4  17
TORSDOF 7
ENDMDL
MODEL 4
REMARK VINA RESULT:      -7.0      7.343     11.835
REMARK  Name = 
REMARK  7 active torsions:
REMARK  status: ('A' for Active; 'I' for Inactive)
REMARK    1  A    between atoms: C_2  and  C_27
REMARK    2  A    between atoms: N_3  and  N_4
REMARK    3  A    between atoms: C_5  and  C_7
REMARK    4  A    between atoms: C_10  and  C_11
REMARK    5  A    between atoms: C_11  and  N_12
REMARK    6  A    between atoms: C_15  and  C_16
REMARK    7  A    between atoms: C_16  and  C_17
REMARK                            x       y       z     vdW  Elec       q    Type
REMARK                         _______ _______ _______ _____ _____    ______ ____
ROOT
ATOM      1  C   UNL     1      41.532   6.579  19.574  0.00  0.00    +0.000 A 
ATOM      2  C   UNL     1      40.227   6.301  19.837  0.00  0.00    +0.000 A 
ATOM      3  C   UNL     1      39.376   5.951  18.785  0.00  0.00    +0.000 A 
ATOM      4  C   UNL     1      39.810   5.874  17.486  0.00  0.00    +0.000 A 
ATOM      5  C   UNL     1      41.143   6.163  17.252  0.00  0.00    +0.000 A 
ATOM      6  C   UNL     1      41.978   6.506  18.275  0.00  0.00    +0.000 A 
ENDROOT
BRANCH   1   8
ATOM      7  N   UNL     1      43.081   5.976  21.473  0.00  0.00    +0.000 NA
ATOM      8  C   UNL     1      42.451   6.950  20.647  0.00  0.00    +0.000 C 
ATOM      9  O   UNL     1      42.720   8.151  20.880  0.00  0.00    +0.000 OA
BRANCH   7  12
ATOM     10  C   UNL     1      45.273   4.416  21.959  0.00  0.00    +0.000 C 
ATOM     11  C   UNL     1      45.010   5.629  22.787  0.00  0.00    +0.000 C 
ATOM     12  N   UNL     1      43.964   6.314  22.505  0.00  0.00    +0.000 NA
BRANCH  11  13
ATOM     13  C   UNL     1      45.956   5.977  23.880  0.00  0.00    +0.000 C 
ATOM     14  C   UNL     1      45.259   6.789  24.944  0.00  0.00    +0.000 C 
ATOM     15  C   UNL     1      47.168   6.657  23.316  0.00  0.00    +0.000 C 
ATOM     16  C   UNL     1      46.370   4.647  24.518  0.00  0.00    +0.000 C 
ENDBRANCH  11  13
ENDBRANCH   7  12
ENDBRANCH   1   8
BRANCH   4  17
ATOM     17  C   UNL     1      38.940   5.505  16.341  0.00  0.00    +0.000 C 
BRANCH  17  18
ATOM     18  N   UNL     1      38.635   4.088  16.489  0.00  0.00    +0.000 NA
ATOM     19  C   UNL     1      37.441   3.844  17.236  0.00  0.00    +0.000 C 
ATOM     20  C   UNL     1      36.568   2.770  16.675  0.00  0.00    +0.000 C 
ATOM     21  C   UNL     1      36.225   3.049  15.244  0.00  0.00    +0.000 C 
ATOM     22  C   UNL     1      37.392   3.525  14.438  0.00  0.00    +0.000 C 
ATOM     23  C   UNL     1      38.682   3.399  15.219  0.00  0.00    +0.000 C 
BRANCH  21  24
ATOM     24  C   UNL     1      35.565   1.831  14.601  0.00  0.00    +0.000 C 
BRANCH  24  25
ATOM     25  C   UNL     1      35.890   0.603  15.367  0.00  0.00    +0.000 A 
ATOM     26  C   UNL     1      35.096   0.148  16.393  0.00  0.00    +0.000 A 
ATOM     27  C   UNL     1      35.391  -0.990  17.108  0.00  0.00    +0.000 A 
ATOM     28  C   UNL     1      36.528  -1.691  16.773  0.00  0.00    +0.000 A 
ATOM     29  C   UNL     1      37.317  -1.243  15.758  0.00  0.00    +0.000 A 
ATOM     30  C   UNL     1      37.035  -0.117  15.042  0.00  0.00    +0.000 A 
ENDBRANCH  24  25
ENDBRANCH  21  24
ENDBRANCH  17  18
ENDBRANCH   4  17
TORSDOF 7
ENDMDL
MODEL 5
REMARK VINA RESULT:      -7.0      6.730     11.636
REMARK  Name = 
REMARK  7 active torsions:
REMARK  status: ('A' for Active; 'I' for Inactive)
REMARK    1  A    between atoms: C_2  and  C_27
REMARK    2  A    between atoms: N_3  and  N_4
REMARK    3  A    between atoms: C_5  and  C_7
REMARK    4  A    between atoms: C_10  and  C_11
REMARK    5  A    between atoms: C_11  and  N_12
REMARK    6  A    between atoms: C_15  and  C_16
REMARK    7  A    between atoms: C_16  and  C_17
REMARK                            x       y       z     vdW  Elec       q    Type
REMARK                         _______ _______ _______ _____ _____    ______ ____
ROOT
ATOM      1  C   UNL     1      34.982  -3.837  15.308  0.00  0.00    +0.000 A 
ATOM      2  C   UNL     1      36.002  -3.830  14.408  0.00  0.00    +0.000 A 
ATOM      3  C   UNL     1      36.877  -2.740  14.374  0.00  0.00    +0.000 A 
ATOM      4  C   UNL     1      36.746  -1.669  15.220  0.00  0.00    +0.000 A 
ATOM      5  C   UNL     1      35.699  -1.707  16.123  0.00  0.00    +0.000 A 
ATOM      6  C   UNL     1      34.841  -2.767  16.161  0.00  0.00    +0.000 A 
ENDROOT
BRANCH   1   8
ATOM      7  N   UNL     1      34.490  -6.310  15.417  0.00  0.00    +0.000 NA
ATOM      8  C   UNL     1      34.048  -4.957  15.374  0.00  0.00    +0.000 C 
ATOM      9  O   UNL     1      32.810  -4.765  15.395  0.00  0.00    +0.000 OA
BRANCH   7  12
ATOM     10  C   UNL     1      34.092  -7.878  13.213  0.00  0.00    +0.000 C 
ATOM     11  C   UNL     1      33.376  -8.171  14.487  0.00  0.00    +0.000 C 
ATOM     12  N   UNL     1      33.609  -7.395  15.481  0.00  0.00    +0.000 NA
BRANCH  11  13
ATOM     13  C   UNL     1      32.442  -9.327  14.543  0.00  0.00    +0.000 C 
ATOM     14  C   UNL     1      31.914  -9.647  13.167  0.00  0.00    +0.000 C 
ATOM     15  C   UNL     1      31.360  -9.068  15.547  0.00  0.00    +0.000 C 
ATOM     16  C   UNL     1      33.284 -10.524  14.999  0.00  0.00    +0.000 C 
ENDBRANCH  11  13
ENDBRANCH   7  12
ENDBRANCH   1   8
BRANCH   4  17
ATOM     17  C   UNL     1      37.653  -0.494  15.216  0.00  0.00    +0.000 C 
BRANCH  17  18
ATOM     18  N   UNL     1      36.805   0.690  15.175  0.00  0.00    +0.000 NA
ATOM     19  C   UNL     1      36.439   1.165  16.473  0.00  0.00    +0.000 C 
ATOM     20  C   UNL     1      36.491   2.650  16.626  0.00  0.00    +0.000 C 
ATOM     21  C   UNL     1      37.841   3.180  16.251  0.00  0.00    +0.000 C 
ATOM     22  C   UNL     1      38.394   2.564  15.006  0.00  0.00    +0.000 C 
ATOM     23  C   UNL     1      37.355   1.710  14.311  0.00  0.00    +0.000 C 
BRANCH  21  24
ATOM     24  C   UNL     1      37.811   4.705  16.150  0.00  0.00    +0.000 C 
BRANCH  24  25
ATOM     25  C   UNL     1      38.892   5.298  16.974  0.00  0.00    +0.000 A 
ATOM     26  C   UNL     1      38.819   5.360  18.346  0.00  0.00    +0.000 A 
ATOM     27  C   UNL     1      39.818   5.908  19.116  0.00  0.00    +0.000 A 
ATOM     28  C   UNL     1      40.928   6.412  18.477  0.00  0.00    +0.000 A 
ATOM     29  C   UNL     1      41.005   6.353  17.119  0.00  0.00    +0.000 A 
ATOM     30  C   UNL     1      40.022   5.812  16.344  0.00  0.00    +0.000 A 
ENDBRANCH  24  25
ENDBRANCH  21  24
ENDBRANCH  17  18
ENDBRANCH   4  17
TORSDOF 7
ENDMDL
MODEL 6
REMARK VINA RESULT:      -6.9      6.313     10.948
REMARK  Name = 
REMARK  7 active torsions:
REMARK  status: ('A' for Active; 'I' for Inactive)
REMARK    1  A    between atoms: C_2  and  C_27
REMARK    2  A    between atoms: N_3  and  N_4
REMARK    3  A    between atoms: C_5  and  C_7
REMARK    4  A    between atoms: C_10  and  C_11
REMARK    5  A    between atoms: C_11  and  N_12
REMARK    6  A    between atoms: C_15  and  C_16
REMARK    7  A    between atoms: C_16  and  C_17
REMARK                            x       y       z     vdW  Elec       q    Type
REMARK                         _______ _______ _______ _____ _____    ______ ____
ROOT
ATOM      1  C   UNL     1      37.645  -2.296  14.890  0.00  0.00    +0.000 A 
ATOM      2  C   UNL     1      36.967  -1.611  13.931  0.00  0.00    +0.000 A 
ATOM      3  C   UNL     1      37.453  -0.372  13.502  0.00  0.00    +0.000 A 
ATOM      4  C   UNL     1      38.598   0.183  14.015  0.00  0.00    +0.000 A 
ATOM      5  C   UNL     1      39.263  -0.539  14.989  0.00  0.00    +0.000 A 
ATOM      6  C   UNL     1      38.793  -1.748  15.412  0.00  0.00    +0.000 A 
ENDROOT
BRANCH   1   8
ATOM      7  N   UNL     1      36.059  -4.255  14.766  0.00  0.00    +0.000 NA
ATOM      8  C   UNL     1      37.168  -3.592  15.365  0.00  0.00    +0.000 C 
ATOM      9  O   UNL     1      37.724  -4.173  16.325  0.00  0.00    +0.000 OA
BRANCH   7  12
ATOM     10  C   UNL     1      33.420  -4.905  14.461  0.00  0.00    +0.000 C 
ATOM     11  C   UNL     1      34.367  -5.867  15.096  0.00  0.00    +0.000 C 
ATOM     12  N   UNL     1      35.589  -5.498  15.207  0.00  0.00    +0.000 NA
BRANCH  11  13
ATOM     13  C   UNL     1      33.856  -7.184  15.560  0.00  0.00    +0.000 C 
ATOM     14  C   UNL     1      33.826  -8.171  14.419  0.00  0.00    +0.000 C 
ATOM     15  C   UNL     1      32.527  -7.015  16.231  0.00  0.00    +0.000 C 
ATOM     16  C   UNL     1      34.880  -7.695  16.579  0.00  0.00    +0.000 C 
ENDBRANCH  11  13
ENDBRANCH   7  12
ENDBRANCH   1   8
BRANCH   4  17
ATOM     17  C   UNL     1      39.147   1.494  13.586  0.00  0.00    +0.000 C 
BRANCH  17  18
ATOM     18  N   UNL     1      38.187   2.507  14.005  0.00  0.00    +0.000 NA
ATOM     19  C   UNL     1      37.766   2.354  15.362  0.00  0.00    +0.000 C 
ATOM     20  C   UNL     1      37.672   3.633  16.129  0.00  0.00    +0.000 C 
ATOM     21  C   UNL     1      38.966   4.385  16.079  0.00  0.00    +0.000 C 
ATOM     22  C   UNL     1      39.588   4.403  14.718  0.00  0.00    +0.000 C 
ATOM     23  C   UNL     1      38.643   3.839  13.679  0.00  0.00    +0.000 C 
BRANCH  21  24
ATOM     24  C   UNL     1      38.789   5.800  16.627  0.00  0.00    +0.000 C 
BRANCH  24  25
ATOM     25  C   UNL     1      39.791   6.073  17.686  0.00  0.00    +0.000 A 
ATOM     26  C   UNL     1      41.109   6.337  17.397  0.00  0.00    +0.000 A 
ATOM     27  C   UNL     1      42.044   6.591  18.374  0.00  0.00    +0.000 A 
ATOM     28  C   UNL     1      41.632   6.576  19.687  0.00  0.00    +0.000 A 
ATOM     29  C   UNL     1      40.327   6.314  19.977  0.00  0.00    +0.000 A 
ATOM     30  C   UNL     1      39.391   6.061  19.019  0.00  0.00    +0.000 A 
ENDBRANCH  24  25
ENDBRANCH  21  24
ENDBRANCH  17  18
ENDBRANCH   4  17
TORSDOF 7
ENDMDL
MODEL 7
REMARK VINA RESULT:      -6.9     24.783     27.670
REMARK  Name = 
REMARK  7 active torsions:
REMARK  status: ('A' for Active; 'I' for Inactive)
REMARK    1  A    between atoms: C_2  and  C_27
REMARK    2  A    between atoms: N_3  and  N_4
REMARK    3  A    between atoms: C_5  and  C_7
REMARK    4  A    between atoms: C_10  and  C_11
REMARK    5  A    between atoms: C_11  and  N_12
REMARK    6  A    between atoms: C_15  and  C_16
REMARK    7  A    between atoms: C_16  and  C_17
REMARK                            x       y       z     vdW  Elec       q    Type
REMARK                         _______ _______ _______ _____ _____    ______ ____
ROOT
ATOM      1  C   UNL     1      15.516   0.266  27.016  0.00  0.00    +0.000 A 
ATOM      2  C   UNL     1      15.216   0.465  28.327  0.00  0.00    +0.000 A 
ATOM      3  C   UNL     1      13.941   0.132  28.795  0.00  0.00    +0.000 A 
ATOM      4  C   UNL     1      12.974  -0.392  27.976  0.00  0.00    +0.000 A 
ATOM      5  C   UNL     1      13.311  -0.581  26.648  0.00  0.00    +0.000 A 
ATOM      6  C   UNL     1      14.553  -0.258  26.186  0.00  0.00    +0.000 A 
ENDROOT
BRANCH   1   8
ATOM      7  N   UNL     1      17.158   0.464  25.109  0.00  0.00    +0.000 NA
ATOM      8  C   UNL     1      16.837   0.602  26.489  0.00  0.00    +0.000 C 
ATOM      9  O   UNL     1      17.742   1.028  27.243  0.00  0.00    +0.000 OA
BRANCH   7  12
ATOM     10  C   UNL     1      18.887  -1.532  24.400  0.00  0.00    +0.000 C 
ATOM     11  C   UNL     1      19.276  -0.102  24.235  0.00  0.00    +0.000 C 
ATOM     12  N   UNL     1      18.418   0.782  24.588  0.00  0.00    +0.000 NA
BRANCH  11  13
ATOM     13  C   UNL     1      20.617   0.224  23.680  0.00  0.00    +0.000 C 
ATOM     14  C   UNL     1      21.647   0.273  24.781  0.00  0.00    +0.000 C 
ATOM     15  C   UNL     1      20.549   1.486  22.875  0.00  0.00    +0.000 C 
ATOM     16  C   UNL     1      20.986  -0.946  22.762  0.00  0.00    +0.000 C 
ENDBRANCH  11  13
ENDBRANCH   7  12
ENDBRANCH   1   8
BRANCH   4  17
ATOM     17  C   UNL     1      11.610  -0.759  28.434  0.00  0.00    +0.000 C 
BRANCH  17  18
ATOM     18  N   UNL     1      10.980   0.471  28.897  0.00  0.00    +0.000 NA
ATOM     19  C   UNL     1      11.248   1.592  28.053  0.00  0.00    +0.000 C 
ATOM     20  C   UNL     1      10.067   2.472  27.798  0.00  0.00    +0.000 C 
ATOM     21  C   UNL     1       8.919   1.682  27.248  0.00  0.00    +0.000 C 
ATOM     22  C   UNL     1       8.710   0.377  27.948  0.00  0.00    +0.000 C 
ATOM     23  C   UNL     1       9.577   0.274  29.184  0.00  0.00    +0.000 C 
BRANCH  21  24
ATOM     24  C   UNL     1       7.642   2.521  27.243  0.00  0.00    +0.000 C 
BRANCH  24  25
ATOM     25  C   UNL     1       6.864   2.268  26.005  0.00  0.00    +0.000 A 
ATOM     26  C   UNL     1       5.580   2.732  25.840  0.00  0.00    +0.000 A 
ATOM     27  C   UNL     1       4.852   2.502  24.695  0.00  0.00    +0.000 A 
ATOM     28  C   UNL     1       5.443   1.777  23.685  0.00  0.00    +0.000 A 
ATOM     29  C   UNL     1       6.714   1.316  23.845  0.00  0.00    +0.000 A 
ATOM     30  C   UNL     1       7.446   1.538  24.974  0.00  0.00    +0.000 A 
ENDBRANCH  24  25
ENDBRANCH  21  24
ENDBRANCH  17  18
ENDBRANCH   4  17
TORSDOF 7
ENDMDL
MODEL 8
REMARK VINA RESULT:      -6.8     24.677     27.488
REMARK  Name = 
REMARK  7 active torsions:
REMARK  status: ('A' for Active; 'I' for Inactive)
REMARK    1  A    between atoms: C_2  and  C_27
REMARK    2  A    between atoms: N_3  and  N_4
REMARK    3  A    between atoms: C_5  and  C_7
REMARK    4  A    between atoms: C_10  and  C_11
REMARK    5  A    between atoms: C_11  and  N_12
REMARK    6  A    between atoms: C_15  and  C_16
REMARK    7  A    between atoms: C_16  and  C_17
REMARK                            x       y       z     vdW  Elec       q    Type
REMARK                         _______ _______ _______ _____ _____    ______ ____
ROOT
ATOM      1  C   UNL     1      15.755   0.180  27.028  0.00  0.00    +0.000 A 
ATOM      2  C   UNL     1      15.518   0.489  28.331  0.00  0.00    +0.000 A 
ATOM      3  C   UNL     1      14.292   0.141  28.904  0.00  0.00    +0.000 A 
ATOM      4  C   UNL     1      13.310  -0.506  28.198  0.00  0.00    +0.000 A 
ATOM      5  C   UNL     1      13.582  -0.805  26.875  0.00  0.00    +0.000 A 
ATOM      6  C   UNL     1      14.777  -0.467  26.310  0.00  0.00    +0.000 A 
ENDROOT
BRANCH   1   8
ATOM      7  N   UNL     1      17.252   0.335  25.001  0.00  0.00    +0.000 NA
ATOM      8  C   UNL     1      17.024   0.528  26.393  0.00  0.00    +0.000 C 
ATOM      9  O   UNL     1      17.967   1.014  27.060  0.00  0.00    +0.000 OA
BRANCH   7  12
ATOM     10  C   UNL     1      19.063  -1.627  24.413  0.00  0.00    +0.000 C 
ATOM     11  C   UNL     1      19.353  -0.204  24.073  0.00  0.00    +0.000 C 
ATOM     12  N   UNL     1      18.461   0.664  24.377  0.00  0.00    +0.000 NA
BRANCH  11  13
ATOM     13  C   UNL     1      20.641   0.132  23.409  0.00  0.00    +0.000 C 
ATOM     14  C   UNL     1      21.716   0.382  24.438  0.00  0.00    +0.000 C 
ATOM     15  C   UNL     1      20.449   1.279  22.463  0.00  0.00    +0.000 C 
ATOM     16  C   UNL     1      21.045  -1.117  22.620  0.00  0.00    +0.000 C 
ENDBRANCH  11  13
ENDBRANCH   7  12
ENDBRANCH   1   8
BRANCH   4  17
ATOM     17  C   UNL     1      11.996  -0.893  28.770  0.00  0.00    +0.000 C 
BRANCH  17  18
ATOM     18  N   UNL     1      11.001  -0.019  28.162  0.00  0.00    +0.000 NA
ATOM     19  C   UNL     1       9.703  -0.154  28.744  0.00  0.00    +0.000 C 
ATOM     20  C   UNL     1       8.987   1.139  28.966  0.00  0.00    +0.000 C 
ATOM     21  C   UNL     1       9.818   2.079  29.784  0.00  0.00    +0.000 C 
ATOM     22  C   UNL     1      11.255   2.112  29.370  0.00  0.00    +0.000 C 
ATOM     23  C   UNL     1      11.470   1.346  28.083  0.00  0.00    +0.000 C 
BRANCH  21  24
ATOM     24  C   UNL     1       9.206   3.480  29.780  0.00  0.00    +0.000 C 
BRANCH  24  25
ATOM     25  C   UNL     1       9.426   4.142  31.089  0.00  0.00    +0.000 A 
ATOM     26  C   UNL     1       9.735   3.433  32.226  0.00  0.00    +0.000 A 
ATOM     27  C   UNL     1       9.941   4.041  33.443  0.00  0.00    +0.000 A 
ATOM     28  C   UNL     1       9.828   5.411  33.513  0.00  0.00    +0.000 A 
ATOM     29  C   UNL     1       9.522   6.116  32.389  0.00  0.00    +0.000 A 
ATOM     30  C   UNL     1       9.316   5.526  31.177  0.00  0.00    +0.000 A 
ENDBRANCH  24  25
ENDBRANCH  21  24
ENDBRANCH  17  18
ENDBRANCH   4  17
TORSDOF 7
ENDMDL
MODEL 9
REMARK VINA RESULT:      -6.7      6.562     10.249
REMARK  Name = 
REMARK  7 active torsions:
REMARK  status: ('A' for Active; 'I' for Inactive)
REMARK    1  A    between atoms: C_2  and  C_27
REMARK    2  A    between atoms: N_3  and  N_4
REMARK    3  A    between atoms: C_5  and  C_7
REMARK    4  A    between atoms: C_10  and  C_11
REMARK    5  A    between atoms: C_11  and  N_12
REMARK    6  A    between atoms: C_15  and  C_16
REMARK    7  A    between atoms: C_16  and  C_17
REMARK                            x       y       z     vdW  Elec       q    Type
REMARK                         _______ _______ _______ _____ _____    ______ ____
ROOT
ATOM      1  C   UNL     1      37.728   2.680  15.325  0.00  0.00    +0.000 A 
ATOM      2  C   UNL     1      38.979   2.897  14.839  0.00  0.00    +0.000 A 
ATOM      3  C   UNL     1      39.582   4.143  15.034  0.00  0.00    +0.000 A 
ATOM      4  C   UNL     1      38.956   5.163  15.705  0.00  0.00    +0.000 A 
ATOM      5  C   UNL     1      37.685   4.910  16.186  0.00  0.00    +0.000 A 
ATOM      6  C   UNL     1      37.091   3.696  15.998  0.00  0.00    +0.000 A 
ENDROOT
BRANCH   1   8
ATOM      7  N   UNL     1      37.327   0.277  15.986  0.00  0.00    +0.000 NA
ATOM      8  C   UNL     1      37.064   1.392  15.140  0.00  0.00    +0.000 C 
ATOM      9  O   UNL     1      36.231   1.221  14.221  0.00  0.00    +0.000 OA
BRANCH   7  12
ATOM     10  C   UNL     1      38.816  -2.016  15.985  0.00  0.00    +0.000 C 
ATOM     11  C   UNL     1      37.336  -2.076  15.814  0.00  0.00    +0.000 C 
ATOM     12  N   UNL     1      36.700  -0.963  15.823  0.00  0.00    +0.000 NA
BRANCH  11  13
ATOM     13  C   UNL     1      36.680  -3.400  15.642  0.00  0.00    +0.000 C 
ATOM     14  C   UNL     1      36.893  -3.918  14.241  0.00  0.00    +0.000 C 
ATOM     15  C   UNL     1      35.235  -3.315  16.029  0.00  0.00    +0.000 C 
ATOM     16  C   UNL     1      37.407  -4.354  16.597  0.00  0.00    +0.000 C 
ENDBRANCH  11  13
ENDBRANCH   7  12
ENDBRANCH   1   8
BRANCH   4  17
ATOM     17  C   UNL     1      39.563   6.499  15.934  0.00  0.00    +0.000 C 
BRANCH  17  18
ATOM     18  N   UNL     1      39.391   6.799  17.349  0.00  0.00    +0.000 NA
ATOM     19  C   UNL     1      39.678   5.686  18.199  0.00  0.00    +0.000 C 
ATOM     20  C   UNL     1      40.457   6.028  19.427  0.00  0.00    +0.000 C 
ATOM     21  C   UNL     1      41.726   6.742  19.075  0.00  0.00    +0.000 C 
ATOM     22  C   UNL     1      41.545   7.787  18.020  0.00  0.00    +0.000 C 
ATOM     23  C   UNL     1      40.078   8.014  17.723  0.00  0.00    +0.000 C 
BRANCH  21  24
ATOM     24  C   UNL     1      42.381   7.324  20.327  0.00  0.00    +0.000 C 
BRANCH  24  25
ATOM     25  C   UNL     1      43.597   6.551  20.680  0.00  0.00    +0.000 A 
ATOM     26  C   UNL     1      43.609   5.630  21.701  0.00  0.00    +0.000 A 
ATOM     27  C   UNL     1      44.732   4.910  22.034  0.00  0.00    +0.000 A 
ATOM     28  C   UNL     1      45.883   5.129  21.311  0.00  0.00    +0.000 A 
ATOM     29  C   UNL     1      45.875   6.041  20.300  0.00  0.00    +0.000 A 
ATOM     30  C   UNL     1      44.768   6.761  19.959  0.00  0.00    +0.000 A 
ENDBRANCH  24  25
ENDBRANCH  21  24
ENDBRANCH  17  18
ENDBRANCH   4  17
TORSDOF 7
ENDMDL
MODEL 10
REMARK VINA RESULT:      -6.7     30.569     34.021
REMARK  Name = 
REMARK  7 active torsions:
REMARK  status: ('A' for Active; 'I' for Inactive)
REMARK    1  A    between atoms: C_2  and  C_27
REMARK    2  A    between atoms: N_3  and  N_4
REMARK    3  A    between atoms: C_5  and  C_7
REMARK    4  A    between atoms: C_10  and  C_11
REMARK    5  A    between atoms: C_11  and  N_12
REMARK    6  A    between atoms: C_15  and  C_16
REMARK    7  A    between atoms: C_16  and  C_17
REMARK                            x       y       z     vdW  Elec       q    Type
REMARK                         _______ _______ _______ _____ _____    ______ ____
ROOT
ATOM      1  C   UNL     1      21.254  13.623  43.122  0.00  0.00    +0.000 A 
ATOM      2  C   UNL     1      20.580  14.018  42.009  0.00  0.00    +0.000 A 
ATOM      3  C   UNL     1      21.144  14.989  41.176  0.00  0.00    +0.000 A 
ATOM      4  C   UNL     1      22.362  15.561  41.439  0.00  0.00    +0.000 A 
ATOM      5  C   UNL     1      23.022  15.137  42.579  0.00  0.00    +0.000 A 
ATOM      6  C   UNL     1      22.475  14.190  43.396  0.00  0.00    +0.000 A 
ENDROOT
BRANCH   1   8
ATOM      7  N   UNL     1      19.980  11.482  43.529  0.00  0.00    +0.000 NA
ATOM      8  C   UNL     1      20.695  12.612  44.017  0.00  0.00    +0.000 C 
ATOM      9  O   UNL     1      20.828  12.706  45.259  0.00  0.00    +0.000 OA
BRANCH   7  12
ATOM     10  C   UNL     1      17.274  11.107  43.627  0.00  0.00    +0.000 C 
ATOM     11  C   UNL     1      18.182  10.274  44.467  0.00  0.00    +0.000 C 
ATOM     12  N   UNL     1      19.440  10.503  44.372  0.00  0.00    +0.000 NA
BRANCH  11  13
ATOM     13  C   UNL     1      17.597   9.238  45.358  0.00  0.00    +0.000 C 
ATOM     14  C   UNL     1      18.583   8.842  46.428  0.00  0.00    +0.000 C 
ATOM     15  C   UNL     1      17.106   8.077  44.546  0.00  0.00    +0.000 C 
ATOM     16  C   UNL     1      16.409   9.908  46.057  0.00  0.00    +0.000 C 
ENDBRANCH  11  13
ENDBRANCH   7  12
ENDBRANCH   1   8
BRANCH   4  17
ATOM     17  C   UNL     1      22.996  16.593  40.580  0.00  0.00    +0.000 C 
BRANCH  17  18
ATOM     18  N   UNL     1      24.251  16.026  40.102  0.00  0.00    +0.000 NA
ATOM     19  C   UNL     1      24.068  15.011  39.113  0.00  0.00    +0.000 C 
ATOM     20  C   UNL     1      25.026  15.083  37.968  0.00  0.00    +0.000 C 
ATOM     21  C   UNL     1      24.991  16.435  37.324  0.00  0.00    +0.000 C 
ATOM     22  C   UNL     1      24.959  17.560  38.310  0.00  0.00    +0.000 C 
ATOM     23  C   UNL     1      25.188  17.057  39.719  0.00  0.00    +0.000 C 
BRANCH  21  24
ATOM     24  C   UNL     1      26.149  16.593  36.340  0.00  0.00    +0.000 C 
BRANCH  24  25
ATOM     25  C   UNL     1      25.734  16.164  34.982  0.00  0.00    +0.000 A 
ATOM     26  C   UNL     1      25.100  17.014  34.107  0.00  0.00    +0.000 A 
ATOM     27  C   UNL     1      24.713  16.623  32.846  0.00  0.00    +0.000 A 
ATOM     28  C   UNL     1      24.974  15.329  32.458  0.00  0.00    +0.000 A 
ATOM     29  C   UNL     1      25.601  14.484  33.322  0.00  0.00    +0.000 A 
ATOM     30  C   UNL     1      25.991  14.858  34.574  0.00  0.00    +0.000 A 
ENDBRANCH  24  25
ENDBRANCH  21  24
ENDBRANCH  17  18
ENDBRANCH   4  17
TORSDOF 7
ENDMDL
