MODEL 1
REMARK VINA RESULT:      -6.8      0.000      0.000
REMARK  Name = 
REMARK  4 active torsions:
REMARK  status: ('A' for Active; 'I' for Inactive)
REMARK    1  A    between atoms: O_2  and  C_3
REMARK    2  A    between atoms: C_5  and  O_6
REMARK    3  A    between atoms: O_6  and  C_7
REMARK    4  A    between atoms: C_10  and  C_11
REMARK                            x       y       z     vdW  Elec       q    Type
REMARK                         _______ _______ _______ _____ _____    ______ ____
ROOT
ATOM      1  O   UNL     1      17.480  10.305  36.787  0.00  0.00    +0.000 OA
ENDROOT
BRANCH   1   4
ATOM      2  C   UNL     1      21.012  10.404  37.808  0.00  0.00    +0.000 A 
ATOM      3  C   UNL     1      19.809   9.964  37.305  0.00  0.00    +0.000 A 
ATOM      4  C   UNL     1      18.683  10.755  37.293  0.00  0.00    +0.000 A 
ATOM      5  N   UNL     1      18.833  11.994  37.808  0.00  0.00    +0.000 NA
ATOM      6  C   UNL     1      19.984  12.466  38.309  0.00  0.00    +0.000 A 
ATOM      7  N   UNL     1      20.089  13.792  38.844  0.00  0.00    +0.000 NA
ATOM      8  N   UNL     1      21.075  11.650  38.302  0.00  0.00    +0.000 NA
BRANCH   2  10
ATOM      9  C   UNL     1      22.843   9.424  36.593  0.00  0.00    +0.000 C 
ATOM     10  O   UNL     1      22.107   9.560  37.793  0.00  0.00    +0.000 OA
ENDBRANCH   2  10
ENDBRANCH   1   4
BRANCH   1  11
ATOM     11  C   UNL     1      16.914  10.729  35.605  0.00  0.00    +0.000 A 
ATOM     12  C   UNL     1      17.440  10.213  34.412  0.00  0.00    +0.000 A 
ATOM     13  C   UNL     1      16.904  10.607  33.209  0.00  0.00    +0.000 A 
ATOM     14  C   UNL     1      15.851  11.508  33.130  0.00  0.00    +0.000 A 
ATOM     15  C   UNL     1      15.375  11.982  34.333  0.00  0.00    +0.000 A 
ATOM     16  C   UNL     1      15.873  11.620  35.570  0.00  0.00    +0.000 A 
ATOM     17  C   UNL     1      15.290  12.198  36.832  0.00  0.00    +0.000 C 
BRANCH  14  18
ATOM     18  C   UNL     1      15.273  11.935  31.820  0.00  0.00    +0.000 C 
ATOM     19  C   UNL     1      14.322  13.080  32.122  0.00  0.00    +0.000 C 
ATOM     20  C   UNL     1      14.415  10.776  31.326  0.00  0.00    +0.000 C 
ENDBRANCH  14  18
ENDBRANCH   1  11
TORSDOF 4
ENDMDL
MODEL 2
REMARK VINA RESULT:      -6.7      1.467      2.337
REMARK  Name = 
REMARK  4 active torsions:
REMARK  status: ('A' for Active; 'I' for Inactive)
REMARK    1  A    between atoms: O_2  and  C_3
REMARK    2  A    between atoms: C_5  and  O_6
REMARK    3  A    between atoms: O_6  and  C_7
REMARK    4  A    between atoms: C_10  and  C_11
REMARK                            x       y       z     vdW  Elec       q    Type
REMARK                         _______ _______ _______ _____ _____    ______ ____
ROOT
ATOM      1  O   UNL     1      17.590  10.161  36.833  0.00  0.00    +0.000 OA
ENDROOT
BRANCH   1   4
ATOM      2  C   UNL     1      20.300  12.128  38.353  0.00  0.00    +0.000 A 
ATOM      3  C   UNL     1      19.047  11.713  37.961  0.00  0.00    +0.000 A 
ATOM      4  C   UNL     1      18.850  10.569  37.222  0.00  0.00    +0.000 A 
ATOM      5  N   UNL     1      19.965   9.878  36.903  0.00  0.00    +0.000 NA
ATOM      6  C   UNL     1      21.204  10.244  37.262  0.00  0.00    +0.000 A 
ATOM      7  N   UNL     1      22.355   9.471  36.897  0.00  0.00    +0.000 NA
ATOM      8  N   UNL     1      21.356  11.383  37.994  0.00  0.00    +0.000 NA
BRANCH   2  10
ATOM      9  C   UNL     1      21.634  14.026  38.992  0.00  0.00    +0.000 C 
ATOM     10  O   UNL     1      20.433  13.287  39.094  0.00  0.00    +0.000 OA
ENDBRANCH   2  10
ENDBRANCH   1   4
BRANCH   1  11
ATOM     11  C   UNL     1      16.927  10.608  35.712  0.00  0.00    +0.000 A 
ATOM     12  C   UNL     1      17.377  10.149  34.466  0.00  0.00    +0.000 A 
ATOM     13  C   UNL     1      16.743  10.570  33.320  0.00  0.00    +0.000 A 
ATOM     14  C   UNL     1      15.663  11.442  33.352  0.00  0.00    +0.000 A 
ATOM     15  C   UNL     1      15.266  11.860  34.603  0.00  0.00    +0.000 A 
ATOM     16  C   UNL     1      15.863  11.470  35.786  0.00  0.00    +0.000 A 
ATOM     17  C   UNL     1      15.360  11.987  37.108  0.00  0.00    +0.000 C 
BRANCH  14  18
ATOM     18  C   UNL     1      14.979  11.897  32.104  0.00  0.00    +0.000 C 
ATOM     19  C   UNL     1      14.426  10.649  31.438  0.00  0.00    +0.000 C 
ATOM     20  C   UNL     1      16.067  12.437  31.185  0.00  0.00    +0.000 C 
ENDBRANCH  14  18
ENDBRANCH   1  11
TORSDOF 4
ENDMDL
MODEL 3
REMARK VINA RESULT:      -6.7      2.033      3.005
REMARK  Name = 
REMARK  4 active torsions:
REMARK  status: ('A' for Active; 'I' for Inactive)
REMARK    1  A    between atoms: O_2  and  C_3
REMARK    2  A    between atoms: C_5  and  O_6
REMARK    3  A    between atoms: O_6  and  C_7
REMARK    4  A    between atoms: C_10  and  C_11
REMARK                            x       y       z     vdW  Elec       q    Type
REMARK                         _______ _______ _______ _____ _____    ______ ____
ROOT
ATOM      1  O   UNL     1      15.967  10.942  36.306  0.00  0.00    +0.000 OA
ENDROOT
BRANCH   1   4
ATOM      2  C   UNL     1      18.947  12.460  37.836  0.00  0.00    +0.000 A 
ATOM      3  C   UNL     1      17.789  12.299  37.109  0.00  0.00    +0.000 A 
ATOM      4  C   UNL     1      17.127  11.095  37.038  0.00  0.00    +0.000 A 
ATOM      5  N   UNL     1      17.687  10.077  37.727  0.00  0.00    +0.000 NA
ATOM      6  C   UNL     1      18.813  10.187  38.448  0.00  0.00    +0.000 A 
ATOM      7  N   UNL     1      19.363   9.074  39.163  0.00  0.00    +0.000 NA
ATOM      8  N   UNL     1      19.437  11.397  38.492  0.00  0.00    +0.000 NA
BRANCH   2  10
ATOM      9  C   UNL     1      20.724  13.857  38.662  0.00  0.00    +0.000 C 
ATOM     10  O   UNL     1      19.566  13.696  37.867  0.00  0.00    +0.000 OA
ENDBRANCH   2  10
ENDBRANCH   1   4
BRANCH   1  11
ATOM     11  C   UNL     1      15.806  11.329  34.994  0.00  0.00    +0.000 A 
ATOM     12  C   UNL     1      14.849  12.316  34.721  0.00  0.00    +0.000 A 
ATOM     13  C   UNL     1      14.656  12.733  33.425  0.00  0.00    +0.000 A 
ATOM     14  C   UNL     1      15.381  12.206  32.364  0.00  0.00    +0.000 A 
ATOM     15  C   UNL     1      16.306  11.239  32.692  0.00  0.00    +0.000 A 
ATOM     16  C   UNL     1      16.543  10.784  33.974  0.00  0.00    +0.000 A 
ATOM     17  C   UNL     1      17.573   9.716  34.232  0.00  0.00    +0.000 C 
BRANCH  14  18
ATOM     18  C   UNL     1      15.167  12.661  30.958  0.00  0.00    +0.000 C 
ATOM     19  C   UNL     1      16.469  13.301  30.510  0.00  0.00    +0.000 C 
ATOM     20  C   UNL     1      14.131  13.777  31.016  0.00  0.00    +0.000 C 
ENDBRANCH  14  18
ENDBRANCH   1  11
TORSDOF 4
ENDMDL
MODEL 4
REMARK VINA RESULT:      -6.6     29.056     30.436
REMARK  Name = 
REMARK  4 active torsions:
REMARK  status: ('A' for Active; 'I' for Inactive)
REMARK    1  A    between atoms: O_2  and  C_3
REMARK    2  A    between atoms: C_5  and  O_6
REMARK    3  A    between atoms: O_6  and  C_7
REMARK    4  A    between atoms: C_10  and  C_11
REMARK                            x       y       z     vdW  Elec       q    Type
REMARK                         _______ _______ _______ _____ _____    ______ ____
ROOT
ATOM      1  O   UNL     1      31.925  20.209  11.472  0.00  0.00    +0.000 OA
ENDROOT
BRANCH   1   4
ATOM      2  C   UNL     1      34.782  22.233  10.346  0.00  0.00    +0.000 A 
ATOM      3  C   UNL     1      33.590  21.863  10.928  0.00  0.00    +0.000 A 
ATOM      4  C   UNL     1      33.121  20.570  10.886  0.00  0.00    +0.000 A 
ATOM      5  N   UNL     1      33.905  19.684  10.236  0.00  0.00    +0.000 NA
ATOM      6  C   UNL     1      35.072  19.998   9.654  0.00  0.00    +0.000 A 
ATOM      7  N   UNL     1      35.867  19.016   8.977  0.00  0.00    +0.000 NA
ATOM      8  N   UNL     1      35.500  21.290   9.719  0.00  0.00    +0.000 NA
BRANCH   2  10
ATOM      9  C   UNL     1      35.453  24.252   9.222  0.00  0.00    +0.000 C 
ATOM     10  O   UNL     1      35.198  23.549  10.423  0.00  0.00    +0.000 OA
ENDBRANCH   2  10
ENDBRANCH   1   4
BRANCH   1  11
ATOM     11  C   UNL     1      30.869  21.064  11.701  0.00  0.00    +0.000 A 
ATOM     12  C   UNL     1      30.876  21.796  12.897  0.00  0.00    +0.000 A 
ATOM     13  C   UNL     1      29.842  22.662  13.166  0.00  0.00    +0.000 A 
ATOM     14  C   UNL     1      28.781  22.840  12.289  0.00  0.00    +0.000 A 
ATOM     15  C   UNL     1      28.827  22.094  11.132  0.00  0.00    +0.000 A 
ATOM     16  C   UNL     1      29.839  21.211  10.808  0.00  0.00    +0.000 A 
ATOM     17  C   UNL     1      29.798  20.434   9.519  0.00  0.00    +0.000 C 
BRANCH  14  18
ATOM     18  C   UNL     1      27.660  23.781  12.587  0.00  0.00    +0.000 C 
ATOM     19  C   UNL     1      27.911  24.322  13.984  0.00  0.00    +0.000 C 
ATOM     20  C   UNL     1      26.394  22.937  12.668  0.00  0.00    +0.000 C 
ENDBRANCH  14  18
ENDBRANCH   1  11
TORSDOF 4
ENDMDL
MODEL 5
REMARK VINA RESULT:      -6.3     18.903     20.052
REMARK  Name = 
REMARK  4 active torsions:
REMARK  status: ('A' for Active; 'I' for Inactive)
REMARK    1  A    between atoms: O_2  and  C_3
REMARK    2  A    between atoms: C_5  and  O_6
REMARK    3  A    between atoms: O_6  and  C_7
REMARK    4  A    between atoms: C_10  and  C_11
REMARK                            x       y       z     vdW  Elec       q    Type
REMARK                         _______ _______ _______ _____ _____    ______ ____
ROOT
ATOM      1  O   UNL     1      29.077  24.375  25.320  0.00  0.00    +0.000 OA
ENDROOT
BRANCH   1   4
ATOM      2  C   UNL     1      28.876  24.385  21.647  0.00  0.00    +0.000 A 
ATOM      3  C   UNL     1      29.341  24.559  22.932  0.00  0.00    +0.000 A 
ATOM      4  C   UNL     1      28.603  24.196  24.036  0.00  0.00    +0.000 A 
ATOM      5  N   UNL     1      27.392  23.659  23.779  0.00  0.00    +0.000 NA
ATOM      6  C   UNL     1      26.898  23.470  22.547  0.00  0.00    +0.000 A 
ATOM      7  N   UNL     1      25.604  22.893  22.331  0.00  0.00    +0.000 NA
ATOM      8  N   UNL     1      27.660  23.843  21.481  0.00  0.00    +0.000 NA
BRANCH   2  10
ATOM      9  C   UNL     1      29.601  26.113  20.138  0.00  0.00    +0.000 C 
ATOM     10  O   UNL     1      29.664  24.771  20.579  0.00  0.00    +0.000 OA
ENDBRANCH   2  10
ENDBRANCH   1   4
BRANCH   1  11
ATOM     11  C   UNL     1      28.410  24.002  26.465  0.00  0.00    +0.000 A 
ATOM     12  C   UNL     1      27.353  24.818  26.895  0.00  0.00    +0.000 A 
ATOM     13  C   UNL     1      26.659  24.482  28.034  0.00  0.00    +0.000 A 
ATOM     14  C   UNL     1      26.969  23.355  28.782  0.00  0.00    +0.000 A 
ATOM     15  C   UNL     1      28.016  22.593  28.313  0.00  0.00    +0.000 A 
ATOM     16  C   UNL     1      28.747  22.880  27.177  0.00  0.00    +0.000 A 
ATOM     17  C   UNL     1      29.882  21.988  26.747  0.00  0.00    +0.000 C 
BRANCH  14  18
ATOM     18  C   UNL     1      26.212  22.995  30.019  0.00  0.00    +0.000 C 
ATOM     19  C   UNL     1      26.507  24.085  31.035  0.00  0.00    +0.000 C 
ATOM     20  C   UNL     1      26.842  21.716  30.557  0.00  0.00    +0.000 C 
ENDBRANCH  14  18
ENDBRANCH   1  11
TORSDOF 4
ENDMDL
MODEL 6
REMARK VINA RESULT:      -6.3     28.919     30.186
REMARK  Name = 
REMARK  4 active torsions:
REMARK  status: ('A' for Active; 'I' for Inactive)
REMARK    1  A    between atoms: O_2  and  C_3
REMARK    2  A    between atoms: C_5  and  O_6
REMARK    3  A    between atoms: O_6  and  C_7
REMARK    4  A    between atoms: C_10  and  C_11
REMARK                            x       y       z     vdW  Elec       q    Type
REMARK                         _______ _______ _______ _____ _____    ______ ____
ROOT
ATOM      1  O   UNL     1      32.278  20.479  11.455  0.00  0.00    +0.000 OA
ENDROOT
BRANCH   1   4
ATOM      2  C   UNL     1      35.929  20.927  11.422  0.00  0.00    +0.000 A 
ATOM      3  C   UNL     1      34.680  20.385  11.629  0.00  0.00    +0.000 A 
ATOM      4  C   UNL     1      33.526  21.029  11.244  0.00  0.00    +0.000 A 
ATOM      5  N   UNL     1      33.696  22.230  10.650  0.00  0.00    +0.000 NA
ATOM      6  C   UNL     1      34.891  22.797  10.429  0.00  0.00    +0.000 A 
ATOM      7  N   UNL     1      35.015  24.075   9.792  0.00  0.00    +0.000 NA
ATOM      8  N   UNL     1      36.009  22.126  10.825  0.00  0.00    +0.000 NA
BRANCH   2  10
ATOM      9  C   UNL     1      36.885  18.933  12.369  0.00  0.00    +0.000 C 
ATOM     10  O   UNL     1      37.050  20.231  11.833  0.00  0.00    +0.000 OA
ENDBRANCH   2  10
ENDBRANCH   1   4
BRANCH   1  11
ATOM     11  C   UNL     1      31.109  21.197  11.574  0.00  0.00    +0.000 A 
ATOM     12  C   UNL     1      30.914  21.928  12.754  0.00  0.00    +0.000 A 
ATOM     13  C   UNL     1      29.761  22.660  12.914  0.00  0.00    +0.000 A 
ATOM     14  C   UNL     1      28.772  22.702  11.940  0.00  0.00    +0.000 A 
ATOM     15  C   UNL     1      29.018  21.965  10.803  0.00  0.00    +0.000 A 
ATOM     16  C   UNL     1      30.156  21.213  10.587  0.00  0.00    +0.000 A 
ATOM     17  C   UNL     1      30.332  20.433   9.311  0.00  0.00    +0.000 C 
BRANCH  14  18
ATOM     18  C   UNL     1      27.521  23.499  12.119  0.00  0.00    +0.000 C 
ATOM     19  C   UNL     1      27.247  23.540  13.612  0.00  0.00    +0.000 C 
ATOM     20  C   UNL     1      26.395  22.685  11.491  0.00  0.00    +0.000 C 
ENDBRANCH  14  18
ENDBRANCH   1  11
TORSDOF 4
ENDMDL
MODEL 7
REMARK VINA RESULT:      -6.1     21.146     22.713
REMARK  Name = 
REMARK  4 active torsions:
REMARK  status: ('A' for Active; 'I' for Inactive)
REMARK    1  A    between atoms: O_2  and  C_3
REMARK    2  A    between atoms: C_5  and  O_6
REMARK    3  A    between atoms: O_6  and  C_7
REMARK    4  A    between atoms: C_10  and  C_11
REMARK                            x       y       z     vdW  Elec       q    Type
REMARK                         _______ _______ _______ _____ _____    ______ ____
ROOT
ATOM      1  O   UNL     1      18.504  -7.765  27.299  0.00  0.00    +0.000 OA
ENDROOT
BRANCH   1   4
ATOM      2  C   UNL     1      15.361  -8.665  25.614  0.00  0.00    +0.000 A 
ATOM      3  C   UNL     1      16.508  -7.990  25.969  0.00  0.00    +0.000 A 
ATOM      4  C   UNL     1      17.357  -8.449  26.950  0.00  0.00    +0.000 A 
ATOM      5  N   UNL     1      16.994  -9.605  27.545  0.00  0.00    +0.000 NA
ATOM      6  C   UNL     1      15.887 -10.296  27.234  0.00  0.00    +0.000 A 
ATOM      7  N   UNL     1      15.550 -11.521  27.897  0.00  0.00    +0.000 NA
ATOM      8  N   UNL     1      15.074  -9.808  26.256  0.00  0.00    +0.000 NA
BRANCH   2  10
ATOM      9  C   UNL     1      14.536  -8.787  23.358  0.00  0.00    +0.000 C 
ATOM     10  O   UNL     1      14.548  -8.152  24.621  0.00  0.00    +0.000 OA
ENDBRANCH   2  10
ENDBRANCH   1   4
BRANCH   1  11
ATOM     11  C   UNL     1      19.641  -7.684  26.526  0.00  0.00    +0.000 A 
ATOM     12  C   UNL     1      20.383  -8.859  26.340  0.00  0.00    +0.000 A 
ATOM     13  C   UNL     1      21.525  -8.824  25.573  0.00  0.00    +0.000 A 
ATOM     14  C   UNL     1      21.974  -7.657  24.971  0.00  0.00    +0.000 A 
ATOM     15  C   UNL     1      21.205  -6.535  25.189  0.00  0.00    +0.000 A 
ATOM     16  C   UNL     1      20.051  -6.511  25.947  0.00  0.00    +0.000 A 
ATOM     17  C   UNL     1      19.280  -5.231  26.133  0.00  0.00    +0.000 C 
BRANCH  14  18
ATOM     18  C   UNL     1      23.215  -7.624  24.140  0.00  0.00    +0.000 C 
ATOM     19  C   UNL     1      23.887  -6.292  24.423  0.00  0.00    +0.000 C 
ATOM     20  C   UNL     1      22.763  -7.585  22.686  0.00  0.00    +0.000 C 
ENDBRANCH  14  18
ENDBRANCH   1  11
TORSDOF 4
ENDMDL
MODEL 8
REMARK VINA RESULT:      -6.1     20.065     21.635
REMARK  Name = 
REMARK  4 active torsions:
REMARK  status: ('A' for Active; 'I' for Inactive)
REMARK    1  A    between atoms: O_2  and  C_3
REMARK    2  A    between atoms: C_5  and  O_6
REMARK    3  A    between atoms: O_6  and  C_7
REMARK    4  A    between atoms: C_10  and  C_11
REMARK                            x       y       z     vdW  Elec       q    Type
REMARK                         _______ _______ _______ _____ _____    ______ ____
ROOT
ATOM      1  O   UNL     1      30.547  23.088  23.709  0.00  0.00    +0.000 OA
ENDROOT
BRANCH   1   4
ATOM      2  C   UNL     1      28.457  25.660  22.115  0.00  0.00    +0.000 A 
ATOM      3  C   UNL     1      29.539  25.013  22.669  0.00  0.00    +0.000 A 
ATOM      4  C   UNL     1      29.457  23.728  23.155  0.00  0.00    +0.000 A 
ATOM      5  N   UNL     1      28.246  23.140  23.055  0.00  0.00    +0.000 NA
ATOM      6  C   UNL     1      27.165  23.731  22.524  0.00  0.00    +0.000 A 
ATOM      7  N   UNL     1      25.902  23.059  22.441  0.00  0.00    +0.000 NA
ATOM      8  N   UNL     1      27.289  25.004  22.054  0.00  0.00    +0.000 NA
BRANCH   2  10
ATOM      9  C   UNL     1      29.383  27.170  20.487  0.00  0.00    +0.000 C 
ATOM     10  O   UNL     1      28.603  26.952  21.646  0.00  0.00    +0.000 OA
ENDBRANCH   2  10
ENDBRANCH   1   4
BRANCH   1  11
ATOM     11  C   UNL     1      30.843  23.056  25.054  0.00  0.00    +0.000 A 
ATOM     12  C   UNL     1      30.078  22.207  25.866  0.00  0.00    +0.000 A 
ATOM     13  C   UNL     1      30.340  22.142  27.214  0.00  0.00    +0.000 A 
ATOM     14  C   UNL     1      31.345  22.895  27.808  0.00  0.00    +0.000 A 
ATOM     15  C   UNL     1      32.063  23.711  26.961  0.00  0.00    +0.000 A 
ATOM     16  C   UNL     1      31.845  23.815  25.602  0.00  0.00    +0.000 A 
ATOM     17  C   UNL     1      32.680  24.742  24.758  0.00  0.00    +0.000 C 
BRANCH  14  18
ATOM     18  C   UNL     1      31.625  22.822  29.273  0.00  0.00    +0.000 C 
ATOM     19  C   UNL     1      32.371  21.520  29.504  0.00  0.00    +0.000 C 
ATOM     20  C   UNL     1      30.275  22.681  29.966  0.00  0.00    +0.000 C 
ENDBRANCH  14  18
ENDBRANCH   1  11
TORSDOF 4
ENDMDL
MODEL 9
REMARK VINA RESULT:      -6.1      2.340      3.681
REMARK  Name = 
REMARK  4 active torsions:
REMARK  status: ('A' for Active; 'I' for Inactive)
REMARK    1  A    between atoms: O_2  and  C_3
REMARK    2  A    between atoms: C_5  and  O_6
REMARK    3  A    between atoms: O_6  and  C_7
REMARK    4  A    between atoms: C_10  and  C_11
REMARK                            x       y       z     vdW  Elec       q    Type
REMARK                         _______ _______ _______ _____ _____    ______ ____
ROOT
ATOM      1  O   UNL     1      18.728   9.487  36.996  0.00  0.00    +0.000 OA
ENDROOT
BRANCH   1   4
ATOM      2  C   UNL     1      21.386  11.712  38.226  0.00  0.00    +0.000 A 
ATOM      3  C   UNL     1      20.155  11.123  38.041  0.00  0.00    +0.000 A 
ATOM      4  C   UNL     1      19.966  10.070  37.175  0.00  0.00    +0.000 A 
ATOM      5  N   UNL     1      21.067   9.648  36.517  0.00  0.00    +0.000 NA
ATOM      6  C   UNL     1      22.285  10.190  36.665  0.00  0.00    +0.000 A 
ATOM      7  N   UNL     1      23.422   9.701  35.942  0.00  0.00    +0.000 NA
ATOM      8  N   UNL     1      22.429  11.231  37.532  0.00  0.00    +0.000 NA
BRANCH   2  10
ATOM      9  C   UNL     1      22.339  13.857  38.753  0.00  0.00    +0.000 C 
ATOM     10  O   UNL     1      21.511  12.768  39.109  0.00  0.00    +0.000 OA
ENDBRANCH   2  10
ENDBRANCH   1   4
BRANCH   1  11
ATOM     11  C   UNL     1      17.534  10.171  36.946  0.00  0.00    +0.000 A 
ATOM     12  C   UNL     1      16.867  10.400  38.158  0.00  0.00    +0.000 A 
ATOM     13  C   UNL     1      15.672  11.081  38.156  0.00  0.00    +0.000 A 
ATOM     14  C   UNL     1      15.095  11.554  36.985  0.00  0.00    +0.000 A 
ATOM     15  C   UNL     1      15.794  11.300  35.826  0.00  0.00    +0.000 A 
ATOM     16  C   UNL     1      16.997  10.624  35.768  0.00  0.00    +0.000 A 
ATOM     17  C   UNL     1      17.684  10.388  34.449  0.00  0.00    +0.000 C 
BRANCH  14  18
ATOM     18  C   UNL     1      13.796  12.292  36.988  0.00  0.00    +0.000 C 
ATOM     19  C   UNL     1      12.703  11.238  37.017  0.00  0.00    +0.000 C 
ATOM     20  C   UNL     1      13.692  12.992  35.638  0.00  0.00    +0.000 C 
ENDBRANCH  14  18
ENDBRANCH   1  11
TORSDOF 4
ENDMDL
MODEL 10
REMARK VINA RESULT:      -6.0      3.377      5.799
REMARK  Name = 
REMARK  4 active torsions:
REMARK  status: ('A' for Active; 'I' for Inactive)
REMARK    1  A    between atoms: O_2  and  C_3
REMARK    2  A    between atoms: C_5  and  O_6
REMARK    3  A    between atoms: O_6  and  C_7
REMARK    4  A    between atoms: C_10  and  C_11
REMARK                            x       y       z     vdW  Elec       q    Type
REMARK                         _______ _______ _______ _____ _____    ______ ____
ROOT
ATOM      1  O   UNL     1      19.378   9.610  37.094  0.00  0.00    +0.000 OA
ENDROOT
BRANCH   1   4
ATOM      2  C   UNL     1      22.149  11.815  38.089  0.00  0.00    +0.000 A 
ATOM      3  C   UNL     1      20.896  11.250  37.995  0.00  0.00    +0.000 A 
ATOM      4  C   UNL     1      20.636  10.169  37.183  0.00  0.00    +0.000 A 
ATOM      5  N   UNL     1      21.689   9.697  36.482  0.00  0.00    +0.000 NA
ATOM      6  C   UNL     1      22.925  10.215  36.541  0.00  0.00    +0.000 A 
ATOM      7  N   UNL     1      24.009   9.673  35.775  0.00  0.00    +0.000 NA
ATOM      8  N   UNL     1      23.140  11.284  37.358  0.00  0.00    +0.000 NA
BRANCH   2  10
ATOM      9  C   UNL     1      21.403  13.953  38.900  0.00  0.00    +0.000 C 
ATOM     10  O   UNL     1      22.345  12.900  38.922  0.00  0.00    +0.000 OA
ENDBRANCH   2  10
ENDBRANCH   1   4
BRANCH   1  11
ATOM     11  C   UNL     1      18.473   9.535  38.130  0.00  0.00    +0.000 A 
ATOM     12  C   UNL     1      18.725   8.601  39.145  0.00  0.00    +0.000 A 
ATOM     13  C   UNL     1      17.849   8.494  40.199  0.00  0.00    +0.000 A 
ATOM     14  C   UNL     1      16.711   9.283  40.297  0.00  0.00    +0.000 A 
ATOM     15  C   UNL     1      16.515  10.182  39.272  0.00  0.00    +0.000 A 
ATOM     16  C   UNL     1      17.360  10.335  38.191  0.00  0.00    +0.000 A 
ATOM     17  C   UNL     1      17.057  11.342  37.113  0.00  0.00    +0.000 C 
BRANCH  14  18
ATOM     18  C   UNL     1      15.762   9.162  41.444  0.00  0.00    +0.000 C 
ATOM     19  C   UNL     1      16.450   9.795  42.641  0.00  0.00    +0.000 C 
ATOM     20  C   UNL     1      15.638   7.674  41.749  0.00  0.00    +0.000 C 
ENDBRANCH  14  18
ENDBRANCH   1  11
TORSDOF 4
ENDMDL
