MODEL 1
REMARK VINA RESULT:      -7.2      0.000      0.000
REMARK  Name = 
REMARK  9 active torsions:
REMARK  status: ('A' for Active; 'I' for Inactive)
REMARK    1  A    between atoms: C_2  and  C_4
REMARK    2  A    between atoms: C_7  and  C_8
REMARK    3  A    between atoms: C_8  and  C_9
REMARK    4  A    between atoms: C_9  and  N_10
REMARK    5  A    between atoms: C_14  and  C_15
REMARK    6  A    between atoms: C_15  and  O_16
REMARK    7  A    between atoms: O_16  and  C_17
REMARK    8  A    between atoms: C_17  and  C_18
REMARK    9  A    between atoms: C_17  and  C_24
REMARK                            x       y       z     vdW  Elec       q    Type
REMARK                         _______ _______ _______ _____ _____    ______ ____
ROOT
ATOM      1  N   UNL     1      36.822  -1.973  17.538  0.00  0.00    +0.000 NA
ATOM      2  C   UNL     1      37.142  -1.397  18.828  0.00  0.00    +0.000 C 
ATOM      3  C   UNL     1      35.983  -0.421  19.105  0.00  0.00    +0.000 C 
ATOM      4  C   UNL     1      35.748   0.257  17.784  0.00  0.00    +0.000 C 
ATOM      5  C   UNL     1      34.771  -0.734  16.907  0.00  0.00    +0.000 C 
ATOM      6  C   UNL     1      35.410  -2.137  17.483  0.00  0.00    +0.000 C 
ENDROOT
BRANCH   1   7
ATOM      7  C   UNL     1      37.566  -3.109  17.161  0.00  0.00    +0.000 C 
BRANCH   7   8
ATOM      8  C   UNL     1      39.030  -2.865  16.983  0.00  0.00    +0.000 C 
BRANCH   8  12
ATOM      9  C   UNL     1      40.273  -2.806  12.887  0.00  0.00    +0.000 A 
ATOM     10  C   UNL     1      38.945  -2.838  13.232  0.00  0.00    +0.000 A 
ATOM     11  C   UNL     1      38.534  -2.857  14.548  0.00  0.00    +0.000 A 
ATOM     12  C   UNL     1      39.455  -2.845  15.576  0.00  0.00    +0.000 A 
ATOM     13  C   UNL     1      40.812  -2.812  15.245  0.00  0.00    +0.000 A 
ATOM     14  C   UNL     1      41.191  -2.794  13.929  0.00  0.00    +0.000 A 
BRANCH   9  16
ATOM     15  C   UNL     1      42.122  -2.741  11.117  0.00  0.00    +0.000 C 
ATOM     16  C   UNL     1      40.674  -2.786  11.505  0.00  0.00    +0.000 C 
ATOM     17  O   UNL     1      39.812  -2.806  10.607  0.00  0.00    +0.000 OA
ENDBRANCH   9  16
ENDBRANCH   8  12
ENDBRANCH   7   8
ENDBRANCH   1   7
BRANCH   5  18
ATOM     18  C   UNL     1      35.756  -0.719  15.588  0.00  0.00    +0.000 C 
BRANCH  18  19
ATOM     19  O   UNL     1      36.432   0.472  15.616  0.00  0.00    +0.000 OA
BRANCH  19  20
ATOM     20  C   UNL     1      36.502   0.976  14.319  0.00  0.00    +0.000 C 
BRANCH  20  21
ATOM     21  C   UNL     1      36.017   2.382  14.264  0.00  0.00    +0.000 A 
ATOM     22  C   UNL     1      34.906   2.841  14.937  0.00  0.00    +0.000 A 
ATOM     23  C   UNL     1      34.494   4.160  14.856  0.00  0.00    +0.000 A 
ATOM     24  C   UNL     1      35.190   5.056  14.093  0.00  0.00    +0.000 A 
ATOM     25  C   UNL     1      36.306   4.626  13.408  0.00  0.00    +0.000 A 
ATOM     26  C   UNL     1      36.696   3.327  13.501  0.00  0.00    +0.000 A 
ENDBRANCH  20  21
BRANCH  20  27
ATOM     27  C   UNL     1      37.905   0.894  13.889  0.00  0.00    +0.000 A 
ATOM     28  C   UNL     1      38.928   0.935  14.781  0.00  0.00    +0.000 A 
ATOM     29  C   UNL     1      40.255   0.852  14.325  0.00  0.00    +0.000 A 
ATOM     30  C   UNL     1      40.536   0.730  12.981  0.00  0.00    +0.000 A 
ATOM     31  C   UNL     1      39.502   0.689  12.090  0.00  0.00    +0.000 A 
ATOM     32  C   UNL     1      38.187   0.772  12.550  0.00  0.00    +0.000 A 
ENDBRANCH  20  27
ENDBRANCH  19  20
ENDBRANCH  18  19
ENDBRANCH   5  18
TORSDOF 9
ENDMDL
MODEL 2
REMARK VINA RESULT:      -7.1      4.473      7.644
REMARK  Name = 
REMARK  9 active torsions:
REMARK  status: ('A' for Active; 'I' for Inactive)
REMARK    1  A    between atoms: C_2  and  C_4
REMARK    2  A    between atoms: C_7  and  C_8
REMARK    3  A    between atoms: C_8  and  C_9
REMARK    4  A    between atoms: C_9  and  N_10
REMARK    5  A    between atoms: C_14  and  C_15
REMARK    6  A    between atoms: C_15  and  O_16
REMARK    7  A    between atoms: O_16  and  C_17
REMARK    8  A    between atoms: C_17  and  C_18
REMARK    9  A    between atoms: C_17  and  C_24
REMARK                            x       y       z     vdW  Elec       q    Type
REMARK                         _______ _______ _______ _____ _____    ______ ____
ROOT
ATOM      1  N   UNL     1      36.886   3.028  16.184  0.00  0.00    +0.000 NA
ATOM      2  C   UNL     1      36.737   3.648  14.883  0.00  0.00    +0.000 C 
ATOM      3  C   UNL     1      35.590   2.863  14.218  0.00  0.00    +0.000 C 
ATOM      4  C   UNL     1      35.871   1.429  14.570  0.00  0.00    +0.000 C 
ATOM      5  C   UNL     1      35.245   1.175  16.070  0.00  0.00    +0.000 C 
ATOM      6  C   UNL     1      35.584   2.681  16.641  0.00  0.00    +0.000 C 
ENDROOT
BRANCH   1   7
ATOM      7  C   UNL     1      37.677   3.725  17.119  0.00  0.00    +0.000 C 
BRANCH   7   8
ATOM      8  C   UNL     1      38.369   4.932  16.573  0.00  0.00    +0.000 C 
BRANCH   8  12
ATOM      9  C   UNL     1      41.293   6.573  19.236  0.00  0.00    +0.000 A 
ATOM     10  C   UNL     1      41.553   6.411  17.898  0.00  0.00    +0.000 A 
ATOM     11  C   UNL     1      40.618   5.883  17.032  0.00  0.00    +0.000 A 
ATOM     12  C   UNL     1      39.374   5.496  17.486  0.00  0.00    +0.000 A 
ATOM     13  C   UNL     1      39.090   5.653  18.845  0.00  0.00    +0.000 A 
ATOM     14  C   UNL     1      40.038   6.180  19.682  0.00  0.00    +0.000 A 
BRANCH   9  16
ATOM     15  C   UNL     1      43.177   6.243  20.937  0.00  0.00    +0.000 C 
ATOM     16  C   UNL     1      42.286   7.127  20.117  0.00  0.00    +0.000 C 
ATOM     17  O   UNL     1      42.417   8.363  20.209  0.00  0.00    +0.000 OA
ENDBRANCH   9  16
ENDBRANCH   8  12
ENDBRANCH   7   8
ENDBRANCH   1   7
BRANCH   5  18
ATOM     18  C   UNL     1      36.640   0.534  16.664  0.00  0.00    +0.000 C 
BRANCH  18  19
ATOM     19  O   UNL     1      37.266  -0.085  15.614  0.00  0.00    +0.000 OA
BRANCH  19  20
ATOM     20  C   UNL     1      37.984  -1.174  16.102  0.00  0.00    +0.000 C 
BRANCH  20  21
ATOM     21  C   UNL     1      37.242  -2.446  15.884  0.00  0.00    +0.000 A 
ATOM     22  C   UNL     1      37.202  -3.480  16.793  0.00  0.00    +0.000 A 
ATOM     23  C   UNL     1      36.496  -4.646  16.545  0.00  0.00    +0.000 A 
ATOM     24  C   UNL     1      35.811  -4.802  15.373  0.00  0.00    +0.000 A 
ATOM     25  C   UNL     1      35.833  -3.784  14.443  0.00  0.00    +0.000 A 
ATOM     26  C   UNL     1      36.531  -2.648  14.705  0.00  0.00    +0.000 A 
ENDBRANCH  20  21
BRANCH  20  27
ATOM     27  C   UNL     1      39.276  -1.201  15.402  0.00  0.00    +0.000 A 
ATOM     28  C   UNL     1      40.060  -2.310  15.392  0.00  0.00    +0.000 A 
ATOM     29  C   UNL     1      41.287  -2.291  14.709  0.00  0.00    +0.000 A 
ATOM     30  C   UNL     1      41.711  -1.159  14.045  0.00  0.00    +0.000 A 
ATOM     31  C   UNL     1      40.919  -0.048  14.059  0.00  0.00    +0.000 A 
ATOM     32  C   UNL     1      39.700  -0.074  14.741  0.00  0.00    +0.000 A 
ENDBRANCH  20  27
ENDBRANCH  19  20
ENDBRANCH  18  19
ENDBRANCH   5  18
TORSDOF 9
ENDMDL
MODEL 3
REMARK VINA RESULT:      -7.1      2.169      2.718
REMARK  Name = 
REMARK  9 active torsions:
REMARK  status: ('A' for Active; 'I' for Inactive)
REMARK    1  A    between atoms: C_2  and  C_4
REMARK    2  A    between atoms: C_7  and  C_8
REMARK    3  A    between atoms: C_8  and  C_9
REMARK    4  A    between atoms: C_9  and  N_10
REMARK    5  A    between atoms: C_14  and  C_15
REMARK    6  A    between atoms: C_15  and  O_16
REMARK    7  A    between atoms: O_16  and  C_17
REMARK    8  A    between atoms: C_17  and  C_18
REMARK    9  A    between atoms: C_17  and  C_24
REMARK                            x       y       z     vdW  Elec       q    Type
REMARK                         _______ _______ _______ _____ _____    ______ ____
ROOT
ATOM      1  N   UNL     1      35.992  -1.375  17.006  0.00  0.00    +0.000 NA
ATOM      2  C   UNL     1      36.411  -1.663  18.363  0.00  0.00    +0.000 C 
ATOM      3  C   UNL     1      35.911  -0.455  19.178  0.00  0.00    +0.000 C 
ATOM      4  C   UNL     1      36.224   0.731  18.310  0.00  0.00    +0.000 C 
ATOM      5  C   UNL     1      34.985   0.877  17.238  0.00  0.00    +0.000 C 
ATOM      6  C   UNL     1      34.721  -0.740  17.079  0.00  0.00    +0.000 C 
ENDROOT
BRANCH   1   7
ATOM      7  C   UNL     1      36.069  -2.444  16.091  0.00  0.00    +0.000 C 
BRANCH   7   8
ATOM      8  C   UNL     1      36.470  -2.051  14.706  0.00  0.00    +0.000 C 
BRANCH   8  12
ATOM      9  C   UNL     1      40.676  -2.399  13.982  0.00  0.00    +0.000 A 
ATOM     10  C   UNL     1      39.756  -2.653  12.996  0.00  0.00    +0.000 A 
ATOM     11  C   UNL     1      38.399  -2.543  13.219  0.00  0.00    +0.000 A 
ATOM     12  C   UNL     1      37.914  -2.171  14.456  0.00  0.00    +0.000 A 
ATOM     13  C   UNL     1      38.835  -1.908  15.473  0.00  0.00    +0.000 A 
ATOM     14  C   UNL     1      40.176  -2.025  15.223  0.00  0.00    +0.000 A 
BRANCH   9  16
ATOM     15  C   UNL     1      43.083  -1.647  14.424  0.00  0.00    +0.000 C 
ATOM     16  C   UNL     1      42.086  -2.520  13.723  0.00  0.00    +0.000 C 
ATOM     17  O   UNL     1      42.497  -3.363  12.902  0.00  0.00    +0.000 OA
ENDBRANCH   9  16
ENDBRANCH   8  12
ENDBRANCH   7   8
ENDBRANCH   1   7
BRANCH   5  18
ATOM     18  C   UNL     1      35.979   0.937  15.927  0.00  0.00    +0.000 C 
BRANCH  18  19
ATOM     19  O   UNL     1      37.105   1.612  16.320  0.00  0.00    +0.000 OA
BRANCH  19  20
ATOM     20  C   UNL     1      37.378   2.606  15.383  0.00  0.00    +0.000 C 
BRANCH  20  21
ATOM     21  C   UNL     1      38.061   3.766  16.018  0.00  0.00    +0.000 A 
ATOM     22  C   UNL     1      38.742   4.737  15.316  0.00  0.00    +0.000 A 
ATOM     23  C   UNL     1      39.362   5.800  15.951  0.00  0.00    +0.000 A 
ATOM     24  C   UNL     1      39.315   5.914  17.313  0.00  0.00    +0.000 A 
ATOM     25  C   UNL     1      38.641   4.958  18.042  0.00  0.00    +0.000 A 
ATOM     26  C   UNL     1      38.038   3.923  17.400  0.00  0.00    +0.000 A 
ENDBRANCH  20  21
BRANCH  20  27
ATOM     27  C   UNL     1      38.228   2.010  14.342  0.00  0.00    +0.000 A 
ATOM     28  C   UNL     1      37.757   1.761  13.093  0.00  0.00    +0.000 A 
ATOM     29  C   UNL     1      38.605   1.191  12.129  0.00  0.00    +0.000 A 
ATOM     30  C   UNL     1      39.913   0.878  12.432  0.00  0.00    +0.000 A 
ATOM     31  C   UNL     1      40.380   1.131  13.690  0.00  0.00    +0.000 A 
ATOM     32  C   UNL     1      39.531   1.698  14.643  0.00  0.00    +0.000 A 
ENDBRANCH  20  27
ENDBRANCH  19  20
ENDBRANCH  18  19
ENDBRANCH   5  18
TORSDOF 9
ENDMDL
MODEL 4
REMARK VINA RESULT:      -7.0      1.815      6.303
REMARK  Name = 
REMARK  9 active torsions:
REMARK  status: ('A' for Active; 'I' for Inactive)
REMARK    1  A    between atoms: C_2  and  C_4
REMARK    2  A    between atoms: C_7  and  C_8
REMARK    3  A    between atoms: C_8  and  C_9
REMARK    4  A    between atoms: C_9  and  N_10
REMARK    5  A    between atoms: C_14  and  C_15
REMARK    6  A    between atoms: C_15  and  O_16
REMARK    7  A    between atoms: O_16  and  C_17
REMARK    8  A    between atoms: C_17  and  C_18
REMARK    9  A    between atoms: C_17  and  C_24
REMARK                            x       y       z     vdW  Elec       q    Type
REMARK                         _______ _______ _______ _____ _____    ______ ____
ROOT
ATOM      1  N   UNL     1      36.229  -1.380  17.160  0.00  0.00    +0.000 NA
ATOM      2  C   UNL     1      35.131  -1.968  16.420  0.00  0.00    +0.000 C 
ATOM      3  C   UNL     1      35.509  -3.456  16.298  0.00  0.00    +0.000 C 
ATOM      4  C   UNL     1      36.978  -3.439  15.981  0.00  0.00    +0.000 C 
ATOM      5  C   UNL     1      37.774  -3.301  17.414  0.00  0.00    +0.000 C 
ATOM      6  C   UNL     1      36.649  -2.334  18.128  0.00  0.00    +0.000 C 
ENDROOT
BRANCH   1   7
ATOM      7  C   UNL     1      36.017  -0.080  17.661  0.00  0.00    +0.000 C 
BRANCH   7   8
ATOM      8  C   UNL     1      34.931   0.683  16.975  0.00  0.00    +0.000 C 
BRANCH   8  12
ATOM      9  C   UNL     1      36.315   4.216  14.992  0.00  0.00    +0.000 A 
ATOM     10  C   UNL     1      35.097   3.658  14.695  0.00  0.00    +0.000 A 
ATOM     11  C   UNL     1      34.642   2.520  15.327  0.00  0.00    +0.000 A 
ATOM     12  C   UNL     1      35.405   1.896  16.293  0.00  0.00    +0.000 A 
ATOM     13  C   UNL     1      36.648   2.449  16.611  0.00  0.00    +0.000 A 
ATOM     14  C   UNL     1      37.074   3.579  15.966  0.00  0.00    +0.000 A 
BRANCH   9  16
ATOM     15  C   UNL     1      36.569   5.580  12.841  0.00  0.00    +0.000 C 
ATOM     16  C   UNL     1      36.765   5.404  14.317  0.00  0.00    +0.000 C 
ATOM     17  O   UNL     1      37.330   6.309  14.961  0.00  0.00    +0.000 OA
ENDBRANCH   9  16
ENDBRANCH   8  12
ENDBRANCH   7   8
ENDBRANCH   1   7
BRANCH   5  18
ATOM     18  C   UNL     1      38.686  -2.025  16.911  0.00  0.00    +0.000 C 
BRANCH  18  19
ATOM     19  O   UNL     1      38.663  -2.044  15.541  0.00  0.00    +0.000 OA
BRANCH  19  20
ATOM     20  C   UNL     1      39.571  -1.099  15.068  0.00  0.00    +0.000 C 
BRANCH  20  21
ATOM     21  C   UNL     1      40.650  -1.745  14.272  0.00  0.00    +0.000 A 
ATOM     22  C   UNL     1      40.427  -2.703  13.307  0.00  0.00    +0.000 A 
ATOM     23  C   UNL     1      41.465  -3.275  12.591  0.00  0.00    +0.000 A 
ATOM     24  C   UNL     1      42.757  -2.899  12.827  0.00  0.00    +0.000 A 
ATOM     25  C   UNL     1      43.011  -1.942  13.787  0.00  0.00    +0.000 A 
ATOM     26  C   UNL     1      41.980  -1.392  14.479  0.00  0.00    +0.000 A 
ENDBRANCH  20  21
BRANCH  20  27
ATOM     27  C   UNL     1      38.821  -0.141  14.243  0.00  0.00    +0.000 A 
ATOM     28  C   UNL     1      39.376   1.024  13.819  0.00  0.00    +0.000 A 
ATOM     29  C   UNL     1      38.622   1.910  13.031  0.00  0.00    +0.000 A 
ATOM     30  C   UNL     1      37.321   1.615  12.681  0.00  0.00    +0.000 A 
ATOM     31  C   UNL     1      36.769   0.443  13.111  0.00  0.00    +0.000 A 
ATOM     32  C   UNL     1      37.525  -0.432  13.894  0.00  0.00    +0.000 A 
ENDBRANCH  20  27
ENDBRANCH  19  20
ENDBRANCH  18  19
ENDBRANCH   5  18
TORSDOF 9
ENDMDL
MODEL 5
REMARK VINA RESULT:      -6.9      4.719      8.162
REMARK  Name = 
REMARK  9 active torsions:
REMARK  status: ('A' for Active; 'I' for Inactive)
REMARK    1  A    between atoms: C_2  and  C_4
REMARK    2  A    between atoms: C_7  and  C_8
REMARK    3  A    between atoms: C_8  and  C_9
REMARK    4  A    between atoms: C_9  and  N_10
REMARK    5  A    between atoms: C_14  and  C_15
REMARK    6  A    between atoms: C_15  and  O_16
REMARK    7  A    between atoms: O_16  and  C_17
REMARK    8  A    between atoms: C_17  and  C_18
REMARK    9  A    between atoms: C_17  and  C_24
REMARK                            x       y       z     vdW  Elec       q    Type
REMARK                         _______ _______ _______ _____ _____    ______ ____
ROOT
ATOM      1  N   UNL     1      37.415   3.833  15.899  0.00  0.00    +0.000 NA
ATOM      2  C   UNL     1      36.934   4.925  15.078  0.00  0.00    +0.000 C 
ATOM      3  C   UNL     1      35.738   4.327  14.314  0.00  0.00    +0.000 C 
ATOM      4  C   UNL     1      36.207   2.958  13.908  0.00  0.00    +0.000 C 
ATOM      5  C   UNL     1      35.949   1.964  15.193  0.00  0.00    +0.000 C 
ATOM      6  C   UNL     1      36.279   3.098  16.340  0.00  0.00    +0.000 C 
ENDROOT
BRANCH   1   7
ATOM      7  C   UNL     1      38.332   4.174  16.914  0.00  0.00    +0.000 C 
BRANCH   7   8
ATOM      8  C   UNL     1      38.528   5.642  17.110  0.00  0.00    +0.000 C 
BRANCH   8  12
ATOM      9  C   UNL     1      41.942   6.608  19.505  0.00  0.00    +0.000 A 
ATOM     10  C   UNL     1      40.717   6.358  20.071  0.00  0.00    +0.000 A 
ATOM     11  C   UNL     1      39.612   6.046  19.309  0.00  0.00    +0.000 A 
ATOM     12  C   UNL     1      39.699   5.974  17.934  0.00  0.00    +0.000 A 
ATOM     13  C   UNL     1      40.938   6.225  17.338  0.00  0.00    +0.000 A 
ATOM     14  C   UNL     1      42.019   6.533  18.120  0.00  0.00    +0.000 A 
BRANCH   9  16
ATOM     15  C   UNL     1      43.373   6.169  21.583  0.00  0.00    +0.000 C 
ATOM     16  C   UNL     1      43.080   6.931  20.325  0.00  0.00    +0.000 C 
ATOM     17  O   UNL     1      43.842   7.858  19.993  0.00  0.00    +0.000 OA
ENDBRANCH   9  16
ENDBRANCH   8  12
ENDBRANCH   7   8
ENDBRANCH   1   7
BRANCH   5  18
ATOM     18  C   UNL     1      37.488   1.382  15.193  0.00  0.00    +0.000 C 
BRANCH  18  19
ATOM     19  O   UNL     1      37.441   0.150  15.792  0.00  0.00    +0.000 OA
BRANCH  19  20
ATOM     20  C   UNL     1      37.385  -0.826  14.799  0.00  0.00    +0.000 C 
BRANCH  20  21
ATOM     21  C   UNL     1      38.691  -1.526  14.662  0.00  0.00    +0.000 A 
ATOM     22  C   UNL     1      39.280  -2.261  15.667  0.00  0.00    +0.000 A 
ATOM     23  C   UNL     1      40.498  -2.896  15.492  0.00  0.00    +0.000 A 
ATOM     24  C   UNL     1      41.159  -2.807  14.298  0.00  0.00    +0.000 A 
ATOM     25  C   UNL     1      40.594  -2.077  13.274  0.00  0.00    +0.000 A 
ATOM     26  C   UNL     1      39.398  -1.462  13.464  0.00  0.00    +0.000 A 
ENDBRANCH  20  21
BRANCH  20  27
ATOM     27  C   UNL     1      36.325  -1.774  15.171  0.00  0.00    +0.000 A 
ATOM     28  C   UNL     1      35.533  -1.569  16.255  0.00  0.00    +0.000 A 
ATOM     29  C   UNL     1      34.532  -2.502  16.573  0.00  0.00    +0.000 A 
ATOM     30  C   UNL     1      34.339  -3.627  15.800  0.00  0.00    +0.000 A 
ATOM     31  C   UNL     1      35.139  -3.827  14.712  0.00  0.00    +0.000 A 
ATOM     32  C   UNL     1      36.133  -2.895  14.402  0.00  0.00    +0.000 A 
ENDBRANCH  20  27
ENDBRANCH  19  20
ENDBRANCH  18  19
ENDBRANCH   5  18
TORSDOF 9
ENDMDL
MODEL 6
REMARK VINA RESULT:      -6.8      3.924      7.245
REMARK  Name = 
REMARK  9 active torsions:
REMARK  status: ('A' for Active; 'I' for Inactive)
REMARK    1  A    between atoms: C_2  and  C_4
REMARK    2  A    between atoms: C_7  and  C_8
REMARK    3  A    between atoms: C_8  and  C_9
REMARK    4  A    between atoms: C_9  and  N_10
REMARK    5  A    between atoms: C_14  and  C_15
REMARK    6  A    between atoms: C_15  and  O_16
REMARK    7  A    between atoms: O_16  and  C_17
REMARK    8  A    between atoms: C_17  and  C_18
REMARK    9  A    between atoms: C_17  and  C_24
REMARK                            x       y       z     vdW  Elec       q    Type
REMARK                         _______ _______ _______ _____ _____    ______ ____
ROOT
ATOM      1  N   UNL     1      35.121   6.362  14.092  0.00  0.00    +0.000 NA
ATOM      2  C   UNL     1      33.803   6.917  13.859  0.00  0.00    +0.000 C 
ATOM      3  C   UNL     1      34.040   8.438  13.790  0.00  0.00    +0.000 C 
ATOM      4  C   UNL     1      35.012   8.711  14.903  0.00  0.00    +0.000 C 
ATOM      5  C   UNL     1      36.515   8.399  14.311  0.00  0.00    +0.000 C 
ATOM      6  C   UNL     1      36.050   7.145  13.351  0.00  0.00    +0.000 C 
ENDROOT
BRANCH   1   7
ATOM      7  C   UNL     1      35.249   4.969  13.920  0.00  0.00    +0.000 C 
BRANCH   7   8
ATOM      8  C   UNL     1      34.555   4.146  14.957  0.00  0.00    +0.000 C 
BRANCH   8  12
ATOM      9  C   UNL     1      36.500   0.418  15.761  0.00  0.00    +0.000 A 
ATOM     10  C   UNL     1      36.118   1.260  16.775  0.00  0.00    +0.000 A 
ATOM     11  C   UNL     1      35.491   2.463  16.526  0.00  0.00    +0.000 A 
ATOM     12  C   UNL     1      35.223   2.866  15.234  0.00  0.00    +0.000 A 
ATOM     13  C   UNL     1      35.604   2.022  14.188  0.00  0.00    +0.000 A 
ATOM     14  C   UNL     1      36.225   0.834  14.464  0.00  0.00    +0.000 A 
BRANCH   9  16
ATOM     15  C   UNL     1      37.190  -1.939  15.036  0.00  0.00    +0.000 C 
ATOM     16  C   UNL     1      37.152  -0.832  16.048  0.00  0.00    +0.000 C 
ATOM     17  O   UNL     1      37.697  -1.010  17.153  0.00  0.00    +0.000 OA
ENDBRANCH   9  16
ENDBRANCH   8  12
ENDBRANCH   7   8
ENDBRANCH   1   7
BRANCH   5  18
ATOM     18  C   UNL     1      36.923   7.411  15.562  0.00  0.00    +0.000 C 
BRANCH  18  19
ATOM     19  O   UNL     1      38.170   6.916  15.281  0.00  0.00    +0.000 OA
BRANCH  19  20
ATOM     20  C   UNL     1      38.339   5.717  15.969  0.00  0.00    +0.000 C 
BRANCH  20  21
ATOM     21  C   UNL     1      38.763   4.627  15.049  0.00  0.00    +0.000 A 
ATOM     22  C   UNL     1      38.975   3.324  15.444  0.00  0.00    +0.000 A 
ATOM     23  C   UNL     1      39.370   2.343  14.549  0.00  0.00    +0.000 A 
ATOM     24  C   UNL     1      39.564   2.647  13.231  0.00  0.00    +0.000 A 
ATOM     25  C   UNL     1      39.360   3.943  12.806  0.00  0.00    +0.000 A 
ATOM     26  C   UNL     1      38.972   4.892  13.699  0.00  0.00    +0.000 A 
ENDBRANCH  20  21
BRANCH  20  27
ATOM     27  C   UNL     1      39.354   5.943  17.008  0.00  0.00    +0.000 A 
ATOM     28  C   UNL     1      40.639   6.252  16.694  0.00  0.00    +0.000 A 
ATOM     29  C   UNL     1      41.575   6.461  17.720  0.00  0.00    +0.000 A 
ATOM     30  C   UNL     1      41.210   6.358  19.046  0.00  0.00    +0.000 A 
ATOM     31  C   UNL     1      39.917   6.047  19.354  0.00  0.00    +0.000 A 
ATOM     32  C   UNL     1      38.991   5.840  18.328  0.00  0.00    +0.000 A 
ENDBRANCH  20  27
ENDBRANCH  19  20
ENDBRANCH  18  19
ENDBRANCH   5  18
TORSDOF 9
ENDMDL
MODEL 7
REMARK VINA RESULT:      -6.8      4.325      7.884
REMARK  Name = 
REMARK  9 active torsions:
REMARK  status: ('A' for Active; 'I' for Inactive)
REMARK    1  A    between atoms: C_2  and  C_4
REMARK    2  A    between atoms: C_7  and  C_8
REMARK    3  A    between atoms: C_8  and  C_9
REMARK    4  A    between atoms: C_9  and  N_10
REMARK    5  A    between atoms: C_14  and  C_15
REMARK    6  A    between atoms: C_15  and  O_16
REMARK    7  A    between atoms: O_16  and  C_17
REMARK    8  A    between atoms: C_17  and  C_18
REMARK    9  A    between atoms: C_17  and  C_24
REMARK                            x       y       z     vdW  Elec       q    Type
REMARK                         _______ _______ _______ _____ _____    ______ ____
ROOT
ATOM      1  N   UNL     1      37.177   3.351  15.433  0.00  0.00    +0.000 NA
ATOM      2  C   UNL     1      36.071   4.138  14.927  0.00  0.00    +0.000 C 
ATOM      3  C   UNL     1      34.873   3.169  14.951  0.00  0.00    +0.000 C 
ATOM      4  C   UNL     1      35.438   1.872  14.444  0.00  0.00    +0.000 C 
ATOM      5  C   UNL     1      36.138   1.121  15.729  0.00  0.00    +0.000 C 
ATOM      6  C   UNL     1      36.664   2.503  16.453  0.00  0.00    +0.000 C 
ENDROOT
BRANCH   1   7
ATOM      7  C   UNL     1      38.340   4.065  15.784  0.00  0.00    +0.000 C 
BRANCH   7   8
ATOM      8  C   UNL     1      38.101   5.260  16.649  0.00  0.00    +0.000 C 
BRANCH   8  12
ATOM      9  C   UNL     1      41.522   6.418  18.948  0.00  0.00    +0.000 A 
ATOM     10  C   UNL     1      40.343   6.057  19.550  0.00  0.00    +0.000 A 
ATOM     11  C   UNL     1      39.235   5.683  18.819  0.00  0.00    +0.000 A 
ATOM     12  C   UNL     1      39.275   5.658  17.440  0.00  0.00    +0.000 A 
ATOM     13  C   UNL     1      40.467   6.021  16.808  0.00  0.00    +0.000 A 
ATOM     14  C   UNL     1      41.550   6.389  17.559  0.00  0.00    +0.000 A 
BRANCH   9  16
ATOM     15  C   UNL     1      44.030   6.899  19.126  0.00  0.00    +0.000 C 
ATOM     16  C   UNL     1      42.663   6.804  19.735  0.00  0.00    +0.000 C 
ATOM     17  O   UNL     1      42.524   7.066  20.945  0.00  0.00    +0.000 OA
ENDBRANCH   9  16
ENDBRANCH   8  12
ENDBRANCH   7   8
ENDBRANCH   1   7
BRANCH   5  18
ATOM     18  C   UNL     1      37.566   0.876  14.949  0.00  0.00    +0.000 C 
BRANCH  18  19
ATOM     19  O   UNL     1      38.294   0.014  15.726  0.00  0.00    +0.000 OA
BRANCH  19  20
ATOM     20  C   UNL     1      38.683  -1.071  14.944  0.00  0.00    +0.000 C 
BRANCH  20  21
ATOM     21  C   UNL     1      40.135  -1.006  14.622  0.00  0.00    +0.000 A 
ATOM     22  C   UNL     1      40.987  -2.086  14.686  0.00  0.00    +0.000 A 
ATOM     23  C   UNL     1      42.333  -1.976  14.376  0.00  0.00    +0.000 A 
ATOM     24  C   UNL     1      42.858  -0.774  13.994  0.00  0.00    +0.000 A 
ATOM     25  C   UNL     1      42.029   0.326  13.921  0.00  0.00    +0.000 A 
ATOM     26  C   UNL     1      40.712   0.198  14.228  0.00  0.00    +0.000 A 
ENDBRANCH  20  21
BRANCH  20  27
ATOM     27  C   UNL     1      38.374  -2.294  15.699  0.00  0.00    +0.000 A 
ATOM     28  C   UNL     1      37.639  -3.299  15.159  0.00  0.00    +0.000 A 
ATOM     29  C   UNL     1      37.368  -4.451  15.918  0.00  0.00    +0.000 A 
ATOM     30  C   UNL     1      37.839  -4.577  17.207  0.00  0.00    +0.000 A 
ATOM     31  C   UNL     1      38.578  -3.562  17.744  0.00  0.00    +0.000 A 
ATOM     32  C   UNL     1      38.843  -2.420  16.984  0.00  0.00    +0.000 A 
ENDBRANCH  20  27
ENDBRANCH  19  20
ENDBRANCH  18  19
ENDBRANCH   5  18
TORSDOF 9
ENDMDL
MODEL 8
REMARK VINA RESULT:      -6.7      2.225      5.131
REMARK  Name = 
REMARK  9 active torsions:
REMARK  status: ('A' for Active; 'I' for Inactive)
REMARK    1  A    between atoms: C_2  and  C_4
REMARK    2  A    between atoms: C_7  and  C_8
REMARK    3  A    between atoms: C_8  and  C_9
REMARK    4  A    between atoms: C_9  and  N_10
REMARK    5  A    between atoms: C_14  and  C_15
REMARK    6  A    between atoms: C_15  and  O_16
REMARK    7  A    between atoms: O_16  and  C_17
REMARK    8  A    between atoms: C_17  and  C_18
REMARK    9  A    between atoms: C_17  and  C_24
REMARK                            x       y       z     vdW  Elec       q    Type
REMARK                         _______ _______ _______ _____ _____    ______ ____
ROOT
ATOM      1  N   UNL     1      35.828   2.380  16.294  0.00  0.00    +0.000 NA
ATOM      2  C   UNL     1      36.828   3.170  16.984  0.00  0.00    +0.000 C 
ATOM      3  C   UNL     1      37.267   4.217  15.944  0.00  0.00    +0.000 C 
ATOM      4  C   UNL     1      37.376   3.441  14.661  0.00  0.00    +0.000 C 
ATOM      5  C   UNL     1      35.863   3.364  14.020  0.00  0.00    +0.000 C 
ATOM      6  C   UNL     1      35.083   3.266  15.466  0.00  0.00    +0.000 C 
ENDROOT
BRANCH   1   7
ATOM      7  C   UNL     1      35.049   1.523  17.097  0.00  0.00    +0.000 C 
BRANCH   7   8
ATOM      8  C   UNL     1      35.836   0.614  17.985  0.00  0.00    +0.000 C 
BRANCH   8  12
ATOM      9  C   UNL     1      36.063  -3.413  16.552  0.00  0.00    +0.000 A 
ATOM     10  C   UNL     1      35.329  -2.459  15.893  0.00  0.00    +0.000 A 
ATOM     11  C   UNL     1      35.250  -1.159  16.347  0.00  0.00    +0.000 A 
ATOM     12  C   UNL     1      35.913  -0.768  17.492  0.00  0.00    +0.000 A 
ATOM     13  C   UNL     1      36.667  -1.726  18.176  0.00  0.00    +0.000 A 
ATOM     14  C   UNL     1      36.727  -3.009  17.703  0.00  0.00    +0.000 A 
BRANCH   9  16
ATOM     15  C   UNL     1      35.135  -5.273  15.057  0.00  0.00    +0.000 C 
ATOM     16  C   UNL     1      36.130  -4.763  16.056  0.00  0.00    +0.000 C 
ATOM     17  O   UNL     1      37.026  -5.529  16.458  0.00  0.00    +0.000 OA
ENDBRANCH   9  16
ENDBRANCH   8  12
ENDBRANCH   7   8
ENDBRANCH   1   7
BRANCH   5  18
ATOM     18  C   UNL     1      35.908   1.730  13.828  0.00  0.00    +0.000 C 
BRANCH  18  19
ATOM     19  O   UNL     1      37.218   1.397  13.604  0.00  0.00    +0.000 OA
BRANCH  19  20
ATOM     20  C   UNL     1      37.257   0.221  12.857  0.00  0.00    +0.000 C 
BRANCH  20  21
ATOM     21  C   UNL     1      37.935   0.440  11.550  0.00  0.00    +0.000 A 
ATOM     22  C   UNL     1      39.197  -0.025  11.250  0.00  0.00    +0.000 A 
ATOM     23  C   UNL     1      39.787   0.204  10.018  0.00  0.00    +0.000 A 
ATOM     24  C   UNL     1      39.122   0.908   9.054  0.00  0.00    +0.000 A 
ATOM     25  C   UNL     1      37.858   1.386   9.325  0.00  0.00    +0.000 A 
ATOM     26  C   UNL     1      37.295   1.151  10.540  0.00  0.00    +0.000 A 
ENDBRANCH  20  21
BRANCH  20  27
ATOM     27  C   UNL     1      37.977  -0.783  13.653  0.00  0.00    +0.000 A 
ATOM     28  C   UNL     1      37.993  -2.095  13.301  0.00  0.00    +0.000 A 
ATOM     29  C   UNL     1      38.696  -3.020  14.091  0.00  0.00    +0.000 A 
ATOM     30  C   UNL     1      39.372  -2.617  15.223  0.00  0.00    +0.000 A 
ATOM     31  C   UNL     1      39.351  -1.297  15.571  0.00  0.00    +0.000 A 
ATOM     32  C   UNL     1      38.651  -0.383  14.781  0.00  0.00    +0.000 A 
ENDBRANCH  20  27
ENDBRANCH  19  20
ENDBRANCH  18  19
ENDBRANCH   5  18
TORSDOF 9
ENDMDL
MODEL 9
REMARK VINA RESULT:      -6.7      2.925      7.225
REMARK  Name = 
REMARK  9 active torsions:
REMARK  status: ('A' for Active; 'I' for Inactive)
REMARK    1  A    between atoms: C_2  and  C_4
REMARK    2  A    between atoms: C_7  and  C_8
REMARK    3  A    between atoms: C_8  and  C_9
REMARK    4  A    between atoms: C_9  and  N_10
REMARK    5  A    between atoms: C_14  and  C_15
REMARK    6  A    between atoms: C_15  and  O_16
REMARK    7  A    between atoms: O_16  and  C_17
REMARK    8  A    between atoms: C_17  and  C_18
REMARK    9  A    between atoms: C_17  and  C_24
REMARK                            x       y       z     vdW  Elec       q    Type
REMARK                         _______ _______ _______ _____ _____    ______ ____
ROOT
ATOM      1  N   UNL     1      39.326  -0.353  13.500  0.00  0.00    +0.000 NA
ATOM      2  C   UNL     1      40.429  -0.116  14.408  0.00  0.00    +0.000 C 
ATOM      3  C   UNL     1      41.043  -1.511  14.632  0.00  0.00    +0.000 C 
ATOM      4  C   UNL     1      39.853  -2.417  14.786  0.00  0.00    +0.000 C 
ATOM      5  C   UNL     1      39.362  -2.820  13.269  0.00  0.00    +0.000 C 
ATOM      6  C   UNL     1      39.734  -1.368  12.590  0.00  0.00    +0.000 C 
ENDROOT
BRANCH   1   7
ATOM      7  C   UNL     1      38.756   0.788  12.900  0.00  0.00    +0.000 C 
BRANCH   7   8
ATOM      8  C   UNL     1      37.527   1.301  13.578  0.00  0.00    +0.000 C 
BRANCH   8  12
ATOM      9  C   UNL     1      38.298   4.496  16.322  0.00  0.00    +0.000 A 
ATOM     10  C   UNL     1      37.278   3.602  16.531  0.00  0.00    +0.000 A 
ATOM     11  C   UNL     1      37.022   2.569  15.654  0.00  0.00    +0.000 A 
ATOM     12  C   UNL     1      37.791   2.397  14.521  0.00  0.00    +0.000 A 
ATOM     13  C   UNL     1      38.834   3.298  14.290  0.00  0.00    +0.000 A 
ATOM     14  C   UNL     1      39.065   4.313  15.179  0.00  0.00    +0.000 A 
BRANCH   9  16
ATOM     15  C   UNL     1      39.050   5.286  18.638  0.00  0.00    +0.000 C 
ATOM     16  C   UNL     1      38.544   5.564  17.254  0.00  0.00    +0.000 C 
ATOM     17  O   UNL     1      38.337   6.744  16.916  0.00  0.00    +0.000 OA
ENDBRANCH   9  16
ENDBRANCH   8  12
ENDBRANCH   7   8
ENDBRANCH   1   7
BRANCH   5  18
ATOM     18  C   UNL     1      37.795  -2.395  13.544  0.00  0.00    +0.000 C 
BRANCH  18  19
ATOM     19  O   UNL     1      37.530  -2.700  14.853  0.00  0.00    +0.000 OA
BRANCH  19  20
ATOM     20  C   UNL     1      36.180  -2.464  15.101  0.00  0.00    +0.000 C 
BRANCH  20  21
ATOM     21  C   UNL     1      35.441  -3.741  15.295  0.00  0.00    +0.000 A 
ATOM     22  C   UNL     1      34.108  -3.914  14.990  0.00  0.00    +0.000 A 
ATOM     23  C   UNL     1      33.463  -5.123  15.188  0.00  0.00    +0.000 A 
ATOM     24  C   UNL     1      34.142  -6.194  15.698  0.00  0.00    +0.000 A 
ATOM     25  C   UNL     1      35.477  -6.051  16.013  0.00  0.00    +0.000 A 
ATOM     26  C   UNL     1      36.093  -4.857  15.811  0.00  0.00    +0.000 A 
ENDBRANCH  20  21
BRANCH  20  27
ATOM     27  C   UNL     1      36.091  -1.626  16.305  0.00  0.00    +0.000 A 
ATOM     28  C   UNL     1      36.914  -1.817  17.369  0.00  0.00    +0.000 A 
ATOM     29  C   UNL     1      36.794  -0.992  18.500  0.00  0.00    +0.000 A 
ATOM     30  C   UNL     1      35.852   0.014  18.547  0.00  0.00    +0.000 A 
ATOM     31  C   UNL     1      35.029   0.200  17.474  0.00  0.00    +0.000 A 
ATOM     32  C   UNL     1      35.153  -0.624  16.354  0.00  0.00    +0.000 A 
ENDBRANCH  20  27
ENDBRANCH  19  20
ENDBRANCH  18  19
ENDBRANCH   5  18
TORSDOF 9
ENDMDL
MODEL 10
REMARK VINA RESULT:      -6.7      2.795      3.569
REMARK  Name = 
REMARK  9 active torsions:
REMARK  status: ('A' for Active; 'I' for Inactive)
REMARK    1  A    between atoms: C_2  and  C_4
REMARK    2  A    between atoms: C_7  and  C_8
REMARK    3  A    between atoms: C_8  and  C_9
REMARK    4  A    between atoms: C_9  and  N_10
REMARK    5  A    between atoms: C_14  and  C_15
REMARK    6  A    between atoms: C_15  and  O_16
REMARK    7  A    between atoms: O_16  and  C_17
REMARK    8  A    between atoms: C_17  and  C_18
REMARK    9  A    between atoms: C_17  and  C_24
REMARK                            x       y       z     vdW  Elec       q    Type
REMARK                         _______ _______ _______ _____ _____    ______ ____
ROOT
ATOM      1  N   UNL     1      36.656  -0.838  16.689  0.00  0.00    +0.000 NA
ATOM      2  C   UNL     1      36.686  -1.320  18.055  0.00  0.00    +0.000 C 
ATOM      3  C   UNL     1      35.710  -0.393  18.805  0.00  0.00    +0.000 C 
ATOM      4  C   UNL     1      36.013   0.977  18.264  0.00  0.00    +0.000 C 
ATOM      5  C   UNL     1      35.167   1.134  16.862  0.00  0.00    +0.000 C 
ATOM      6  C   UNL     1      35.320  -0.440  16.406  0.00  0.00    +0.000 C 
ENDROOT
BRANCH   1   7
ATOM      7  C   UNL     1      37.243  -1.677  15.720  0.00  0.00    +0.000 C 
BRANCH   7   8
ATOM      8  C   UNL     1      38.608  -2.174  16.070  0.00  0.00    +0.000 C 
BRANCH   8  12
ATOM      9  C   UNL     1      41.741  -0.293  13.840  0.00  0.00    +0.000 A 
ATOM     10  C   UNL     1      40.611   0.393  14.207  0.00  0.00    +0.000 A 
ATOM     11  C   UNL     1      39.597  -0.203  14.925  0.00  0.00    +0.000 A 
ATOM     12  C   UNL     1      39.683  -1.527  15.304  0.00  0.00    +0.000 A 
ATOM     13  C   UNL     1      40.826  -2.244  14.940  0.00  0.00    +0.000 A 
ATOM     14  C   UNL     1      41.818  -1.625  14.226  0.00  0.00    +0.000 A 
BRANCH   9  16
ATOM     15  C   UNL     1      42.869   0.219  11.599  0.00  0.00    +0.000 C 
ATOM     16  C   UNL     1      42.786   0.354  13.090  0.00  0.00    +0.000 C 
ATOM     17  O   UNL     1      43.641   1.040  13.681  0.00  0.00    +0.000 OA
ENDBRANCH   9  16
ENDBRANCH   8  12
ENDBRANCH   7   8
ENDBRANCH   1   7
BRANCH   5  18
ATOM     18  C   UNL     1      36.481   1.611  15.993  0.00  0.00    +0.000 C 
BRANCH  18  19
ATOM     19  O   UNL     1      36.864   2.825  16.497  0.00  0.00    +0.000 OA
BRANCH  19  20
ATOM     20  C   UNL     1      37.830   3.372  15.655  0.00  0.00    +0.000 C 
BRANCH  20  21
ATOM     21  C   UNL     1      37.201   4.063  14.496  0.00  0.00    +0.000 A 
ATOM     22  C   UNL     1      37.538   3.824  13.182  0.00  0.00    +0.000 A 
ATOM     23  C   UNL     1      36.923   4.492  12.136  0.00  0.00    +0.000 A 
ATOM     24  C   UNL     1      35.952   5.420  12.385  0.00  0.00    +0.000 A 
ATOM     25  C   UNL     1      35.594   5.681  13.691  0.00  0.00    +0.000 A 
ATOM     26  C   UNL     1      36.208   5.015  14.704  0.00  0.00    +0.000 A 
ENDBRANCH  20  21
BRANCH  20  27
ATOM     27  C   UNL     1      38.627   4.317  16.451  0.00  0.00    +0.000 A 
ATOM     28  C   UNL     1      39.627   5.050  15.898  0.00  0.00    +0.000 A 
ATOM     29  C   UNL     1      40.362   5.942  16.697  0.00  0.00    +0.000 A 
ATOM     30  C   UNL     1      40.084   6.085  18.040  0.00  0.00    +0.000 A 
ATOM     31  C   UNL     1      39.077   5.344  18.590  0.00  0.00    +0.000 A 
ATOM     32  C   UNL     1      38.351   4.460  17.789  0.00  0.00    +0.000 A 
ENDBRANCH  20  27
ENDBRANCH  19  20
ENDBRANCH  18  19
ENDBRANCH   5  18
TORSDOF 9
ENDMDL
