MODEL 1
REMARK VINA RESULT:      -6.8      0.000      0.000
REMARK  Name = 
REMARK  4 active torsions:
REMARK  status: ('A' for Active; 'I' for Inactive)
REMARK    1  A    between atoms: C_5  and  C_6
REMARK    2  A    between atoms: C_9  and  O_10
REMARK    3  A    between atoms: O_10  and  C_11
REMARK    4  A    between atoms: C_16  and  N_17
REMARK                            x       y       z     vdW  Elec       q    Type
REMARK                         _______ _______ _______ _____ _____    ______ ____
ROOT
ATOM      1  O   UNL     1      26.988  22.455  26.562  0.00  0.00    +0.000 OA
ENDROOT
BRANCH   1   7
ATOM      2  C   UNL     1      24.136  26.325  26.796  0.00  0.00    +0.000 C 
ATOM      3  C   UNL     1      24.962  25.302  27.515  0.00  0.00    +0.000 A 
ATOM      4  C   UNL     1      25.083  25.311  28.894  0.00  0.00    +0.000 A 
ATOM      5  C   UNL     1      25.855  24.349  29.513  0.00  0.00    +0.000 A 
ATOM      6  C   UNL     1      26.496  23.388  28.757  0.00  0.00    +0.000 A 
ATOM      7  C   UNL     1      26.368  23.392  27.388  0.00  0.00    +0.000 A 
ATOM      8  C   UNL     1      25.593  24.355  26.743  0.00  0.00    +0.000 A 
BRANCH   6   9
ATOM      9  C   UNL     1      27.303  22.309  29.393  0.00  0.00    +0.000 C 
ATOM     10  C   UNL     1      28.520  22.940  30.091  0.00  0.00    +0.000 C 
ATOM     11  C   UNL     1      26.464  21.590  30.454  0.00  0.00    +0.000 C 
ENDBRANCH   6   9
ENDBRANCH   1   7
BRANCH   1  12
ATOM     12  C   UNL     1      27.964  22.819  25.660  0.00  0.00    +0.000 A 
ATOM     13  C   UNL     1      29.263  22.943  26.125  0.00  0.00    +0.000 A 
ATOM     14  C   UNL     1      30.319  23.299  25.311  0.00  0.00    +0.000 A 
ATOM     15  N   UNL     1      31.623  23.408  25.865  0.00  0.00    +0.000 NA
ATOM     16  C   UNL     1      30.043  23.539  23.981  0.00  0.00    +0.000 A 
ATOM     17  C   UNL     1      28.765  23.433  23.450  0.00  0.00    +0.000 A 
ATOM     18  C   UNL     1      27.763  23.072  24.325  0.00  0.00    +0.000 A 
BRANCH  17  19
ATOM     19  N   UNL     1      28.513  23.687  22.071  0.00  0.00    +0.000 N 
ATOM     20  O   UNL     1      27.397  23.497  21.585  0.00  0.00    +0.000 OA
ATOM     21  O   UNL     1      29.522  24.146  21.269  0.00  0.00    +0.000 OA
ENDBRANCH  17  19
ENDBRANCH   1  12
TORSDOF 4
ENDMDL
MODEL 2
REMARK VINA RESULT:      -6.5      2.998      6.729
REMARK  Name = 
REMARK  4 active torsions:
REMARK  status: ('A' for Active; 'I' for Inactive)
REMARK    1  A    between atoms: C_5  and  C_6
REMARK    2  A    between atoms: C_9  and  O_10
REMARK    3  A    between atoms: O_10  and  C_11
REMARK    4  A    between atoms: C_16  and  N_17
REMARK                            x       y       z     vdW  Elec       q    Type
REMARK                         _______ _______ _______ _____ _____    ______ ____
ROOT
ATOM      1  O   UNL     1      26.540  23.030  25.714  0.00  0.00    +0.000 OA
ENDROOT
BRANCH   1   7
ATOM      2  C   UNL     1      30.871  21.852  27.450  0.00  0.00    +0.000 C 
ATOM      3  C   UNL     1      30.054  22.387  26.314  0.00  0.00    +0.000 A 
ATOM      4  C   UNL     1      30.640  22.780  25.123  0.00  0.00    +0.000 A 
ATOM      5  C   UNL     1      29.847  23.266  24.104  0.00  0.00    +0.000 A 
ATOM      6  C   UNL     1      28.480  23.357  24.278  0.00  0.00    +0.000 A 
ATOM      7  C   UNL     1      27.911  22.964  25.467  0.00  0.00    +0.000 A 
ATOM      8  C   UNL     1      28.694  22.470  26.509  0.00  0.00    +0.000 A 
BRANCH   6   9
ATOM      9  C   UNL     1      27.587  23.837  23.186  0.00  0.00    +0.000 C 
ATOM     10  C   UNL     1      27.309  25.336  23.392  0.00  0.00    +0.000 C 
ATOM     11  C   UNL     1      28.281  23.662  21.832  0.00  0.00    +0.000 C 
ENDBRANCH   6   9
ENDBRANCH   1   7
BRANCH   1  12
ATOM     12  C   UNL     1      26.021  23.829  26.708  0.00  0.00    +0.000 A 
ATOM     13  C   UNL     1      25.313  24.959  26.330  0.00  0.00    +0.000 A 
ATOM     14  C   UNL     1      24.749  25.829  27.240  0.00  0.00    +0.000 A 
ATOM     15  N   UNL     1      24.040  26.967  26.772  0.00  0.00    +0.000 NA
ATOM     16  C   UNL     1      24.911  25.541  28.578  0.00  0.00    +0.000 A 
ATOM     17  C   UNL     1      25.608  24.427  29.027  0.00  0.00    +0.000 A 
ATOM     18  C   UNL     1      26.142  23.605  28.058  0.00  0.00    +0.000 A 
BRANCH  17  19
ATOM     19  N   UNL     1      25.757  24.157  30.418  0.00  0.00    +0.000 N 
ATOM     20  O   UNL     1      26.200  23.077  30.810  0.00  0.00    +0.000 OA
ATOM     21  O   UNL     1      25.403  25.107  31.336  0.00  0.00    +0.000 OA
ENDBRANCH  17  19
ENDBRANCH   1  12
TORSDOF 4
ENDMDL
MODEL 3
REMARK VINA RESULT:      -6.4      1.516      2.523
REMARK  Name = 
REMARK  4 active torsions:
REMARK  status: ('A' for Active; 'I' for Inactive)
REMARK    1  A    between atoms: C_5  and  C_6
REMARK    2  A    between atoms: C_9  and  O_10
REMARK    3  A    between atoms: O_10  and  C_11
REMARK    4  A    between atoms: C_16  and  N_17
REMARK                            x       y       z     vdW  Elec       q    Type
REMARK                         _______ _______ _______ _____ _____    ______ ____
ROOT
ATOM      1  O   UNL     1      26.396  22.648  26.469  0.00  0.00    +0.000 OA
ENDROOT
BRANCH   1   7
ATOM      2  C   UNL     1      24.024  26.761  27.252  0.00  0.00    +0.000 C 
ATOM      3  C   UNL     1      24.850  25.640  27.803  0.00  0.00    +0.000 A 
ATOM      4  C   UNL     1      25.197  25.588  29.142  0.00  0.00    +0.000 A 
ATOM      5  C   UNL     1      25.960  24.534  29.604  0.00  0.00    +0.000 A 
ATOM      6  C   UNL     1      26.368  23.544  28.733  0.00  0.00    +0.000 A 
ATOM      7  C   UNL     1      26.017  23.610  27.405  0.00  0.00    +0.000 A 
ATOM      8  C   UNL     1      25.247  24.664  26.917  0.00  0.00    +0.000 A 
BRANCH   6   9
ATOM      9  C   UNL     1      27.156  22.370  29.204  0.00  0.00    +0.000 C 
ATOM     10  C   UNL     1      28.531  22.856  29.693  0.00  0.00    +0.000 C 
ATOM     11  C   UNL     1      26.440  21.702  30.381  0.00  0.00    +0.000 C 
ENDBRANCH   6   9
ENDBRANCH   1   7
BRANCH   1  12
ATOM     12  C   UNL     1      27.405  22.880  25.560  0.00  0.00    +0.000 A 
ATOM     13  C   UNL     1      27.050  23.128  24.244  0.00  0.00    +0.000 A 
ATOM     14  C   UNL     1      27.976  23.375  23.252  0.00  0.00    +0.000 A 
ATOM     15  N   UNL     1      27.531  23.618  21.925  0.00  0.00    +0.000 NA
ATOM     16  C   UNL     1      29.307  23.368  23.610  0.00  0.00    +0.000 A 
ATOM     17  C   UNL     1      29.733  23.126  24.909  0.00  0.00    +0.000 A 
ATOM     18  C   UNL     1      28.748  22.889  25.845  0.00  0.00    +0.000 A 
BRANCH  17  19
ATOM     19  N   UNL     1      31.117  23.126  25.247  0.00  0.00    +0.000 N 
ATOM     20  O   UNL     1      31.482  23.088  26.423  0.00  0.00    +0.000 OA
ATOM     21  O   UNL     1      32.058  23.169  24.256  0.00  0.00    +0.000 OA
ENDBRANCH  17  19
ENDBRANCH   1  12
TORSDOF 4
ENDMDL
MODEL 4
REMARK VINA RESULT:      -6.3     22.482     24.969
REMARK  Name = 
REMARK  4 active torsions:
REMARK  status: ('A' for Active; 'I' for Inactive)
REMARK    1  A    between atoms: C_5  and  C_6
REMARK    2  A    between atoms: C_9  and  O_10
REMARK    3  A    between atoms: O_10  and  C_11
REMARK    4  A    between atoms: C_16  and  N_17
REMARK                            x       y       z     vdW  Elec       q    Type
REMARK                         _______ _______ _______ _____ _____    ______ ____
ROOT
ATOM      1  O   UNL     1      33.961   2.853  36.829  0.00  0.00    +0.000 OA
ENDROOT
BRANCH   1   7
ATOM      2  C   UNL     1      38.039   5.362  37.318  0.00  0.00    +0.000 C 
ATOM      3  C   UNL     1      36.788   5.098  36.536  0.00  0.00    +0.000 A 
ATOM      4  C   UNL     1      36.492   5.808  35.386  0.00  0.00    +0.000 A 
ATOM      5  C   UNL     1      35.329   5.531  34.698  0.00  0.00    +0.000 A 
ATOM      6  C   UNL     1      34.472   4.550  35.159  0.00  0.00    +0.000 A 
ATOM      7  C   UNL     1      34.779   3.853  36.304  0.00  0.00    +0.000 A 
ATOM      8  C   UNL     1      35.949   4.118  37.014  0.00  0.00    +0.000 A 
BRANCH   6   9
ATOM      9  C   UNL     1      33.228   4.193  34.420  0.00  0.00    +0.000 C 
ATOM     10  C   UNL     1      32.524   5.486  33.974  0.00  0.00    +0.000 C 
ATOM     11  C   UNL     1      33.582   3.386  33.167  0.00  0.00    +0.000 C 
ENDBRANCH   6   9
ENDBRANCH   1   7
BRANCH   1  12
ATOM     12  C   UNL     1      34.221   1.518  36.612  0.00  0.00    +0.000 A 
ATOM     13  C   UNL     1      35.195   0.911  37.388  0.00  0.00    +0.000 A 
ATOM     14  C   UNL     1      35.535  -0.419  37.258  0.00  0.00    +0.000 A 
ATOM     15  N   UNL     1      36.549  -0.967  38.090  0.00  0.00    +0.000 NA
ATOM     16  C   UNL     1      34.864  -1.157  36.306  0.00  0.00    +0.000 A 
ATOM     17  C   UNL     1      33.877  -0.612  35.495  0.00  0.00    +0.000 A 
ATOM     18  C   UNL     1      33.592   0.723  35.685  0.00  0.00    +0.000 A 
BRANCH  17  19
ATOM     19  N   UNL     1      33.200  -1.401  34.520  0.00  0.00    +0.000 N 
ATOM     20  O   UNL     1      32.108  -1.913  34.767  0.00  0.00    +0.000 OA
ATOM     21  O   UNL     1      33.768  -1.597  33.291  0.00  0.00    +0.000 OA
ENDBRANCH  17  19
ENDBRANCH   1  12
TORSDOF 4
ENDMDL
MODEL 5
REMARK VINA RESULT:      -6.3     17.722     20.030
REMARK  Name = 
REMARK  4 active torsions:
REMARK  status: ('A' for Active; 'I' for Inactive)
REMARK    1  A    between atoms: C_5  and  C_6
REMARK    2  A    between atoms: C_9  and  O_10
REMARK    3  A    between atoms: O_10  and  C_11
REMARK    4  A    between atoms: C_16  and  N_17
REMARK                            x       y       z     vdW  Elec       q    Type
REMARK                         _______ _______ _______ _____ _____    ______ ____
ROOT
ATOM      1  O   UNL     1      18.176   9.403  37.129  0.00  0.00    +0.000 OA
ENDROOT
BRANCH   1   7
ATOM      2  C   UNL     1      21.715  12.437  38.326  0.00  0.00    +0.000 C 
ATOM      3  C   UNL     1      20.663  11.465  38.766  0.00  0.00    +0.000 A 
ATOM      4  C   UNL     1      20.464  11.173  40.104  0.00  0.00    +0.000 A 
ATOM      5  C   UNL     1      19.483  10.272  40.463  0.00  0.00    +0.000 A 
ATOM      6  C   UNL     1      18.708   9.672  39.490  0.00  0.00    +0.000 A 
ATOM      7  C   UNL     1      18.917   9.971  38.164  0.00  0.00    +0.000 A 
ATOM      8  C   UNL     1      19.903  10.879  37.780  0.00  0.00    +0.000 A 
BRANCH   6   9
ATOM      9  C   UNL     1      17.611   8.727  39.842  0.00  0.00    +0.000 C 
ATOM     10  C   UNL     1      18.190   7.586  40.696  0.00  0.00    +0.000 C 
ATOM     11  C   UNL     1      16.547   9.451  40.672  0.00  0.00    +0.000 C 
ENDBRANCH   6   9
ENDBRANCH   1   7
BRANCH   1  12
ATOM     12  C   UNL     1      17.261  10.137  36.407  0.00  0.00    +0.000 A 
ATOM     13  C   UNL     1      16.270  10.808  37.105  0.00  0.00    +0.000 A 
ATOM     14  C   UNL     1      15.304  11.573  36.485  0.00  0.00    +0.000 A 
ATOM     15  N   UNL     1      14.319  12.228  37.273  0.00  0.00    +0.000 NA
ATOM     16  C   UNL     1      15.346  11.657  35.110  0.00  0.00    +0.000 A 
ATOM     17  C   UNL     1      16.310  11.011  34.348  0.00  0.00    +0.000 A 
ATOM     18  C   UNL     1      17.242  10.266  35.039  0.00  0.00    +0.000 A 
BRANCH  17  19
ATOM     19  N   UNL     1      16.327  11.118  32.928  0.00  0.00    +0.000 N 
ATOM     20  O   UNL     1      16.872  10.258  32.234  0.00  0.00    +0.000 OA
ATOM     21  O   UNL     1      15.732  12.189  32.320  0.00  0.00    +0.000 OA
ENDBRANCH  17  19
ENDBRANCH   1  12
TORSDOF 4
ENDMDL
MODEL 6
REMARK VINA RESULT:      -6.3      3.471      5.397
REMARK  Name = 
REMARK  4 active torsions:
REMARK  status: ('A' for Active; 'I' for Inactive)
REMARK    1  A    between atoms: C_5  and  C_6
REMARK    2  A    between atoms: C_9  and  O_10
REMARK    3  A    between atoms: O_10  and  C_11
REMARK    4  A    between atoms: C_16  and  N_17
REMARK                            x       y       z     vdW  Elec       q    Type
REMARK                         _______ _______ _______ _____ _____    ______ ____
ROOT
ATOM      1  O   UNL     1      29.667  25.645  25.391  0.00  0.00    +0.000 OA
ENDROOT
BRANCH   1   7
ATOM      2  C   UNL     1      34.355  26.633  24.932  0.00  0.00    +0.000 C 
ATOM      3  C   UNL     1      33.285  25.761  25.515  0.00  0.00    +0.000 A 
ATOM      4  C   UNL     1      33.594  24.684  26.329  0.00  0.00    +0.000 A 
ATOM      5  C   UNL     1      32.575  23.909  26.844  0.00  0.00    +0.000 A 
ATOM      6  C   UNL     1      31.261  24.211  26.547  0.00  0.00    +0.000 A 
ATOM      7  C   UNL     1      30.969  25.283  25.735  0.00  0.00    +0.000 A 
ATOM      8  C   UNL     1      31.983  26.079  25.205  0.00  0.00    +0.000 A 
BRANCH   6   9
ATOM      9  C   UNL     1      30.133  23.423  27.118  0.00  0.00    +0.000 C 
ATOM     10  C   UNL     1      30.010  22.097  26.348  0.00  0.00    +0.000 C 
ATOM     11  C   UNL     1      30.420  23.096  28.588  0.00  0.00    +0.000 C 
ENDBRANCH   6   9
ENDBRANCH   1   7
BRANCH   1  12
ATOM     12  C   UNL     1      29.008  25.057  24.335  0.00  0.00    +0.000 A 
ATOM     13  C   UNL     1      29.593  25.131  23.081  0.00  0.00    +0.000 A 
ATOM     14  C   UNL     1      29.023  24.577  21.954  0.00  0.00    +0.000 A 
ATOM     15  N   UNL     1      29.686  24.700  20.703  0.00  0.00    +0.000 NA
ATOM     16  C   UNL     1      27.817  23.927  22.106  0.00  0.00    +0.000 A 
ATOM     17  C   UNL     1      27.175  23.816  23.332  0.00  0.00    +0.000 A 
ATOM     18  C   UNL     1      27.807  24.394  24.412  0.00  0.00    +0.000 A 
BRANCH  17  19
ATOM     19  N   UNL     1      25.929  23.137  23.457  0.00  0.00    +0.000 N 
ATOM     20  O   UNL     1      25.435  22.917  24.564  0.00  0.00    +0.000 OA
ATOM     21  O   UNL     1      25.267  22.719  22.335  0.00  0.00    +0.000 OA
ENDBRANCH  17  19
ENDBRANCH   1  12
TORSDOF 4
ENDMDL
MODEL 7
REMARK VINA RESULT:      -6.2     18.143     20.336
REMARK  Name = 
REMARK  4 active torsions:
REMARK  status: ('A' for Active; 'I' for Inactive)
REMARK    1  A    between atoms: C_5  and  C_6
REMARK    2  A    between atoms: C_9  and  O_10
REMARK    3  A    between atoms: O_10  and  C_11
REMARK    4  A    between atoms: C_16  and  N_17
REMARK                            x       y       z     vdW  Elec       q    Type
REMARK                         _______ _______ _______ _____ _____    ______ ____
ROOT
ATOM      1  O   UNL     1      18.216   9.178  37.113  0.00  0.00    +0.000 OA
ENDROOT
BRANCH   1   7
ATOM      2  C   UNL     1      21.796  12.198  38.218  0.00  0.00    +0.000 C 
ATOM      3  C   UNL     1      20.706  11.284  38.688  0.00  0.00    +0.000 A 
ATOM      4  C   UNL     1      20.460  11.087  40.036  0.00  0.00    +0.000 A 
ATOM      5  C   UNL     1      19.444  10.236  40.422  0.00  0.00    +0.000 A 
ATOM      6  C   UNL     1      18.684   9.591  39.467  0.00  0.00    +0.000 A 
ATOM      7  C   UNL     1      18.941   9.796  38.131  0.00  0.00    +0.000 A 
ATOM      8  C   UNL     1      19.961  10.652  37.720  0.00  0.00    +0.000 A 
BRANCH   6   9
ATOM      9  C   UNL     1      17.552   8.699  39.846  0.00  0.00    +0.000 C 
ATOM     10  C   UNL     1      18.085   7.573  40.749  0.00  0.00    +0.000 C 
ATOM     11  C   UNL     1      16.507   9.491  40.637  0.00  0.00    +0.000 C 
ENDBRANCH   6   9
ENDBRANCH   1   7
BRANCH   1  12
ATOM     12  C   UNL     1      17.375   9.891  36.287  0.00  0.00    +0.000 A 
ATOM     13  C   UNL     1      17.579   9.801  34.919  0.00  0.00    +0.000 A 
ATOM     14  C   UNL     1      16.797  10.470  34.001  0.00  0.00    +0.000 A 
ATOM     15  N   UNL     1      17.072  10.328  32.614  0.00  0.00    +0.000 NA
ATOM     16  C   UNL     1      15.776  11.257  34.488  0.00  0.00    +0.000 A 
ATOM     17  C   UNL     1      15.516  11.393  35.846  0.00  0.00    +0.000 A 
ATOM     18  C   UNL     1      16.340  10.693  36.702  0.00  0.00    +0.000 A 
BRANCH  17  19
ATOM     19  N   UNL     1      14.453  12.214  36.319  0.00  0.00    +0.000 N 
ATOM     20  O   UNL     1      13.972  13.099  35.609  0.00  0.00    +0.000 OA
ATOM     21  O   UNL     1      13.955  12.022  37.578  0.00  0.00    +0.000 OA
ENDBRANCH  17  19
ENDBRANCH   1  12
TORSDOF 4
ENDMDL
MODEL 8
REMARK VINA RESULT:      -6.2     17.847     19.519
REMARK  Name = 
REMARK  4 active torsions:
REMARK  status: ('A' for Active; 'I' for Inactive)
REMARK    1  A    between atoms: C_5  and  C_6
REMARK    2  A    between atoms: C_9  and  O_10
REMARK    3  A    between atoms: O_10  and  C_11
REMARK    4  A    between atoms: C_16  and  N_17
REMARK                            x       y       z     vdW  Elec       q    Type
REMARK                         _______ _______ _______ _____ _____    ______ ____
ROOT
ATOM      1  O   UNL     1      19.741   9.776  38.120  0.00  0.00    +0.000 OA
ENDROOT
BRANCH   1   7
ATOM      2  C   UNL     1      23.946   9.331  35.824  0.00  0.00    +0.000 C 
ATOM      3  C   UNL     1      23.058  10.146  36.714  0.00  0.00    +0.000 A 
ATOM      4  C   UNL     1      23.460  11.374  37.208  0.00  0.00    +0.000 A 
ATOM      5  C   UNL     1      22.607  12.089  38.024  0.00  0.00    +0.000 A 
ATOM      6  C   UNL     1      21.365  11.578  38.340  0.00  0.00    +0.000 A 
ATOM      7  C   UNL     1      20.978  10.355  37.842  0.00  0.00    +0.000 A 
ATOM      8  C   UNL     1      21.824   9.617  37.016  0.00  0.00    +0.000 A 
BRANCH   6   9
ATOM      9  C   UNL     1      20.401  12.340  39.183  0.00  0.00    +0.000 C 
ATOM     10  C   UNL     1      21.108  12.782  40.475  0.00  0.00    +0.000 C 
ATOM     11  C   UNL     1      19.939  13.596  38.438  0.00  0.00    +0.000 C 
ENDBRANCH   6   9
ENDBRANCH   1   7
BRANCH   1  12
ATOM     12  C   UNL     1      18.613  10.094  37.396  0.00  0.00    +0.000 A 
ATOM     13  C   UNL     1      18.656   9.929  36.021  0.00  0.00    +0.000 A 
ATOM     14  C   UNL     1      17.587  10.215  35.199  0.00  0.00    +0.000 A 
ATOM     15  N   UNL     1      17.711  10.021  33.797  0.00  0.00    +0.000 NA
ATOM     16  C   UNL     1      16.435  10.685  35.794  0.00  0.00    +0.000 A 
ATOM     17  C   UNL     1      16.324  10.875  37.165  0.00  0.00    +0.000 A 
ATOM     18  C   UNL     1      17.435  10.566  37.920  0.00  0.00    +0.000 A 
BRANCH  17  19
ATOM     19  N   UNL     1      15.120  11.362  37.750  0.00  0.00    +0.000 N 
ATOM     20  O   UNL     1      14.694  10.894  38.806  0.00  0.00    +0.000 OA
ATOM     21  O   UNL     1      14.421  12.363  37.132  0.00  0.00    +0.000 OA
ENDBRANCH  17  19
ENDBRANCH   1  12
TORSDOF 4
ENDMDL
MODEL 9
REMARK VINA RESULT:      -6.1      2.233      3.999
REMARK  Name = 
REMARK  4 active torsions:
REMARK  status: ('A' for Active; 'I' for Inactive)
REMARK    1  A    between atoms: C_5  and  C_6
REMARK    2  A    between atoms: C_9  and  O_10
REMARK    3  A    between atoms: O_10  and  C_11
REMARK    4  A    between atoms: C_16  and  N_17
REMARK                            x       y       z     vdW  Elec       q    Type
REMARK                         _______ _______ _______ _____ _____    ______ ____
ROOT
ATOM      1  O   UNL     1      27.682  25.463  25.684  0.00  0.00    +0.000 OA
ENDROOT
BRANCH   1   7
ATOM      2  C   UNL     1      30.615  21.983  27.245  0.00  0.00    +0.000 C 
ATOM      3  C   UNL     1      29.387  22.812  27.466  0.00  0.00    +0.000 A 
ATOM      4  C   UNL     1      28.595  22.645  28.589  0.00  0.00    +0.000 A 
ATOM      5  C   UNL     1      27.474  23.432  28.751  0.00  0.00    +0.000 A 
ATOM      6  C   UNL     1      27.151  24.377  27.798  0.00  0.00    +0.000 A 
ATOM      7  C   UNL     1      27.947  24.532  26.687  0.00  0.00    +0.000 A 
ATOM      8  C   UNL     1      29.084  23.748  26.504  0.00  0.00    +0.000 A 
BRANCH   6   9
ATOM      9  C   UNL     1      25.972  25.274  27.959  0.00  0.00    +0.000 C 
ATOM     10  C   UNL     1      24.803  24.717  27.129  0.00  0.00    +0.000 C 
ATOM     11  C   UNL     1      25.540  25.306  29.429  0.00  0.00    +0.000 C 
ENDBRANCH   6   9
ENDBRANCH   1   7
BRANCH   1  12
ATOM     12  C   UNL     1      27.549  25.089  24.365  0.00  0.00    +0.000 A 
ATOM     13  C   UNL     1      26.571  24.160  24.048  0.00  0.00    +0.000 A 
ATOM     14  C   UNL     1      26.349  23.715  22.762  0.00  0.00    +0.000 A 
ATOM     15  N   UNL     1      25.327  22.758  22.520  0.00  0.00    +0.000 NA
ATOM     16  C   UNL     1      27.149  24.230  21.764  0.00  0.00    +0.000 A 
ATOM     17  C   UNL     1      28.147  25.163  22.011  0.00  0.00    +0.000 A 
ATOM     18  C   UNL     1      28.308  25.560  23.321  0.00  0.00    +0.000 A 
BRANCH  17  19
ATOM     19  N   UNL     1      28.957  25.677  20.957  0.00  0.00    +0.000 N 
ATOM     20  O   UNL     1      28.879  26.859  20.617  0.00  0.00    +0.000 OA
ATOM     21  O   UNL     1      29.835  24.852  20.311  0.00  0.00    +0.000 OA
ENDBRANCH  17  19
ENDBRANCH   1  12
TORSDOF 4
ENDMDL
MODEL 10
REMARK VINA RESULT:      -6.1      1.487      3.312
REMARK  Name = 
REMARK  4 active torsions:
REMARK  status: ('A' for Active; 'I' for Inactive)
REMARK    1  A    between atoms: C_5  and  C_6
REMARK    2  A    between atoms: C_9  and  O_10
REMARK    3  A    between atoms: O_10  and  C_11
REMARK    4  A    between atoms: C_16  and  N_17
REMARK                            x       y       z     vdW  Elec       q    Type
REMARK                         _______ _______ _______ _____ _____    ______ ____
ROOT
ATOM      1  O   UNL     1      25.634  23.362  26.225  0.00  0.00    +0.000 OA
ENDROOT
BRANCH   1   7
ATOM      2  C   UNL     1      25.965  24.780  30.811  0.00  0.00    +0.000 C 
ATOM      3  C   UNL     1      25.558  25.095  29.404  0.00  0.00    +0.000 A 
ATOM      4  C   UNL     1      24.995  26.314  29.071  0.00  0.00    +0.000 A 
ATOM      5  C   UNL     1      24.636  26.560  27.761  0.00  0.00    +0.000 A 
ATOM      6  C   UNL     1      24.841  25.593  26.797  0.00  0.00    +0.000 A 
ATOM      7  C   UNL     1      25.400  24.385  27.143  0.00  0.00    +0.000 A 
ATOM      8  C   UNL     1      25.771  24.117  28.460  0.00  0.00    +0.000 A 
BRANCH   6   9
ATOM      9  C   UNL     1      24.505  25.837  25.366  0.00  0.00    +0.000 C 
ATOM     10  C   UNL     1      23.134  26.530  25.286  0.00  0.00    +0.000 C 
ATOM     11  C   UNL     1      25.547  26.769  24.740  0.00  0.00    +0.000 C 
ENDBRANCH   6   9
ENDBRANCH   1   7
BRANCH   1  12
ATOM     12  C   UNL     1      26.859  23.204  25.614  0.00  0.00    +0.000 A 
ATOM     13  C   UNL     1      27.910  22.725  26.379  0.00  0.00    +0.000 A 
ATOM     14  C   UNL     1      29.176  22.526  25.872  0.00  0.00    +0.000 A 
ATOM     15  N   UNL     1      30.202  22.034  26.723  0.00  0.00    +0.000 NA
ATOM     16  C   UNL     1      29.382  22.826  24.542  0.00  0.00    +0.000 A 
ATOM     17  C   UNL     1      28.375  23.309  23.718  0.00  0.00    +0.000 A 
ATOM     18  C   UNL     1      27.136  23.481  24.297  0.00  0.00    +0.000 A 
BRANCH  17  19
ATOM     19  N   UNL     1      28.619  23.609  22.347  0.00  0.00    +0.000 N 
ATOM     20  O   UNL     1      27.765  23.388  21.487  0.00  0.00    +0.000 OA
ATOM     21  O   UNL     1      29.819  24.149  21.973  0.00  0.00    +0.000 OA
ENDBRANCH  17  19
ENDBRANCH   1  12
TORSDOF 4
ENDMDL
