MODEL 1
REMARK VINA RESULT:      -6.6      0.000      0.000
REMARK  Name = 
REMARK  2 active torsions:
REMARK  status: ('A' for Active; 'I' for Inactive)
REMARK    1  A    between atoms: N_4  and  N_5
REMARK    2  A    between atoms: C_8  and  C_9
REMARK                            x       y       z     vdW  Elec       q    Type
REMARK                         _______ _______ _______ _____ _____    ______ ____
ROOT
ATOM      1  N   UNL     1      21.075   9.701  38.145  0.00  0.00    +0.000 NA
ATOM      2  C   UNL     1      19.640   9.881  38.236  0.00  0.00    +0.000 A 
ATOM      3  N   UNL     1      18.857  10.497  37.373  0.00  0.00    +0.000 NA
ATOM      4  C   UNL     1      17.568  10.566  37.615  0.00  0.00    +0.000 A 
ATOM      5  C   UNL     1      17.123   9.982  38.773  0.00  0.00    +0.000 A 
ATOM      6  S   UNL     1      18.560   9.368  39.447  0.00  0.00    +0.000 S 
ENDROOT
BRANCH   4   7
ATOM      7  C   UNL     1      16.624  11.251  36.677  0.00  0.00    +0.000 A 
ATOM      8  C   UNL     1      15.646  12.170  36.985  0.00  0.00    +0.000 A 
ATOM      9  N   UNL     1      15.016  12.550  35.890  0.00  0.00    +0.000 NA
ATOM     10  C   UNL     1      15.551  11.904  34.856  0.00  0.00    +0.000 A 
ATOM     11  C   UNL     1      15.259  11.939  33.493  0.00  0.00    +0.000 A 
ATOM     12  C   UNL     1      15.973  11.160  32.614  0.00  0.00    +0.000 A 
ATOM     13  C   UNL     1      16.976  10.346  33.087  0.00  0.00    +0.000 A 
ATOM     14  C   UNL     1      17.285  10.293  34.429  0.00  0.00    +0.000 A 
ATOM     15  C   UNL     1      16.554  11.088  35.316  0.00  0.00    +0.000 A 
ENDBRANCH   4   7
BRANCH   1  19
ATOM     16  C   UNL     1      23.748  10.411  35.644  0.00  0.00    +0.000 C 
ATOM     17  C   UNL     1      23.004   9.871  36.796  0.00  0.00    +0.000 C 
ATOM     18  C   UNL     1      23.696   8.900  37.681  0.00  0.00    +0.000 C 
ATOM     19  N   UNL     1      21.789  10.192  37.076  0.00  0.00    +0.000 NA
ENDBRANCH   1  19
TORSDOF 2
ENDMDL
MODEL 2
REMARK VINA RESULT:      -6.4      1.382      2.178
REMARK  Name = 
REMARK  2 active torsions:
REMARK  status: ('A' for Active; 'I' for Inactive)
REMARK    1  A    between atoms: N_4  and  N_5
REMARK    2  A    between atoms: C_8  and  C_9
REMARK                            x       y       z     vdW  Elec       q    Type
REMARK                         _______ _______ _______ _____ _____    ______ ____
ROOT
ATOM      1  N   UNL     1      21.986  10.130  38.680  0.00  0.00    +0.000 NA
ATOM      2  C   UNL     1      20.592   9.852  38.394  0.00  0.00    +0.000 A 
ATOM      3  N   UNL     1      19.916  10.193  37.315  0.00  0.00    +0.000 NA
ATOM      4  C   UNL     1      18.651   9.856  37.219  0.00  0.00    +0.000 A 
ATOM      5  C   UNL     1      18.115   9.160  38.272  0.00  0.00    +0.000 A 
ATOM      6  S   UNL     1      19.439   9.025  39.333  0.00  0.00    +0.000 S 
ENDROOT
BRANCH   4   7
ATOM      7  C   UNL     1      17.826  10.211  36.023  0.00  0.00    +0.000 A 
ATOM      8  C   UNL     1      17.988   9.777  34.726  0.00  0.00    +0.000 A 
ATOM      9  N   UNL     1      17.064  10.308  33.949  0.00  0.00    +0.000 NA
ATOM     10  C   UNL     1      16.289  11.090  34.697  0.00  0.00    +0.000 A 
ATOM     11  C   UNL     1      15.181  11.873  34.375  0.00  0.00    +0.000 A 
ATOM     12  C   UNL     1      14.543  12.602  35.351  0.00  0.00    +0.000 A 
ATOM     13  C   UNL     1      15.004  12.552  36.646  0.00  0.00    +0.000 A 
ATOM     14  C   UNL     1      16.096  11.786  36.991  0.00  0.00    +0.000 A 
ATOM     15  C   UNL     1      16.739  11.049  35.992  0.00  0.00    +0.000 A 
ENDBRANCH   4   7
BRANCH   1  19
ATOM     16  C   UNL     1      24.479  11.047  36.063  0.00  0.00    +0.000 C 
ATOM     17  C   UNL     1      23.646  10.284  37.011  0.00  0.00    +0.000 C 
ATOM     18  C   UNL     1      23.826   8.811  37.068  0.00  0.00    +0.000 C 
ATOM     19  N   UNL     1      22.773  10.822  37.788  0.00  0.00    +0.000 NA
ENDBRANCH   1  19
TORSDOF 2
ENDMDL
MODEL 3
REMARK VINA RESULT:      -6.2     18.906     22.663
REMARK  Name = 
REMARK  2 active torsions:
REMARK  status: ('A' for Active; 'I' for Inactive)
REMARK    1  A    between atoms: N_4  and  N_5
REMARK    2  A    between atoms: C_8  and  C_9
REMARK                            x       y       z     vdW  Elec       q    Type
REMARK                         _______ _______ _______ _____ _____    ______ ____
ROOT
ATOM      1  N   UNL     1      33.280  -2.211  34.406  0.00  0.00    +0.000 NA
ATOM      2  C   UNL     1      33.393  -3.650  34.272  0.00  0.00    +0.000 A 
ATOM      3  N   UNL     1      33.870  -4.320  33.242  0.00  0.00    +0.000 NA
ATOM      4  C   UNL     1      33.900  -5.631  33.290  0.00  0.00    +0.000 A 
ATOM      5  C   UNL     1      33.422  -6.220  34.433  0.00  0.00    +0.000 A 
ATOM      6  S   UNL     1      32.961  -4.876  35.369  0.00  0.00    +0.000 S 
ENDROOT
BRANCH   4   7
ATOM      7  C   UNL     1      34.428  -6.452  32.155  0.00  0.00    +0.000 A 
ATOM      8  C   UNL     1      35.321  -7.498  32.214  0.00  0.00    +0.000 A 
ATOM      9  N   UNL     1      35.545  -7.975  31.005  0.00  0.00    +0.000 NA
ATOM     10  C   UNL     1      34.822  -7.269  30.138  0.00  0.00    +0.000 A 
ATOM     11  C   UNL     1      34.693  -7.359  28.752  0.00  0.00    +0.000 A 
ATOM     12  C   UNL     1      33.864  -6.494  28.078  0.00  0.00    +0.000 A 
ATOM     13  C   UNL     1      33.161  -5.542  28.779  0.00  0.00    +0.000 A 
ATOM     14  C   UNL     1      33.270  -5.432  30.148  0.00  0.00    +0.000 A 
ATOM     15  C   UNL     1      34.116  -6.315  30.826  0.00  0.00    +0.000 A 
ENDBRANCH   4   7
BRANCH   1  19
ATOM     16  C   UNL     1      34.171   0.802  32.397  0.00  0.00    +0.000 C 
ATOM     17  C   UNL     1      33.730  -0.083  33.491  0.00  0.00    +0.000 C 
ATOM     18  C   UNL     1      33.313   0.545  34.771  0.00  0.00    +0.000 C 
ATOM     19  N   UNL     1      33.687  -1.366  33.399  0.00  0.00    +0.000 NA
ENDBRANCH   1  19
TORSDOF 2
ENDMDL
MODEL 4
REMARK VINA RESULT:      -6.1     11.726     12.305
REMARK  Name = 
REMARK  2 active torsions:
REMARK  status: ('A' for Active; 'I' for Inactive)
REMARK    1  A    between atoms: N_4  and  N_5
REMARK    2  A    between atoms: C_8  and  C_9
REMARK                            x       y       z     vdW  Elec       q    Type
REMARK                         _______ _______ _______ _____ _____    ______ ____
ROOT
ATOM      1  N   UNL     1      23.179  23.277  36.892  0.00  0.00    +0.000 NA
ATOM      2  C   UNL     1      21.948  22.527  37.041  0.00  0.00    +0.000 A 
ATOM      3  N   UNL     1      20.778  22.797  36.496  0.00  0.00    +0.000 NA
ATOM      4  C   UNL     1      19.761  22.004  36.739  0.00  0.00    +0.000 A 
ATOM      5  C   UNL     1      19.994  20.931  37.560  0.00  0.00    +0.000 A 
ATOM      6  S   UNL     1      21.644  21.112  37.936  0.00  0.00    +0.000 S 
ENDROOT
BRANCH   4   7
ATOM      7  C   UNL     1      18.407  22.254  36.152  0.00  0.00    +0.000 A 
ATOM      8  C   UNL     1      17.416  23.078  36.636  0.00  0.00    +0.000 A 
ATOM      9  N   UNL     1      16.362  23.037  35.844  0.00  0.00    +0.000 NA
ATOM     10  C   UNL     1      16.626  22.202  34.841  0.00  0.00    +0.000 A 
ATOM     11  C   UNL     1      15.863  21.805  33.744  0.00  0.00    +0.000 A 
ATOM     12  C   UNL     1      16.376  20.912  32.833  0.00  0.00    +0.000 A 
ATOM     13  C   UNL     1      17.646  20.415  33.010  0.00  0.00    +0.000 A 
ATOM     14  C   UNL     1      18.421  20.792  34.085  0.00  0.00    +0.000 A 
ATOM     15  C   UNL     1      17.892  21.699  35.007  0.00  0.00    +0.000 A 
ENDBRANCH   4   7
BRANCH   1  19
ATOM     16  C   UNL     1      24.259  26.445  35.249  0.00  0.00    +0.000 C 
ATOM     17  C   UNL     1      24.224  25.234  36.089  0.00  0.00    +0.000 C 
ATOM     18  C   UNL     1      25.399  24.949  36.951  0.00  0.00    +0.000 C 
ATOM     19  N   UNL     1      23.234  24.412  36.116  0.00  0.00    +0.000 NA
ENDBRANCH   1  19
TORSDOF 2
ENDMDL
MODEL 5
REMARK VINA RESULT:      -6.0     11.763     12.468
REMARK  Name = 
REMARK  2 active torsions:
REMARK  status: ('A' for Active; 'I' for Inactive)
REMARK    1  A    between atoms: N_4  and  N_5
REMARK    2  A    between atoms: C_8  and  C_9
REMARK                            x       y       z     vdW  Elec       q    Type
REMARK                         _______ _______ _______ _____ _____    ______ ____
ROOT
ATOM      1  N   UNL     1      23.031  23.126  37.227  0.00  0.00    +0.000 NA
ATOM      2  C   UNL     1      21.842  22.302  37.142  0.00  0.00    +0.000 A 
ATOM      3  N   UNL     1      20.935  22.306  36.185  0.00  0.00    +0.000 NA
ATOM      4  C   UNL     1      19.914  21.485  36.268  0.00  0.00    +0.000 A 
ATOM      5  C   UNL     1      19.863  20.668  37.368  0.00  0.00    +0.000 A 
ATOM      6  S   UNL     1      21.270  21.114  38.217  0.00  0.00    +0.000 S 
ENDROOT
BRANCH   4   7
ATOM      7  C   UNL     1      18.850  21.438  35.217  0.00  0.00    +0.000 A 
ATOM      8  C   UNL     1      18.910  20.835  33.980  0.00  0.00    +0.000 A 
ATOM      9  N   UNL     1      17.773  21.007  33.334  0.00  0.00    +0.000 NA
ATOM     10  C   UNL     1      16.954  21.712  34.111  0.00  0.00    +0.000 A 
ATOM     11  C   UNL     1      15.650  22.163  33.910  0.00  0.00    +0.000 A 
ATOM     12  C   UNL     1      15.011  22.888  34.888  0.00  0.00    +0.000 A 
ATOM     13  C   UNL     1      15.666  23.164  36.065  0.00  0.00    +0.000 A 
ATOM     14  C   UNL     1      16.955  22.731  36.289  0.00  0.00    +0.000 A 
ATOM     15  C   UNL     1      17.597  21.995  35.289  0.00  0.00    +0.000 A 
ENDBRANCH   4   7
BRANCH   1  19
ATOM     16  C   UNL     1      23.532  26.285  35.309  0.00  0.00    +0.000 C 
ATOM     17  C   UNL     1      23.202  25.320  36.373  0.00  0.00    +0.000 C 
ATOM     18  C   UNL     1      22.689  25.851  37.663  0.00  0.00    +0.000 C 
ATOM     19  N   UNL     1      23.333  24.045  36.248  0.00  0.00    +0.000 NA
ENDBRANCH   1  19
TORSDOF 2
ENDMDL
MODEL 6
REMARK VINA RESULT:      -6.0     28.358     30.418
REMARK  Name = 
REMARK  2 active torsions:
REMARK  status: ('A' for Active; 'I' for Inactive)
REMARK    1  A    between atoms: N_4  and  N_5
REMARK    2  A    between atoms: C_8  and  C_9
REMARK                            x       y       z     vdW  Elec       q    Type
REMARK                         _______ _______ _______ _____ _____    ______ ____
ROOT
ATOM      1  N   UNL     1      36.947  18.293  13.482  0.00  0.00    +0.000 NA
ATOM      2  C   UNL     1      36.462  19.253  12.512  0.00  0.00    +0.000 A 
ATOM      3  N   UNL     1      35.246  19.335  12.010  0.00  0.00    +0.000 NA
ATOM      4  C   UNL     1      34.977  20.277  11.135  0.00  0.00    +0.000 A 
ATOM      5  C   UNL     1      36.003  21.123  10.801  0.00  0.00    +0.000 A 
ATOM      6  S   UNL     1      37.287  20.532  11.750  0.00  0.00    +0.000 S 
ENDROOT
BRANCH   4   7
ATOM      7  C   UNL     1      33.618  20.425  10.526  0.00  0.00    +0.000 A 
ATOM      8  C   UNL     1      33.249  20.193   9.220  0.00  0.00    +0.000 A 
ATOM      9  N   UNL     1      31.961  20.433   9.061  0.00  0.00    +0.000 NA
ATOM     10  C   UNL     1      31.462  20.821  10.233  0.00  0.00    +0.000 A 
ATOM     11  C   UNL     1      30.171  21.190  10.611  0.00  0.00    +0.000 A 
ATOM     12  C   UNL     1      29.911  21.558  11.910  0.00  0.00    +0.000 A 
ATOM     13  C   UNL     1      30.930  21.558  12.833  0.00  0.00    +0.000 A 
ATOM     14  C   UNL     1      32.214  21.197  12.486  0.00  0.00    +0.000 A 
ATOM     15  C   UNL     1      32.470  20.826  11.163  0.00  0.00    +0.000 A 
ENDBRANCH   4   7
BRANCH   1  19
ATOM     16  C   UNL     1      35.310  15.792  15.712  0.00  0.00    +0.000 C 
ATOM     17  C   UNL     1      36.206  16.838  15.186  0.00  0.00    +0.000 C 
ATOM     18  C   UNL     1      37.263  17.368  16.085  0.00  0.00    +0.000 C 
ATOM     19  N   UNL     1      36.123  17.317  13.994  0.00  0.00    +0.000 NA
ENDBRANCH   1  19
TORSDOF 2
ENDMDL
MODEL 7
REMARK VINA RESULT:      -5.9      9.186     11.106
REMARK  Name = 
REMARK  2 active torsions:
REMARK  status: ('A' for Active; 'I' for Inactive)
REMARK    1  A    between atoms: N_4  and  N_5
REMARK    2  A    between atoms: C_8  and  C_9
REMARK                            x       y       z     vdW  Elec       q    Type
REMARK                         _______ _______ _______ _____ _____    ______ ____
ROOT
ATOM      1  N   UNL     1      19.336  22.357  35.378  0.00  0.00    +0.000 NA
ATOM      2  C   UNL     1      20.089  21.871  36.517  0.00  0.00    +0.000 A 
ATOM      3  N   UNL     1      20.491  20.636  36.740  0.00  0.00    +0.000 NA
ATOM      4  C   UNL     1      21.170  20.371  37.832  0.00  0.00    +0.000 A 
ATOM      5  C   UNL     1      21.414  21.421  38.679  0.00  0.00    +0.000 A 
ATOM      6  S   UNL     1      20.667  22.721  37.873  0.00  0.00    +0.000 S 
ENDROOT
BRANCH   4   7
ATOM      7  C   UNL     1      21.655  18.991  38.145  0.00  0.00    +0.000 A 
ATOM      8  C   UNL     1      22.906  18.463  37.914  0.00  0.00    +0.000 A 
ATOM      9  N   UNL     1      22.956  17.211  38.328  0.00  0.00    +0.000 NA
ATOM     10  C   UNL     1      21.765  16.891  38.831  0.00  0.00    +0.000 A 
ATOM     11  C   UNL     1      21.289  15.708  39.395  0.00  0.00    +0.000 A 
ATOM     12  C   UNL     1      19.992  15.632  39.847  0.00  0.00    +0.000 A 
ATOM     13  C   UNL     1      19.171  16.729  39.741  0.00  0.00    +0.000 A 
ATOM     14  C   UNL     1      19.617  17.910  39.189  0.00  0.00    +0.000 A 
ATOM     15  C   UNL     1      20.936  17.978  38.730  0.00  0.00    +0.000 A 
ENDBRANCH   4   7
BRANCH   1  19
ATOM     16  C   UNL     1      17.356  20.468  32.844  0.00  0.00    +0.000 C 
ATOM     17  C   UNL     1      17.745  21.383  33.933  0.00  0.00    +0.000 C 
ATOM     18  C   UNL     1      16.682  22.205  34.566  0.00  0.00    +0.000 C 
ATOM     19  N   UNL     1      18.951  21.510  34.364  0.00  0.00    +0.000 NA
ENDBRANCH   1  19
TORSDOF 2
ENDMDL
MODEL 8
REMARK VINA RESULT:      -5.8      3.127      6.303
REMARK  Name = 
REMARK  2 active torsions:
REMARK  status: ('A' for Active; 'I' for Inactive)
REMARK    1  A    between atoms: N_4  and  N_5
REMARK    2  A    between atoms: C_8  and  C_9
REMARK                            x       y       z     vdW  Elec       q    Type
REMARK                         _______ _______ _______ _____ _____    ______ ____
ROOT
ATOM      1  N   UNL     1      17.063   9.041  40.360  0.00  0.00    +0.000 NA
ATOM      2  C   UNL     1      17.719   9.817  39.326  0.00  0.00    +0.000 A 
ATOM      3  N   UNL     1      18.966  10.245  39.320  0.00  0.00    +0.000 NA
ATOM      4  C   UNL     1      19.399  10.939  38.294  0.00  0.00    +0.000 A 
ATOM      5  C   UNL     1      18.503  11.175  37.283  0.00  0.00    +0.000 A 
ATOM      6  S   UNL     1      17.101  10.395  37.850  0.00  0.00    +0.000 S 
ENDROOT
BRANCH   4   7
ATOM      7  C   UNL     1      20.803  11.454  38.224  0.00  0.00    +0.000 A 
ATOM      8  C   UNL     1      21.323  12.574  38.834  0.00  0.00    +0.000 A 
ATOM      9  N   UNL     1      22.602  12.702  38.537  0.00  0.00    +0.000 NA
ATOM     10  C   UNL     1      22.948  11.693  37.741  0.00  0.00    +0.000 A 
ATOM     11  C   UNL     1      24.165  11.360  37.146  0.00  0.00    +0.000 A 
ATOM     12  C   UNL     1      24.262  10.244  36.350  0.00  0.00    +0.000 A 
ATOM     13  C   UNL     1      23.153   9.457  36.145  0.00  0.00    +0.000 A 
ATOM     14  C   UNL     1      21.939   9.763  36.721  0.00  0.00    +0.000 A 
ATOM     15  C   UNL     1      21.849  10.900  37.528  0.00  0.00    +0.000 A 
ENDBRANCH   4   7
BRANCH   1  19
ATOM     16  C   UNL     1      18.711   7.058  43.054  0.00  0.00    +0.000 C 
ATOM     17  C   UNL     1      17.990   7.442  41.826  0.00  0.00    +0.000 C 
ATOM     18  C   UNL     1      17.539   6.359  40.915  0.00  0.00    +0.000 C 
ATOM     19  N   UNL     1      17.733   8.660  41.500  0.00  0.00    +0.000 NA
ENDBRANCH   1  19
TORSDOF 2
ENDMDL
MODEL 9
REMARK VINA RESULT:      -5.8     18.113     19.626
REMARK  Name = 
REMARK  2 active torsions:
REMARK  status: ('A' for Active; 'I' for Inactive)
REMARK    1  A    between atoms: N_4  and  N_5
REMARK    2  A    between atoms: C_8  and  C_9
REMARK                            x       y       z     vdW  Elec       q    Type
REMARK                         _______ _______ _______ _____ _____    ______ ____
ROOT
ATOM      1  N   UNL     1      25.516  24.526  29.348  0.00  0.00    +0.000 NA
ATOM      2  C   UNL     1      25.272  24.908  27.971  0.00  0.00    +0.000 A 
ATOM      3  N   UNL     1      25.772  24.349  26.888  0.00  0.00    +0.000 NA
ATOM      4  C   UNL     1      25.440  24.826  25.710  0.00  0.00    +0.000 A 
ATOM      5  C   UNL     1      24.580  25.894  25.695  0.00  0.00    +0.000 A 
ATOM      6  S   UNL     1      24.293  26.155  27.352  0.00  0.00    +0.000 S 
ENDROOT
BRANCH   4   7
ATOM      7  C   UNL     1      25.972  24.239  24.441  0.00  0.00    +0.000 A 
ATOM      8  C   UNL     1      25.385  23.284  23.641  0.00  0.00    +0.000 A 
ATOM      9  N   UNL     1      26.158  23.020  22.605  0.00  0.00    +0.000 NA
ATOM     10  C   UNL     1      27.248  23.779  22.694  0.00  0.00    +0.000 A 
ATOM     11  C   UNL     1      28.366  23.890  21.868  0.00  0.00    +0.000 A 
ATOM     12  C   UNL     1      29.377  24.765  22.189  0.00  0.00    +0.000 A 
ATOM     13  C   UNL     1      29.277  25.531  23.327  0.00  0.00    +0.000 A 
ATOM     14  C   UNL     1      28.182  25.441  24.159  0.00  0.00    +0.000 A 
ATOM     15  C   UNL     1      27.160  24.547  23.826  0.00  0.00    +0.000 A 
ENDBRANCH   4   7
BRANCH   1  19
ATOM     16  C   UNL     1      28.376  22.454  30.546  0.00  0.00    +0.000 C 
ATOM     17  C   UNL     1      27.501  23.596  30.222  0.00  0.00    +0.000 C 
ATOM     18  C   UNL     1      27.976  24.960  30.567  0.00  0.00    +0.000 C 
ATOM     19  N   UNL     1      26.349  23.475  29.659  0.00  0.00    +0.000 NA
ENDBRANCH   1  19
TORSDOF 2
ENDMDL
MODEL 10
REMARK VINA RESULT:      -5.7     28.522     30.484
REMARK  Name = 
REMARK  2 active torsions:
REMARK  status: ('A' for Active; 'I' for Inactive)
REMARK    1  A    between atoms: N_4  and  N_5
REMARK    2  A    between atoms: C_8  and  C_9
REMARK                            x       y       z     vdW  Elec       q    Type
REMARK                         _______ _______ _______ _____ _____    ______ ____
ROOT
ATOM      1  N   UNL     1      37.017  18.284  13.225  0.00  0.00    +0.000 NA
ATOM      2  C   UNL     1      36.282  19.284  12.477  0.00  0.00    +0.000 A 
ATOM      3  N   UNL     1      34.973  19.391  12.360  0.00  0.00    +0.000 NA
ATOM      4  C   UNL     1      34.472  20.367  11.639  0.00  0.00    +0.000 A 
ATOM      5  C   UNL     1      35.367  21.221  11.047  0.00  0.00    +0.000 A 
ATOM      6  S   UNL     1      36.864  20.588  11.551  0.00  0.00    +0.000 S 
ENDROOT
BRANCH   4   7
ATOM      7  C   UNL     1      32.997  20.545  11.466  0.00  0.00    +0.000 A 
ATOM      8  C   UNL     1      32.054  20.781  12.441  0.00  0.00    +0.000 A 
ATOM      9  N   UNL     1      30.855  20.882  11.901  0.00  0.00    +0.000 NA
ATOM     10  C   UNL     1      30.975  20.717  10.586  0.00  0.00    +0.000 A 
ATOM     11  C   UNL     1      30.027  20.728   9.563  0.00  0.00    +0.000 A 
ATOM     12  C   UNL     1      30.416  20.528   8.259  0.00  0.00    +0.000 A 
ATOM     13  C   UNL     1      31.744  20.317   7.971  0.00  0.00    +0.000 A 
ATOM     14  C   UNL     1      32.700  20.301   8.963  0.00  0.00    +0.000 A 
ATOM     15  C   UNL     1      32.297  20.505  10.286  0.00  0.00    +0.000 A 
ENDBRANCH   4   7
BRANCH   1  19
ATOM     16  C   UNL     1      35.688  16.087  15.928  0.00  0.00    +0.000 C 
ATOM     17  C   UNL     1      36.395  17.158  15.203  0.00  0.00    +0.000 C 
ATOM     18  C   UNL     1      37.183  18.135  15.996  0.00  0.00    +0.000 C 
ATOM     19  N   UNL     1      36.366  17.293  13.923  0.00  0.00    +0.000 NA
ENDBRANCH   1  19
TORSDOF 2
ENDMDL
