MODEL 1
REMARK VINA RESULT:      -7.7      0.000      0.000
REMARK  Name = 
REMARK  7 active torsions:
REMARK  status: ('A' for Active; 'I' for Inactive)
REMARK    1  A    between atoms: C_2  and  O_3
REMARK    2  A    between atoms: O_3  and  C_4
REMARK    3  A    between atoms: C_16  and  C_17
REMARK    4  A    between atoms: C_21  and  O_22
REMARK    5  A    between atoms: C_24  and  O_25
REMARK    6  A    between atoms: O_25  and  C_26
REMARK    7  A    between atoms: C_26  and  C_27
REMARK                            x       y       z     vdW  Elec       q    Type
REMARK                         _______ _______ _______ _____ _____    ______ ____
ROOT
ATOM      1  C   UNL     1      35.558  -1.536  16.617  0.00  0.00    +0.000 A 
ATOM      2  C   UNL     1      34.748  -0.545  17.127  0.00  0.00    +0.000 A 
ATOM      3  C   UNL     1      34.960   0.798  16.873  0.00  0.00    +0.000 A 
ATOM      4  C   UNL     1      36.010   1.213  16.084  0.00  0.00    +0.000 A 
ATOM      5  N   UNL     1      36.453   2.444  15.675  0.00  0.00    +0.000 NA
ATOM      6  C   UNL     1      37.515   2.290  14.924  0.00  0.00    +0.000 A 
ATOM      7  C   UNL     1      37.774   0.944  14.833  0.00  0.00    +0.000 A 
ATOM      8  C   UNL     1      36.833   0.234  15.564  0.00  0.00    +0.000 A 
ATOM      9  C   UNL     1      36.605  -1.107  15.829  0.00  0.00    +0.000 A 
ATOM     10  C   UNL     1      38.928   0.541  14.021  0.00  0.00    +0.000 C 
ATOM     11  C   UNL     1      39.102   1.364  12.787  0.00  0.00    +0.000 C 
ATOM     12  N   UNL     1      38.369   2.607  12.768  0.00  0.00    +0.000 NA
ATOM     13  C   UNL     1      38.519   3.228  14.182  0.00  0.00    +0.000 C 
ENDROOT
BRANCH  13  14
ATOM     14  C   UNL     1      37.609   4.513  13.993  0.00  0.00    +0.000 A 
ATOM     15  C   UNL     1      36.645   4.337  12.972  0.00  0.00    +0.000 A 
ATOM     16  C   UNL     1      35.760   5.358  12.757  0.00  0.00    +0.000 A 
ATOM     17  C   UNL     1      35.810   6.518  13.511  0.00  0.00    +0.000 A 
ATOM     18  C   UNL     1      36.773   6.630  14.491  0.00  0.00    +0.000 A 
ATOM     19  C   UNL     1      37.686   5.600  14.726  0.00  0.00    +0.000 A 
BRANCH  18  20
ATOM     20  O   UNL     1      36.861   7.771  15.269  0.00  0.00    +0.000 OA
ATOM     21  C   UNL     1      35.770   8.647  15.463  0.00  0.00    +0.000 C 
ENDBRANCH  18  20
BRANCH  19  22
ATOM     22  O   UNL     1      38.597   5.800  15.695  0.00  0.00    +0.000 OA
BRANCH  22  23
ATOM     23  C   UNL     1      38.739   5.536  16.995  0.00  0.00    +0.000 C 
BRANCH  23  24
ATOM     24  C   UNL     1      39.804   5.884  17.869  0.00  0.00    +0.000 A 
ATOM     25  C   UNL     1      39.650   6.002  19.259  0.00  0.00    +0.000 A 
ATOM     26  C   UNL     1      40.699   6.381  20.061  0.00  0.00    +0.000 A 
ATOM     27  C   UNL     1      41.949   6.661  19.548  0.00  0.00    +0.000 A 
ATOM     28  C   UNL     1      42.129   6.553  18.200  0.00  0.00    +0.000 A 
ATOM     29  C   UNL     1      41.094   6.177  17.391  0.00  0.00    +0.000 A 
ENDBRANCH  23  24
ENDBRANCH  22  23
ENDBRANCH  19  22
ENDBRANCH  13  14
BRANCH   1  30
ATOM     30  O   UNL     1      35.326  -2.879  16.887  0.00  0.00    +0.000 OA
BRANCH  30  32
ATOM     31  C   UNL     1      34.315  -4.041  15.108  0.00  0.00    +0.000 C 
ATOM     32  C   UNL     1      35.506  -3.930  16.025  0.00  0.00    +0.000 C 
ENDBRANCH  30  32
ENDBRANCH   1  30
TORSDOF 7
ENDMDL
MODEL 2
REMARK VINA RESULT:      -7.4      2.551      7.555
REMARK  Name = 
REMARK  7 active torsions:
REMARK  status: ('A' for Active; 'I' for Inactive)
REMARK    1  A    between atoms: C_2  and  O_3
REMARK    2  A    between atoms: O_3  and  C_4
REMARK    3  A    between atoms: C_16  and  C_17
REMARK    4  A    between atoms: C_21  and  O_22
REMARK    5  A    between atoms: C_24  and  O_25
REMARK    6  A    between atoms: O_25  and  C_26
REMARK    7  A    between atoms: C_26  and  C_27
REMARK                            x       y       z     vdW  Elec       q    Type
REMARK                         _______ _______ _______ _____ _____    ______ ____
ROOT
ATOM      1  C   UNL     1      38.972   6.378  17.469  0.00  0.00    +0.000 A 
ATOM      2  C   UNL     1      38.339   5.286  18.020  0.00  0.00    +0.000 A 
ATOM      3  C   UNL     1      38.253   4.067  17.372  0.00  0.00    +0.000 A 
ATOM      4  C   UNL     1      38.808   3.886  16.124  0.00  0.00    +0.000 A 
ATOM      5  N   UNL     1      38.874   2.819  15.267  0.00  0.00    +0.000 NA
ATOM      6  C   UNL     1      39.521   3.177  14.186  0.00  0.00    +0.000 A 
ATOM      7  C   UNL     1      39.890   4.492  14.332  0.00  0.00    +0.000 A 
ATOM      8  C   UNL     1      39.448   4.970  15.556  0.00  0.00    +0.000 A 
ATOM      9  C   UNL     1      39.523   6.184  16.220  0.00  0.00    +0.000 A 
ATOM     10  C   UNL     1      40.644   5.100  13.229  0.00  0.00    +0.000 C 
ATOM     11  C   UNL     1      41.630   4.169  12.602  0.00  0.00    +0.000 C 
ATOM     12  N   UNL     1      41.443   2.773  12.911  0.00  0.00    +0.000 NA
ATOM     13  C   UNL     1      39.916   2.506  12.831  0.00  0.00    +0.000 C 
ENDROOT
BRANCH  13  14
ATOM     14  C   UNL     1      39.902   0.980  13.265  0.00  0.00    +0.000 A 
ATOM     15  C   UNL     1      41.112   0.593  13.888  0.00  0.00    +0.000 A 
ATOM     16  C   UNL     1      41.196  -0.688  14.361  0.00  0.00    +0.000 A 
ATOM     17  C   UNL     1      40.136  -1.569  14.231  0.00  0.00    +0.000 A 
ATOM     18  C   UNL     1      38.984  -1.133  13.613  0.00  0.00    +0.000 A 
ATOM     19  C   UNL     1      38.877   0.171  13.123  0.00  0.00    +0.000 A 
BRANCH  18  20
ATOM     20  O   UNL     1      37.899  -1.978  13.461  0.00  0.00    +0.000 OA
ATOM     21  C   UNL     1      37.566  -2.968  14.411  0.00  0.00    +0.000 C 
ENDBRANCH  18  20
BRANCH  19  22
ATOM     22  O   UNL     1      37.720   0.507  12.526  0.00  0.00    +0.000 OA
BRANCH  22  23
ATOM     23  C   UNL     1      36.581   1.123  12.844  0.00  0.00    +0.000 C 
BRANCH  23  24
ATOM     24  C   UNL     1      36.024   1.371  14.128  0.00  0.00    +0.000 A 
ATOM     25  C   UNL     1      35.483   2.611  14.505  0.00  0.00    +0.000 A 
ATOM     26  C   UNL     1      34.992   2.816  15.771  0.00  0.00    +0.000 A 
ATOM     27  C   UNL     1      35.002   1.825  16.731  0.00  0.00    +0.000 A 
ATOM     28  C   UNL     1      35.520   0.609  16.393  0.00  0.00    +0.000 A 
ATOM     29  C   UNL     1      36.013   0.391  15.136  0.00  0.00    +0.000 A 
ENDBRANCH  23  24
ENDBRANCH  22  23
ENDBRANCH  19  22
ENDBRANCH  13  14
BRANCH   1  30
ATOM     30  O   UNL     1      39.044   7.594  18.139  0.00  0.00    +0.000 OA
BRANCH  30  32
ATOM     31  C   UNL     1      38.916   8.016  20.450  0.00  0.00    +0.000 C 
ATOM     32  C   UNL     1      38.200   8.037  19.124  0.00  0.00    +0.000 C 
ENDBRANCH  30  32
ENDBRANCH   1  30
TORSDOF 7
ENDMDL
MODEL 3
REMARK VINA RESULT:      -7.1      2.867      7.376
REMARK  Name = 
REMARK  7 active torsions:
REMARK  status: ('A' for Active; 'I' for Inactive)
REMARK    1  A    between atoms: C_2  and  O_3
REMARK    2  A    between atoms: O_3  and  C_4
REMARK    3  A    between atoms: C_16  and  C_17
REMARK    4  A    between atoms: C_21  and  O_22
REMARK    5  A    between atoms: C_24  and  O_25
REMARK    6  A    between atoms: O_25  and  C_26
REMARK    7  A    between atoms: C_26  and  C_27
REMARK                            x       y       z     vdW  Elec       q    Type
REMARK                         _______ _______ _______ _____ _____    ______ ____
ROOT
ATOM      1  C   UNL     1      39.643   5.935  18.686  0.00  0.00    +0.000 A 
ATOM      2  C   UNL     1      40.475   6.296  17.649  0.00  0.00    +0.000 A 
ATOM      3  C   UNL     1      40.326   5.803  16.366  0.00  0.00    +0.000 A 
ATOM      4  C   UNL     1      39.320   4.913  16.060  0.00  0.00    +0.000 A 
ATOM      5  N   UNL     1      38.943   4.274  14.908  0.00  0.00    +0.000 NA
ATOM      6  C   UNL     1      37.904   3.516  15.157  0.00  0.00    +0.000 A 
ATOM      7  C   UNL     1      37.589   3.658  16.487  0.00  0.00    +0.000 A 
ATOM      8  C   UNL     1      38.475   4.540  17.088  0.00  0.00    +0.000 A 
ATOM      9  C   UNL     1      38.639   5.045  18.367  0.00  0.00    +0.000 A 
ATOM     10  C   UNL     1      36.437   2.897  16.984  0.00  0.00    +0.000 C 
ATOM     11  C   UNL     1      35.308   2.826  16.009  0.00  0.00    +0.000 C 
ATOM     12  N   UNL     1      35.644   3.179  14.651  0.00  0.00    +0.000 NA
ATOM     13  C   UNL     1      37.015   2.517  14.350  0.00  0.00    +0.000 C 
ENDROOT
BRANCH  13  14
ATOM     14  C   UNL     1      37.246   3.067  12.880  0.00  0.00    +0.000 A 
ATOM     15  C   UNL     1      36.612   4.316  12.674  0.00  0.00    +0.000 A 
ATOM     16  C   UNL     1      36.791   4.921  11.460  0.00  0.00    +0.000 A 
ATOM     17  C   UNL     1      37.562   4.330  10.473  0.00  0.00    +0.000 A 
ATOM     18  C   UNL     1      38.152   3.112  10.735  0.00  0.00    +0.000 A 
ATOM     19  C   UNL     1      37.982   2.477  11.967  0.00  0.00    +0.000 A 
BRANCH  18  20
ATOM     20  O   UNL     1      38.931   2.484   9.780  0.00  0.00    +0.000 OA
ATOM     21  C   UNL     1      38.381   1.857   8.640  0.00  0.00    +0.000 C 
ENDBRANCH  18  20
BRANCH  19  22
ATOM     22  O   UNL     1      38.587   1.288  12.131  0.00  0.00    +0.000 OA
BRANCH  22  23
ATOM     23  C   UNL     1      38.240   0.010  12.292  0.00  0.00    +0.000 C 
BRANCH  23  24
ATOM     24  C   UNL     1      38.462  -0.846  13.405  0.00  0.00    +0.000 A 
ATOM     25  C   UNL     1      39.244  -0.480  14.512  0.00  0.00    +0.000 A 
ATOM     26  C   UNL     1      39.464  -1.355  15.547  0.00  0.00    +0.000 A 
ATOM     27  C   UNL     1      38.934  -2.628  15.556  0.00  0.00    +0.000 A 
ATOM     28  C   UNL     1      38.168  -3.012  14.494  0.00  0.00    +0.000 A 
ATOM     29  C   UNL     1      37.941  -2.151  13.457  0.00  0.00    +0.000 A 
ENDBRANCH  23  24
ENDBRANCH  22  23
ENDBRANCH  19  22
ENDBRANCH  13  14
BRANCH   1  30
ATOM     30  O   UNL     1      39.814   6.444  19.968  0.00  0.00    +0.000 OA
BRANCH  30  32
ATOM     31  C   UNL     1      38.561   8.348  20.550  0.00  0.00    +0.000 C 
ATOM     32  C   UNL     1      39.931   7.764  20.316  0.00  0.00    +0.000 C 
ENDBRANCH  30  32
ENDBRANCH   1  30
TORSDOF 7
ENDMDL
MODEL 4
REMARK VINA RESULT:      -7.0      3.581      6.998
REMARK  Name = 
REMARK  7 active torsions:
REMARK  status: ('A' for Active; 'I' for Inactive)
REMARK    1  A    between atoms: C_2  and  O_3
REMARK    2  A    between atoms: O_3  and  C_4
REMARK    3  A    between atoms: C_16  and  C_17
REMARK    4  A    between atoms: C_21  and  O_22
REMARK    5  A    between atoms: C_24  and  O_25
REMARK    6  A    between atoms: O_25  and  C_26
REMARK    7  A    between atoms: C_26  and  C_27
REMARK                            x       y       z     vdW  Elec       q    Type
REMARK                         _______ _______ _______ _____ _____    ______ ____
ROOT
ATOM      1  C   UNL     1      42.234  -2.637  13.225  0.00  0.00    +0.000 A 
ATOM      2  C   UNL     1      42.413  -1.404  13.811  0.00  0.00    +0.000 A 
ATOM      3  C   UNL     1      41.372  -0.685  14.371  0.00  0.00    +0.000 A 
ATOM      4  C   UNL     1      40.086  -1.179  14.368  0.00  0.00    +0.000 A 
ATOM      5  N   UNL     1      38.890  -0.699  14.834  0.00  0.00    +0.000 NA
ATOM      6  C   UNL     1      37.947  -1.570  14.573  0.00  0.00    +0.000 A 
ATOM      7  C   UNL     1      38.526  -2.637  13.930  0.00  0.00    +0.000 A 
ATOM      8  C   UNL     1      39.887  -2.415  13.784  0.00  0.00    +0.000 A 
ATOM      9  C   UNL     1      40.942  -3.121  13.228  0.00  0.00    +0.000 A 
ATOM     10  C   UNL     1      37.644  -3.746  13.550  0.00  0.00    +0.000 C 
ATOM     11  C   UNL     1      36.588  -4.038  14.566  0.00  0.00    +0.000 C 
ATOM     12  N   UNL     1      36.372  -3.002  15.546  0.00  0.00    +0.000 NA
ATOM     13  C   UNL     1      36.401  -1.655  14.776  0.00  0.00    +0.000 C 
ENDROOT
BRANCH  13  14
ATOM     14  C   UNL     1      36.227  -0.659  15.998  0.00  0.00    +0.000 A 
ATOM     15  C   UNL     1      36.406  -1.308  17.243  0.00  0.00    +0.000 A 
ATOM     16  C   UNL     1      36.340  -0.538  18.371  0.00  0.00    +0.000 A 
ATOM     17  C   UNL     1      36.105   0.825  18.293  0.00  0.00    +0.000 A 
ATOM     18  C   UNL     1      35.939   1.399  17.051  0.00  0.00    +0.000 A 
ATOM     19  C   UNL     1      36.002   0.630  15.887  0.00  0.00    +0.000 A 
BRANCH  18  20
ATOM     20  O   UNL     1      35.702   2.756  16.925  0.00  0.00    +0.000 OA
ATOM     21  C   UNL     1      36.741   3.713  16.925  0.00  0.00    +0.000 C 
ENDBRANCH  18  20
BRANCH  19  22
ATOM     22  O   UNL     1      35.818   1.272  14.720  0.00  0.00    +0.000 OA
BRANCH  22  23
ATOM     23  C   UNL     1      36.521   2.042  13.888  0.00  0.00    +0.000 C 
BRANCH  23  24
ATOM     24  C   UNL     1      37.548   1.673  12.978  0.00  0.00    +0.000 A 
ATOM     25  C   UNL     1      37.385   0.687  11.992  0.00  0.00    +0.000 A 
ATOM     26  C   UNL     1      38.420   0.336  11.160  0.00  0.00    +0.000 A 
ATOM     27  C   UNL     1      39.663   0.927  11.247  0.00  0.00    +0.000 A 
ATOM     28  C   UNL     1      39.851   1.890  12.195  0.00  0.00    +0.000 A 
ATOM     29  C   UNL     1      38.830   2.250  13.029  0.00  0.00    +0.000 A 
ENDBRANCH  23  24
ENDBRANCH  22  23
ENDBRANCH  19  22
ENDBRANCH  13  14
BRANCH   1  30
ATOM     30  O   UNL     1      43.295  -3.341  12.668  0.00  0.00    +0.000 OA
BRANCH  30  32
ATOM     31  C   UNL     1      44.676  -2.835  10.832  0.00  0.00    +0.000 C 
ATOM     32  C   UNL     1      43.489  -3.613  11.338  0.00  0.00    +0.000 C 
ENDBRANCH  30  32
ENDBRANCH   1  30
TORSDOF 7
ENDMDL
MODEL 5
REMARK VINA RESULT:      -7.0      5.202      7.722
REMARK  Name = 
REMARK  7 active torsions:
REMARK  status: ('A' for Active; 'I' for Inactive)
REMARK    1  A    between atoms: C_2  and  O_3
REMARK    2  A    between atoms: O_3  and  C_4
REMARK    3  A    between atoms: C_16  and  C_17
REMARK    4  A    between atoms: C_21  and  O_22
REMARK    5  A    between atoms: C_24  and  O_25
REMARK    6  A    between atoms: O_25  and  C_26
REMARK    7  A    between atoms: C_26  and  C_27
REMARK                            x       y       z     vdW  Elec       q    Type
REMARK                         _______ _______ _______ _____ _____    ______ ____
ROOT
ATOM      1  C   UNL     1      38.478  -3.498  16.470  0.00  0.00    +0.000 A 
ATOM      2  C   UNL     1      37.523  -3.525  15.478  0.00  0.00    +0.000 A 
ATOM      3  C   UNL     1      37.777  -3.107  14.185  0.00  0.00    +0.000 A 
ATOM      4  C   UNL     1      39.020  -2.636  13.823  0.00  0.00    +0.000 A 
ATOM      5  N   UNL     1      39.545  -2.165  12.648  0.00  0.00    +0.000 NA
ATOM      6  C   UNL     1      40.798  -1.834  12.840  0.00  0.00    +0.000 A 
ATOM      7  C   UNL     1      41.104  -2.092  14.154  0.00  0.00    +0.000 A 
ATOM      8  C   UNL     1      39.991  -2.602  14.805  0.00  0.00    +0.000 A 
ATOM      9  C   UNL     1      39.718  -3.025  16.095  0.00  0.00    +0.000 A 
ATOM     10  C   UNL     1      42.476  -1.801  14.588  0.00  0.00    +0.000 C 
ATOM     11  C   UNL     1      43.506  -2.132  13.558  0.00  0.00    +0.000 C 
ATOM     12  N   UNL     1      43.001  -2.328  12.221  0.00  0.00    +0.000 NA
ATOM     13  C   UNL     1      41.947  -1.214  11.982  0.00  0.00    +0.000 C 
ENDROOT
BRANCH  13  14
ATOM     14  C   UNL     1      41.462  -1.630  10.530  0.00  0.00    +0.000 A 
ATOM     15  C   UNL     1      41.727  -2.993  10.251  0.00  0.00    +0.000 A 
ATOM     16  C   UNL     1      41.299  -3.485   9.049  0.00  0.00    +0.000 A 
ATOM     17  C   UNL     1      40.633  -2.677   8.141  0.00  0.00    +0.000 A 
ATOM     18  C   UNL     1      40.406  -1.358   8.471  0.00  0.00    +0.000 A 
ATOM     19  C   UNL     1      40.836  -0.836   9.693  0.00  0.00    +0.000 A 
BRANCH  18  20
ATOM     20  O   UNL     1      39.746  -0.514   7.596  0.00  0.00    +0.000 OA
ATOM     21  C   UNL     1      39.557  -0.827   6.232  0.00  0.00    +0.000 C 
ENDBRANCH  18  20
BRANCH  19  22
ATOM     22  O   UNL     1      40.580   0.464   9.926  0.00  0.00    +0.000 OA
BRANCH  22  23
ATOM     23  C   UNL     1      39.598   1.206  10.440  0.00  0.00    +0.000 C 
BRANCH  23  24
ATOM     24  C   UNL     1      38.873   1.021  11.648  0.00  0.00    +0.000 A 
ATOM     25  C   UNL     1      37.575   0.486  11.692  0.00  0.00    +0.000 A 
ATOM     26  C   UNL     1      36.897   0.363  12.880  0.00  0.00    +0.000 A 
ATOM     27  C   UNL     1      37.448   0.753  14.082  0.00  0.00    +0.000 A 
ATOM     28  C   UNL     1      38.709   1.275  14.072  0.00  0.00    +0.000 A 
ATOM     29  C   UNL     1      39.395   1.404  12.897  0.00  0.00    +0.000 A 
ENDBRANCH  23  24
ENDBRANCH  22  23
ENDBRANCH  19  22
ENDBRANCH  13  14
BRANCH   1  30
ATOM     30  O   UNL     1      38.199  -3.923  17.764  0.00  0.00    +0.000 OA
BRANCH  30  32
ATOM     31  C   UNL     1      37.781  -2.010  19.068  0.00  0.00    +0.000 C 
ATOM     32  C   UNL     1      38.558  -3.294  18.928  0.00  0.00    +0.000 C 
ENDBRANCH  30  32
ENDBRANCH   1  30
TORSDOF 7
ENDMDL
MODEL 6
REMARK VINA RESULT:      -7.0      3.504      7.609
REMARK  Name = 
REMARK  7 active torsions:
REMARK  status: ('A' for Active; 'I' for Inactive)
REMARK    1  A    between atoms: C_2  and  O_3
REMARK    2  A    between atoms: O_3  and  C_4
REMARK    3  A    between atoms: C_16  and  C_17
REMARK    4  A    between atoms: C_21  and  O_22
REMARK    5  A    between atoms: C_24  and  O_25
REMARK    6  A    between atoms: O_25  and  C_26
REMARK    7  A    between atoms: C_26  and  C_27
REMARK                            x       y       z     vdW  Elec       q    Type
REMARK                         _______ _______ _______ _____ _____    ______ ____
ROOT
ATOM      1  C   UNL     1      37.223   2.767  10.340  0.00  0.00    +0.000 A 
ATOM      2  C   UNL     1      36.923   1.431  10.182  0.00  0.00    +0.000 A 
ATOM      3  C   UNL     1      36.802   0.562  11.250  0.00  0.00    +0.000 A 
ATOM      4  C   UNL     1      36.978   1.000  12.545  0.00  0.00    +0.000 A 
ATOM      5  N   UNL     1      36.923   0.380  13.766  0.00  0.00    +0.000 NA
ATOM      6  C   UNL     1      37.174   1.258  14.704  0.00  0.00    +0.000 A 
ATOM      7  C   UNL     1      37.395   2.471  14.098  0.00  0.00    +0.000 A 
ATOM      8  C   UNL     1      37.278   2.336  12.723  0.00  0.00    +0.000 A 
ATOM      9  C   UNL     1      37.395   3.193  11.640  0.00  0.00    +0.000 A 
ATOM     10  C   UNL     1      37.688   3.611  14.974  0.00  0.00    +0.000 C 
ATOM     11  C   UNL     1      36.897   3.604  16.241  0.00  0.00    +0.000 C 
ATOM     12  N   UNL     1      36.268   2.348  16.568  0.00  0.00    +0.000 NA
ATOM     13  C   UNL     1      37.312   1.241  16.260  0.00  0.00    +0.000 C 
ENDROOT
BRANCH  13  14
ATOM     14  C   UNL     1      36.435  -0.037  16.601  0.00  0.00    +0.000 A 
ATOM     15  C   UNL     1      35.079   0.295  16.833  0.00  0.00    +0.000 A 
ATOM     16  C   UNL     1      34.211  -0.733  17.078  0.00  0.00    +0.000 A 
ATOM     17  C   UNL     1      34.647  -2.047  17.097  0.00  0.00    +0.000 A 
ATOM     18  C   UNL     1      35.981  -2.306  16.864  0.00  0.00    +0.000 A 
ATOM     19  C   UNL     1      36.883  -1.271  16.613  0.00  0.00    +0.000 A 
BRANCH  18  20
ATOM     20  O   UNL     1      36.461  -3.603  16.873  0.00  0.00    +0.000 OA
ATOM     21  C   UNL     1      35.910  -4.626  16.069  0.00  0.00    +0.000 C 
ENDBRANCH  18  20
BRANCH  19  22
ATOM     22  O   UNL     1      38.167  -1.615  16.406  0.00  0.00    +0.000 OA
BRANCH  22  23
ATOM     23  C   UNL     1      38.931  -2.041  15.399  0.00  0.00    +0.000 C 
BRANCH  23  24
ATOM     24  C   UNL     1      40.156  -1.506  14.916  0.00  0.00    +0.000 A 
ATOM     25  C   UNL     1      40.298  -0.178  14.483  0.00  0.00    +0.000 A 
ATOM     26  C   UNL     1      41.492   0.284  13.986  0.00  0.00    +0.000 A 
ATOM     27  C   UNL     1      42.606  -0.524  13.887  0.00  0.00    +0.000 A 
ATOM     28  C   UNL     1      42.499  -1.819  14.303  0.00  0.00    +0.000 A 
ATOM     29  C   UNL     1      41.317  -2.292  14.799  0.00  0.00    +0.000 A 
ENDBRANCH  23  24
ENDBRANCH  22  23
ENDBRANCH  19  22
ENDBRANCH  13  14
BRANCH   1  30
ATOM     30  O   UNL     1      37.340   3.621   9.250  0.00  0.00    +0.000 OA
BRANCH  30  32
ATOM     31  C   UNL     1      35.551   4.000   7.770  0.00  0.00    +0.000 C 
ATOM     32  C   UNL     1      36.911   3.380   7.971  0.00  0.00    +0.000 C 
ENDBRANCH  30  32
ENDBRANCH   1  30
TORSDOF 7
ENDMDL
MODEL 7
REMARK VINA RESULT:      -7.0      3.391      7.545
REMARK  Name = 
REMARK  7 active torsions:
REMARK  status: ('A' for Active; 'I' for Inactive)
REMARK    1  A    between atoms: C_2  and  O_3
REMARK    2  A    between atoms: O_3  and  C_4
REMARK    3  A    between atoms: C_16  and  C_17
REMARK    4  A    between atoms: C_21  and  O_22
REMARK    5  A    between atoms: C_24  and  O_25
REMARK    6  A    between atoms: O_25  and  C_26
REMARK    7  A    between atoms: C_26  and  C_27
REMARK                            x       y       z     vdW  Elec       q    Type
REMARK                         _______ _______ _______ _____ _____    ______ ____
ROOT
ATOM      1  C   UNL     1      34.778   7.088   8.184  0.00  0.00    +0.000 A 
ATOM      2  C   UNL     1      35.633   6.031   7.961  0.00  0.00    +0.000 A 
ATOM      3  C   UNL     1      36.206   5.305   8.988  0.00  0.00    +0.000 A 
ATOM      4  C   UNL     1      35.943   5.610  10.305  0.00  0.00    +0.000 A 
ATOM      5  N   UNL     1      36.359   5.079  11.498  0.00  0.00    +0.000 NA
ATOM      6  C   UNL     1      35.810   5.749  12.481  0.00  0.00    +0.000 A 
ATOM      7  C   UNL     1      35.021   6.730  11.933  0.00  0.00    +0.000 A 
ATOM      8  C   UNL     1      35.087   6.667  10.549  0.00  0.00    +0.000 A 
ATOM      9  C   UNL     1      34.522   7.384   9.506  0.00  0.00    +0.000 A 
ATOM     10  C   UNL     1      34.296   7.601  12.864  0.00  0.00    +0.000 C 
ATOM     11  C   UNL     1      33.773   6.881  14.064  0.00  0.00    +0.000 C 
ATOM     12  N   UNL     1      34.347   5.579  14.301  0.00  0.00    +0.000 NA
ATOM     13  C   UNL     1      35.871   5.717  14.042  0.00  0.00    +0.000 C 
ENDROOT
BRANCH  13  14
ATOM     14  C   UNL     1      36.306   4.209  14.271  0.00  0.00    +0.000 A 
ATOM     15  C   UNL     1      35.191   3.358  14.464  0.00  0.00    +0.000 A 
ATOM     16  C   UNL     1      35.438   2.020  14.612  0.00  0.00    +0.000 A 
ATOM     17  C   UNL     1      36.729   1.523  14.575  0.00  0.00    +0.000 A 
ATOM     18  C   UNL     1      37.773   2.403  14.386  0.00  0.00    +0.000 A 
ATOM     19  C   UNL     1      37.543   3.772  14.233  0.00  0.00    +0.000 A 
BRANCH  18  20
ATOM     20  O   UNL     1      39.080   1.952  14.342  0.00  0.00    +0.000 OA
ATOM     21  C   UNL     1      39.441   0.630  14.684  0.00  0.00    +0.000 C 
ENDBRANCH  18  20
BRANCH  19  22
ATOM     22  O   UNL     1      38.621   4.558  14.062  0.00  0.00    +0.000 OA
BRANCH  22  23
ATOM     23  C   UNL     1      39.349   5.416  14.778  0.00  0.00    +0.000 C 
BRANCH  23  24
ATOM     24  C   UNL     1      39.527   5.482  16.187  0.00  0.00    +0.000 A 
ATOM     25  C   UNL     1      38.649   4.879  17.102  0.00  0.00    +0.000 A 
ATOM     26  C   UNL     1      38.839   5.003  18.456  0.00  0.00    +0.000 A 
ATOM     27  C   UNL     1      39.892   5.720  18.986  0.00  0.00    +0.000 A 
ATOM     28  C   UNL     1      40.763   6.316  18.121  0.00  0.00    +0.000 A 
ATOM     29  C   UNL     1      40.586   6.201  16.771  0.00  0.00    +0.000 A 
ENDBRANCH  23  24
ENDBRANCH  22  23
ENDBRANCH  19  22
ENDBRANCH  13  14
BRANCH   1  30
ATOM     30  O   UNL     1      34.215   7.805   7.134  0.00  0.00    +0.000 OA
BRANCH  30  32
ATOM     31  C   UNL     1      32.989   9.500   6.058  0.00  0.00    +0.000 C 
ATOM     32  C   UNL     1      34.066   9.165   7.059  0.00  0.00    +0.000 C 
ENDBRANCH  30  32
ENDBRANCH   1  30
TORSDOF 7
ENDMDL
MODEL 8
REMARK VINA RESULT:      -7.0      1.818      2.682
REMARK  Name = 
REMARK  7 active torsions:
REMARK  status: ('A' for Active; 'I' for Inactive)
REMARK    1  A    between atoms: C_2  and  O_3
REMARK    2  A    between atoms: O_3  and  C_4
REMARK    3  A    between atoms: C_16  and  C_17
REMARK    4  A    between atoms: C_21  and  O_22
REMARK    5  A    between atoms: C_24  and  O_25
REMARK    6  A    between atoms: O_25  and  C_26
REMARK    7  A    between atoms: C_26  and  C_27
REMARK                            x       y       z     vdW  Elec       q    Type
REMARK                         _______ _______ _______ _____ _____    ______ ____
ROOT
ATOM      1  C   UNL     1      36.658   0.056  15.726  0.00  0.00    +0.000 A 
ATOM      2  C   UNL     1      35.811   0.680  16.615  0.00  0.00    +0.000 A 
ATOM      3  C   UNL     1      35.550   2.038  16.570  0.00  0.00    +0.000 A 
ATOM      4  C   UNL     1      36.136   2.841  15.617  0.00  0.00    +0.000 A 
ATOM      5  N   UNL     1      36.066   4.182  15.341  0.00  0.00    +0.000 NA
ATOM      6  C   UNL     1      36.832   4.449  14.313  0.00  0.00    +0.000 A 
ATOM      7  C   UNL     1      37.412   3.273  13.903  0.00  0.00    +0.000 A 
ATOM      8  C   UNL     1      36.988   2.232  14.716  0.00  0.00    +0.000 A 
ATOM      9  C   UNL     1      37.237   0.871  14.776  0.00  0.00    +0.000 A 
ATOM     10  C   UNL     1      38.311   3.340  12.746  0.00  0.00    +0.000 C 
ATOM     11  C   UNL     1      37.847   4.288  11.689  0.00  0.00    +0.000 C 
ATOM     12  N   UNL     1      36.833   5.226  12.104  0.00  0.00    +0.000 NA
ATOM     13  C   UNL     1      37.247   5.726  13.514  0.00  0.00    +0.000 C 
ENDROOT
BRANCH  13  14
ATOM     14  C   UNL     1      36.005   6.662  13.827  0.00  0.00    +0.000 A 
ATOM     15  C   UNL     1      34.844   6.259  13.124  0.00  0.00    +0.000 A 
ATOM     16  C   UNL     1      33.691   6.955  13.359  0.00  0.00    +0.000 A 
ATOM     17  C   UNL     1      33.665   8.015  14.251  0.00  0.00    +0.000 A 
ATOM     18  C   UNL     1      34.829   8.360  14.904  0.00  0.00    +0.000 A 
ATOM     19  C   UNL     1      36.017   7.663  14.677  0.00  0.00    +0.000 A 
BRANCH  18  20
ATOM     20  O   UNL     1      34.850   9.411  15.802  0.00  0.00    +0.000 OA
ATOM     21  C   UNL     1      33.782   9.678  16.688  0.00  0.00    +0.000 C 
ENDBRANCH  18  20
BRANCH  19  22
ATOM     22  O   UNL     1      37.106   8.075  15.350  0.00  0.00    +0.000 OA
BRANCH  22  23
ATOM     23  C   UNL     1      37.466   8.301  16.614  0.00  0.00    +0.000 C 
BRANCH  23  24
ATOM     24  C   UNL     1      38.174   7.454  17.510  0.00  0.00    +0.000 A 
ATOM     25  C   UNL     1      38.688   7.894  18.740  0.00  0.00    +0.000 A 
ATOM     26  C   UNL     1      39.401   7.049  19.555  0.00  0.00    +0.000 A 
ATOM     27  C   UNL     1      39.648   5.736  19.213  0.00  0.00    +0.000 A 
ATOM     28  C   UNL     1      39.159   5.279  18.024  0.00  0.00    +0.000 A 
ATOM     29  C   UNL     1      38.448   6.109  17.203  0.00  0.00    +0.000 A 
ENDBRANCH  23  24
ENDBRANCH  22  23
ENDBRANCH  19  22
ENDBRANCH  13  14
BRANCH   1  30
ATOM     30  O   UNL     1      36.905  -1.310  15.792  0.00  0.00    +0.000 OA
BRANCH  30  32
ATOM     31  C   UNL     1      39.083  -2.132  16.131  0.00  0.00    +0.000 C 
ATOM     32  C   UNL     1      37.926  -1.988  15.176  0.00  0.00    +0.000 C 
ENDBRANCH  30  32
ENDBRANCH   1  30
TORSDOF 7
ENDMDL
MODEL 9
REMARK VINA RESULT:      -7.0     24.085     26.476
REMARK  Name = 
REMARK  7 active torsions:
REMARK  status: ('A' for Active; 'I' for Inactive)
REMARK    1  A    between atoms: C_2  and  O_3
REMARK    2  A    between atoms: O_3  and  C_4
REMARK    3  A    between atoms: C_16  and  C_17
REMARK    4  A    between atoms: C_21  and  O_22
REMARK    5  A    between atoms: C_24  and  O_25
REMARK    6  A    between atoms: O_25  and  C_26
REMARK    7  A    between atoms: C_26  and  C_27
REMARK                            x       y       z     vdW  Elec       q    Type
REMARK                         _______ _______ _______ _____ _____    ______ ____
ROOT
ATOM      1  C   UNL     1      25.359  16.539  33.461  0.00  0.00    +0.000 A 
ATOM      2  C   UNL     1      25.304  15.179  33.672  0.00  0.00    +0.000 A 
ATOM      3  C   UNL     1      26.370  14.458  34.179  0.00  0.00    +0.000 A 
ATOM      4  C   UNL     1      27.557  15.079  34.502  0.00  0.00    +0.000 A 
ATOM      5  N   UNL     1      28.750  14.631  35.006  0.00  0.00    +0.000 NA
ATOM      6  C   UNL     1      29.572  15.643  35.128  0.00  0.00    +0.000 A 
ATOM      7  C   UNL     1      28.914  16.772  34.703  0.00  0.00    +0.000 A 
ATOM      8  C   UNL     1      27.630  16.443  34.297  0.00  0.00    +0.000 A 
ATOM      9  C   UNL     1      26.551  17.149  33.789  0.00  0.00    +0.000 A 
ATOM     10  C   UNL     1      29.655  18.038  34.765  0.00  0.00    +0.000 C 
ATOM     11  C   UNL     1      30.527  18.156  35.972  0.00  0.00    +0.000 C 
ATOM     12  N   UNL     1      30.784  16.920  36.670  0.00  0.00    +0.000 NA
ATOM     13  C   UNL     1      31.052  15.848  35.582  0.00  0.00    +0.000 C 
ENDROOT
BRANCH  13  14
ATOM     14  C   UNL     1      31.233  14.578  36.514  0.00  0.00    +0.000 A 
ATOM     15  C   UNL     1      32.115  13.625  35.950  0.00  0.00    +0.000 A 
ATOM     16  C   UNL     1      32.397  12.511  36.692  0.00  0.00    +0.000 A 
ATOM     17  C   UNL     1      31.839  12.326  37.946  0.00  0.00    +0.000 A 
ATOM     18  C   UNL     1      30.987  13.290  38.440  0.00  0.00    +0.000 A 
ATOM     19  C   UNL     1      30.685  14.434  37.699  0.00  0.00    +0.000 A 
BRANCH  18  20
ATOM     20  O   UNL     1      30.406  13.148  39.687  0.00  0.00    +0.000 OA
ATOM     21  C   UNL     1      29.942  11.906  40.175  0.00  0.00    +0.000 C 
ENDBRANCH  18  20
BRANCH  19  22
ATOM     22  O   UNL     1      29.836  15.317  38.255  0.00  0.00    +0.000 OA
BRANCH  22  23
ATOM     23  C   UNL     1      28.610  15.322  38.778  0.00  0.00    +0.000 C 
BRANCH  23  24
ATOM     24  C   UNL     1      27.412  15.875  38.248  0.00  0.00    +0.000 A 
ATOM     25  C   UNL     1      26.283  15.103  37.932  0.00  0.00    +0.000 A 
ATOM     26  C   UNL     1      25.161  15.675  37.384  0.00  0.00    +0.000 A 
ATOM     27  C   UNL     1      25.084  17.027  37.118  0.00  0.00    +0.000 A 
ATOM     28  C   UNL     1      26.165  17.803  37.417  0.00  0.00    +0.000 A 
ATOM     29  C   UNL     1      27.288  17.247  37.962  0.00  0.00    +0.000 A 
ENDBRANCH  23  24
ENDBRANCH  22  23
ENDBRANCH  19  22
ENDBRANCH  13  14
BRANCH   1  30
ATOM     30  O   UNL     1      24.274  17.241  32.950  0.00  0.00    +0.000 OA
BRANCH  30  32
ATOM     31  C   UNL     1      23.942  19.540  33.325  0.00  0.00    +0.000 C 
ATOM     32  C   UNL     1      24.309  18.465  32.333  0.00  0.00    +0.000 C 
ENDBRANCH  30  32
ENDBRANCH   1  30
TORSDOF 7
ENDMDL
MODEL 10
REMARK VINA RESULT:      -6.8      2.783      8.613
REMARK  Name = 
REMARK  7 active torsions:
REMARK  status: ('A' for Active; 'I' for Inactive)
REMARK    1  A    between atoms: C_2  and  O_3
REMARK    2  A    between atoms: O_3  and  C_4
REMARK    3  A    between atoms: C_16  and  C_17
REMARK    4  A    between atoms: C_21  and  O_22
REMARK    5  A    between atoms: C_24  and  O_25
REMARK    6  A    between atoms: O_25  and  C_26
REMARK    7  A    between atoms: C_26  and  C_27
REMARK                            x       y       z     vdW  Elec       q    Type
REMARK                         _______ _______ _______ _____ _____    ______ ____
ROOT
ATOM      1  C   UNL     1      44.756   7.278  17.886  0.00  0.00    +0.000 A 
ATOM      2  C   UNL     1      44.623   7.004  16.542  0.00  0.00    +0.000 A 
ATOM      3  C   UNL     1      43.428   6.597  15.977  0.00  0.00    +0.000 A 
ATOM      4  C   UNL     1      42.296   6.444  16.747  0.00  0.00    +0.000 A 
ATOM      5  N   UNL     1      41.010   6.062  16.467  0.00  0.00    +0.000 NA
ATOM      6  C   UNL     1      40.308   6.076  17.573  0.00  0.00    +0.000 A 
ATOM      7  C   UNL     1      41.137   6.475  18.593  0.00  0.00    +0.000 A 
ATOM      8  C   UNL     1      42.410   6.714  18.097  0.00  0.00    +0.000 A 
ATOM      9  C   UNL     1      43.615   7.121  18.645  0.00  0.00    +0.000 A 
ATOM     10  C   UNL     1      40.547   6.571  19.933  0.00  0.00    +0.000 C 
ATOM     11  C   UNL     1      39.150   7.100  19.929  0.00  0.00    +0.000 C 
ATOM     12  N   UNL     1      38.490   7.087  18.647  0.00  0.00    +0.000 NA
ATOM     13  C   UNL     1      38.841   5.729  17.984  0.00  0.00    +0.000 C 
ENDROOT
BRANCH  13  14
ATOM     14  C   UNL     1      38.109   5.928  16.592  0.00  0.00    +0.000 A 
ATOM     15  C   UNL     1      38.165   7.270  16.148  0.00  0.00    +0.000 A 
ATOM     16  C   UNL     1      37.619   7.555  14.926  0.00  0.00    +0.000 A 
ATOM     17  C   UNL     1      37.033   6.563  14.157  0.00  0.00    +0.000 A 
ATOM     18  C   UNL     1      37.008   5.274  14.645  0.00  0.00    +0.000 A 
ATOM     19  C   UNL     1      37.560   4.963  15.890  0.00  0.00    +0.000 A 
BRANCH  18  20
ATOM     20  O   UNL     1      36.433   4.252  13.912  0.00  0.00    +0.000 OA
ATOM     21  C   UNL     1      37.080   3.647  12.811  0.00  0.00    +0.000 C 
ENDBRANCH  18  20
BRANCH  19  22
ATOM     22  O   UNL     1      37.482   3.682  16.290  0.00  0.00    +0.000 OA
BRANCH  22  23
ATOM     23  C   UNL     1      36.617   2.889  16.923  0.00  0.00    +0.000 C 
BRANCH  23  24
ATOM     24  C   UNL     1      36.246   1.549  16.626  0.00  0.00    +0.000 A 
ATOM     25  C   UNL     1      36.834   0.799  15.594  0.00  0.00    +0.000 A 
ATOM     26  C   UNL     1      36.415  -0.479  15.318  0.00  0.00    +0.000 A 
ATOM     27  C   UNL     1      35.406  -1.090  16.033  0.00  0.00    +0.000 A 
ATOM     28  C   UNL     1      34.817  -0.387  17.043  0.00  0.00    +0.000 A 
ATOM     29  C   UNL     1      35.224   0.887  17.328  0.00  0.00    +0.000 A 
ENDBRANCH  23  24
ENDBRANCH  22  23
ENDBRANCH  19  22
ENDBRANCH  13  14
BRANCH   1  30
ATOM     30  O   UNL     1      45.968   7.684  18.431  0.00  0.00    +0.000 OA
BRANCH  30  32
ATOM     31  C   UNL     1      46.947   5.735  19.311  0.00  0.00    +0.000 C 
ATOM     32  C   UNL     1      47.135   6.965  18.460  0.00  0.00    +0.000 C 
ENDBRANCH  30  32
ENDBRANCH   1  30
TORSDOF 7
ENDMDL
