MODEL 1
REMARK VINA RESULT:      -7.9      0.000      0.000
REMARK  Name = 
REMARK  3 active torsions:
REMARK  status: ('A' for Active; 'I' for Inactive)
REMARK    1  A    between atoms: C_2  and  C_4
REMARK    2  A    between atoms: C_4  and  C_5
REMARK    3  A    between atoms: C_5  and  N_6
REMARK                            x       y       z     vdW  Elec       q    Type
REMARK                         _______ _______ _______ _____ _____    ______ ____
ROOT
ATOM      1  N   UNL     1      16.406  10.795  36.214  0.00  0.00    +0.000 N 
ATOM      2  C   UNL     1      16.891  10.127  35.151  0.00  0.00    +0.000 A 
ATOM      3  S   UNL     1      17.923   8.860  35.300  0.00  0.00    +0.000 S 
ATOM      4  N   UNL     1      16.498  10.534  33.912  0.00  0.00    +0.000 NA
ATOM      5  C   UNL     1      15.665  11.556  33.749  0.00  0.00    +0.000 A 
ATOM      6  C   UNL     1      15.176  12.231  34.844  0.00  0.00    +0.000 A 
ATOM      7  O   UNL     1      14.391  13.175  34.423  0.00  0.00    +0.000 OA
ATOM      8  C   UNL     1      14.322  13.178  33.121  0.00  0.00    +0.000 A 
ATOM      9  C   UNL     1      13.621  13.990  32.262  0.00  0.00    +0.000 A 
ATOM     10  C   UNL     1      13.746  13.749  30.923  0.00  0.00    +0.000 A 
ATOM     11  C   UNL     1      14.531  12.744  30.408  0.00  0.00    +0.000 A 
ATOM     12  C   UNL     1      15.222  11.945  31.289  0.00  0.00    +0.000 A 
ATOM     13  C   UNL     1      15.112  12.168  32.627  0.00  0.00    +0.000 A 
ATOM     14  C   UNL     1      15.564  11.832  36.127  0.00  0.00    +0.000 A 
ATOM     15  O   UNL     1      15.122  12.442  37.120  0.00  0.00    +0.000 OA
ENDROOT
BRANCH   1  16
ATOM     16  C   UNL     1      16.809  10.382  37.549  0.00  0.00    +0.000 C 
BRANCH  16  17
ATOM     17  C   UNL     1      18.093  11.120  37.903  0.00  0.00    +0.000 C 
BRANCH  17  19
ATOM     18  C   UNL     1      19.823   9.465  38.625  0.00  0.00    +0.000 C 
ATOM     19  C   UNL     1      18.716  10.376  39.077  0.00  0.00    +0.000 C 
ATOM     20  C   UNL     1      17.664   9.613  39.866  0.00  0.00    +0.000 C 
ENDBRANCH  17  19
ENDBRANCH  16  17
ENDBRANCH   1  16
TORSDOF 3
ENDMDL
MODEL 2
REMARK VINA RESULT:      -7.6      1.890      2.370
REMARK  Name = 
REMARK  3 active torsions:
REMARK  status: ('A' for Active; 'I' for Inactive)
REMARK    1  A    between atoms: C_2  and  C_4
REMARK    2  A    between atoms: C_4  and  C_5
REMARK    3  A    between atoms: C_5  and  N_6
REMARK                            x       y       z     vdW  Elec       q    Type
REMARK                         _______ _______ _______ _____ _____    ______ ____
ROOT
ATOM      1  N   UNL     1      16.496  10.668  36.122  0.00  0.00    +0.000 N 
ATOM      2  C   UNL     1      15.364  11.353  36.365  0.00  0.00    +0.000 A 
ATOM      3  S   UNL     1      14.679  11.429  37.854  0.00  0.00    +0.000 S 
ATOM      4  N   UNL     1      14.777  12.002  35.321  0.00  0.00    +0.000 NA
ATOM      5  C   UNL     1      15.299  11.965  34.100  0.00  0.00    +0.000 A 
ATOM      6  C   UNL     1      16.458  11.260  33.864  0.00  0.00    +0.000 A 
ATOM      7  O   UNL     1      16.757  11.379  32.607  0.00  0.00    +0.000 OA
ATOM      8  C   UNL     1      15.879  12.115  31.985  0.00  0.00    +0.000 A 
ATOM      9  C   UNL     1      15.800  12.498  30.668  0.00  0.00    +0.000 A 
ATOM     10  C   UNL     1      14.746  13.286  30.301  0.00  0.00    +0.000 A 
ATOM     11  C   UNL     1      13.775  13.704  31.182  0.00  0.00    +0.000 A 
ATOM     12  C   UNL     1      13.877  13.307  32.494  0.00  0.00    +0.000 A 
ATOM     13  C   UNL     1      14.919  12.522  32.881  0.00  0.00    +0.000 A 
ATOM     14  C   UNL     1      17.078  10.586  34.919  0.00  0.00    +0.000 A 
ATOM     15  O   UNL     1      18.128   9.947  34.709  0.00  0.00    +0.000 OA
ENDROOT
BRANCH   1  16
ATOM     16  C   UNL     1      17.143   9.965  37.218  0.00  0.00    +0.000 C 
BRANCH  16  17
ATOM     17  C   UNL     1      18.147  10.914  37.859  0.00  0.00    +0.000 C 
BRANCH  17  19
ATOM     18  C   UNL     1      18.506   8.864  39.246  0.00  0.00    +0.000 C 
ATOM     19  C   UNL     1      19.164  10.047  38.591  0.00  0.00    +0.000 C 
ATOM     20  C   UNL     1      19.957  10.863  39.600  0.00  0.00    +0.000 C 
ENDBRANCH  17  19
ENDBRANCH  16  17
ENDBRANCH   1  16
TORSDOF 3
ENDMDL
MODEL 3
REMARK VINA RESULT:      -6.9      2.109      6.949
REMARK  Name = 
REMARK  3 active torsions:
REMARK  status: ('A' for Active; 'I' for Inactive)
REMARK    1  A    between atoms: C_2  and  C_4
REMARK    2  A    between atoms: C_4  and  C_5
REMARK    3  A    between atoms: C_5  and  N_6
REMARK                            x       y       z     vdW  Elec       q    Type
REMARK                         _______ _______ _______ _____ _____    ______ ____
ROOT
ATOM      1  N   UNL     1      15.380  12.034  35.355  0.00  0.00    +0.000 N 
ATOM      2  C   UNL     1      14.603  11.943  36.449  0.00  0.00    +0.000 A 
ATOM      3  S   UNL     1      13.083  12.558  36.506  0.00  0.00    +0.000 S 
ATOM      4  N   UNL     1      15.115  11.313  37.542  0.00  0.00    +0.000 NA
ATOM      5  C   UNL     1      16.342  10.801  37.536  0.00  0.00    +0.000 A 
ATOM      6  C   UNL     1      17.128  10.900  36.411  0.00  0.00    +0.000 A 
ATOM      7  O   UNL     1      18.266  10.329  36.658  0.00  0.00    +0.000 OA
ATOM      8  C   UNL     1      18.297   9.855  37.872  0.00  0.00    +0.000 A 
ATOM      9  C   UNL     1      19.287   9.183  38.548  0.00  0.00    +0.000 A 
ATOM     10  C   UNL     1      19.026   8.802  39.834  0.00  0.00    +0.000 A 
ATOM     11  C   UNL     1      17.834   9.059  40.470  0.00  0.00    +0.000 A 
ATOM     12  C   UNL     1      16.859   9.733  39.771  0.00  0.00    +0.000 A 
ATOM     13  C   UNL     1      17.098  10.122  38.489  0.00  0.00    +0.000 A 
ATOM     14  C   UNL     1      16.624  11.543  35.276  0.00  0.00    +0.000 A 
ATOM     15  O   UNL     1      17.333  11.634  34.255  0.00  0.00    +0.000 OA
ENDROOT
BRANCH   1  16
ATOM     16  C   UNL     1      14.859  12.702  34.173  0.00  0.00    +0.000 C 
BRANCH  16  17
ATOM     17  C   UNL     1      14.728  11.666  33.065  0.00  0.00    +0.000 C 
BRANCH  17  19
ATOM     18  C   UNL     1      15.863  12.611  31.046  0.00  0.00    +0.000 C 
ATOM     19  C   UNL     1      14.552  12.437  31.762  0.00  0.00    +0.000 C 
ATOM     20  C   UNL     1      13.876  13.778  32.004  0.00  0.00    +0.000 C 
ENDBRANCH  17  19
ENDBRANCH  16  17
ENDBRANCH   1  16
TORSDOF 3
ENDMDL
MODEL 4
REMARK VINA RESULT:      -6.7      2.249      6.936
REMARK  Name = 
REMARK  3 active torsions:
REMARK  status: ('A' for Active; 'I' for Inactive)
REMARK    1  A    between atoms: C_2  and  C_4
REMARK    2  A    between atoms: C_4  and  C_5
REMARK    3  A    between atoms: C_5  and  N_6
REMARK                            x       y       z     vdW  Elec       q    Type
REMARK                         _______ _______ _______ _____ _____    ______ ____
ROOT
ATOM      1  N   UNL     1      15.778  11.396  33.752  0.00  0.00    +0.000 N 
ATOM      2  C   UNL     1      15.418  12.139  34.815  0.00  0.00    +0.000 A 
ATOM      3  S   UNL     1      14.135  13.162  34.783  0.00  0.00    +0.000 S 
ATOM      4  N   UNL     1      16.158  12.023  35.952  0.00  0.00    +0.000 NA
ATOM      5  C   UNL     1      17.204  11.206  36.019  0.00  0.00    +0.000 A 
ATOM      6  C   UNL     1      17.563  10.452  34.925  0.00  0.00    +0.000 A 
ATOM      7  O   UNL     1      18.604   9.745  35.243  0.00  0.00    +0.000 OA
ATOM      8  C   UNL     1      18.966   9.974  36.474  0.00  0.00    +0.000 A 
ATOM      9  C   UNL     1      19.999   9.455  37.217  0.00  0.00    +0.000 A 
ATOM     10  C   UNL     1      20.132   9.893  38.505  0.00  0.00    +0.000 A 
ATOM     11  C   UNL     1      19.290  10.817  39.078  0.00  0.00    +0.000 A 
ATOM     12  C   UNL     1      18.264  11.321  38.313  0.00  0.00    +0.000 A 
ATOM     13  C   UNL     1      18.113  10.899  37.028  0.00  0.00    +0.000 A 
ATOM     14  C   UNL     1      16.818  10.553  33.746  0.00  0.00    +0.000 A 
ATOM     15  O   UNL     1      17.141   9.871  32.754  0.00  0.00    +0.000 OA
ENDROOT
BRANCH   1  16
ATOM     16  C   UNL     1      15.006  11.500  32.525  0.00  0.00    +0.000 C 
BRANCH  16  17
ATOM     17  C   UNL     1      15.901  12.112  31.455  0.00  0.00    +0.000 C 
BRANCH  17  19
ATOM     18  C   UNL     1      13.914  13.462  30.761  0.00  0.00    +0.000 C 
ATOM     19  C   UNL     1      15.359  13.508  31.175  0.00  0.00    +0.000 C 
ATOM     20  C   UNL     1      16.205  14.229  30.137  0.00  0.00    +0.000 C 
ENDBRANCH  17  19
ENDBRANCH  16  17
ENDBRANCH   1  16
TORSDOF 3
ENDMDL
MODEL 5
REMARK VINA RESULT:      -6.5      1.485      6.461
REMARK  Name = 
REMARK  3 active torsions:
REMARK  status: ('A' for Active; 'I' for Inactive)
REMARK    1  A    between atoms: C_2  and  C_4
REMARK    2  A    between atoms: C_4  and  C_5
REMARK    3  A    between atoms: C_5  and  N_6
REMARK                            x       y       z     vdW  Elec       q    Type
REMARK                         _______ _______ _______ _____ _____    ______ ____
ROOT
ATOM      1  N   UNL     1      15.184  11.672  33.530  0.00  0.00    +0.000 N 
ATOM      2  C   UNL     1      16.126  10.786  33.159  0.00  0.00    +0.000 A 
ATOM      3  S   UNL     1      16.389  10.382  31.591  0.00  0.00    +0.000 S 
ATOM      4  N   UNL     1      16.880  10.214  34.138  0.00  0.00    +0.000 NA
ATOM      5  C   UNL     1      16.698  10.514  35.420  0.00  0.00    +0.000 A 
ATOM      6  C   UNL     1      15.731  11.422  35.786  0.00  0.00    +0.000 A 
ATOM      7  O   UNL     1      15.754  11.541  37.078  0.00  0.00    +0.000 OA
ATOM      8  C   UNL     1      16.669  10.774  37.602  0.00  0.00    +0.000 A 
ATOM      9  C   UNL     1      17.039  10.583  38.911  0.00  0.00    +0.000 A 
ATOM     10  C   UNL     1      18.052   9.701  39.159  0.00  0.00    +0.000 A 
ATOM     11  C   UNL     1      18.707   9.007  38.168  0.00  0.00    +0.000 A 
ATOM     12  C   UNL     1      18.318   9.216  36.866  0.00  0.00    +0.000 A 
ATOM     13  C   UNL     1      17.311  10.091  36.597  0.00  0.00    +0.000 A 
ATOM     14  C   UNL     1      14.944  12.023  34.800  0.00  0.00    +0.000 A 
ATOM     15  O   UNL     1      14.067  12.846  35.130  0.00  0.00    +0.000 OA
ENDROOT
BRANCH   1  16
ATOM     16  C   UNL     1      14.363  12.298  32.506  0.00  0.00    +0.000 C 
BRANCH  16  17
ATOM     17  C   UNL     1      14.931  13.684  32.230  0.00  0.00    +0.000 C 
BRANCH  17  19
ATOM     18  C   UNL     1      14.189  12.764  30.026  0.00  0.00    +0.000 C 
ATOM     19  C   UNL     1      14.972  13.847  30.715  0.00  0.00    +0.000 C 
ATOM     20  C   UNL     1      16.404  13.899  30.206  0.00  0.00    +0.000 C 
ENDBRANCH  17  19
ENDBRANCH  16  17
ENDBRANCH   1  16
TORSDOF 3
ENDMDL
MODEL 6
REMARK VINA RESULT:      -6.2     21.856     23.184
REMARK  Name = 
REMARK  3 active torsions:
REMARK  status: ('A' for Active; 'I' for Inactive)
REMARK    1  A    between atoms: C_2  and  C_4
REMARK    2  A    between atoms: C_4  and  C_5
REMARK    3  A    between atoms: C_5  and  N_6
REMARK                            x       y       z     vdW  Elec       q    Type
REMARK                         _______ _______ _______ _____ _____    ______ ____
ROOT
ATOM      1  N   UNL     1      23.404  -7.984  24.486  0.00  0.00    +0.000 N 
ATOM      2  C   UNL     1      23.101  -9.075  25.213  0.00  0.00    +0.000 A 
ATOM      3  S   UNL     1      24.091 -10.380  25.303  0.00  0.00    +0.000 S 
ATOM      4  N   UNL     1      21.922  -9.076  25.895  0.00  0.00    +0.000 NA
ATOM      5  C   UNL     1      21.092  -8.039  25.848  0.00  0.00    +0.000 A 
ATOM      6  C   UNL     1      21.414  -6.930  25.100  0.00  0.00    +0.000 A 
ATOM      7  O   UNL     1      20.452  -6.067  25.218  0.00  0.00    +0.000 OA
ATOM      8  C   UNL     1      19.508  -6.523  25.994  0.00  0.00    +0.000 A 
ATOM      9  C   UNL     1      18.321  -5.957  26.392  0.00  0.00    +0.000 A 
ATOM     10  C   UNL     1      17.521  -6.687  27.225  0.00  0.00    +0.000 A 
ATOM     11  C   UNL     1      17.848  -7.945  27.674  0.00  0.00    +0.000 A 
ATOM     12  C   UNL     1      19.042  -8.490  27.261  0.00  0.00    +0.000 A 
ATOM     13  C   UNL     1      19.854  -7.779  26.431  0.00  0.00    +0.000 A 
ATOM     14  C   UNL     1      22.618  -6.904  24.392  0.00  0.00    +0.000 A 
ATOM     15  O   UNL     1      22.912  -5.900  23.714  0.00  0.00    +0.000 OA
ENDROOT
BRANCH   1  16
ATOM     16  C   UNL     1      24.657  -7.956  23.748  0.00  0.00    +0.000 C 
BRANCH  16  17
ATOM     17  C   UNL     1      24.372  -8.399  22.319  0.00  0.00    +0.000 C 
BRANCH  17  19
ATOM     18  C   UNL     1      25.396 -10.591  21.685  0.00  0.00    +0.000 C 
ATOM     19  C   UNL     1      25.625  -9.111  21.824  0.00  0.00    +0.000 C 
ATOM     20  C   UNL     1      26.815  -8.821  22.724  0.00  0.00    +0.000 C 
ENDBRANCH  17  19
ENDBRANCH  16  17
ENDBRANCH   1  16
TORSDOF 3
ENDMDL
MODEL 7
REMARK VINA RESULT:      -6.0     21.478     22.799
REMARK  Name = 
REMARK  3 active torsions:
REMARK  status: ('A' for Active; 'I' for Inactive)
REMARK    1  A    between atoms: C_2  and  C_4
REMARK    2  A    between atoms: C_4  and  C_5
REMARK    3  A    between atoms: C_5  and  N_6
REMARK                            x       y       z     vdW  Elec       q    Type
REMARK                         _______ _______ _______ _____ _____    ______ ____
ROOT
ATOM      1  N   UNL     1      19.380  -7.613  25.844  0.00  0.00    +0.000 N 
ATOM      2  C   UNL     1      19.860  -6.357  25.846  0.00  0.00    +0.000 A 
ATOM      3  S   UNL     1      18.990  -5.079  26.398  0.00  0.00    +0.000 S 
ATOM      4  N   UNL     1      21.120  -6.157  25.369  0.00  0.00    +0.000 NA
ATOM      5  C   UNL     1      21.857  -7.165  24.913  0.00  0.00    +0.000 A 
ATOM      6  C   UNL     1      21.353  -8.446  24.915  0.00  0.00    +0.000 A 
ATOM      7  O   UNL     1      22.257  -9.238  24.426  0.00  0.00    +0.000 OA
ATOM      8  C   UNL     1      23.330  -8.576  24.096  0.00  0.00    +0.000 A 
ATOM      9  C   UNL     1      24.516  -9.003  23.550  0.00  0.00    +0.000 A 
ATOM     10  C   UNL     1      25.477  -8.062  23.310  0.00  0.00    +0.000 A 
ATOM     11  C   UNL     1      25.308  -6.725  23.588  0.00  0.00    +0.000 A 
ATOM     12  C   UNL     1      24.112  -6.323  24.134  0.00  0.00    +0.000 A 
ATOM     13  C   UNL     1      23.142  -7.245  24.381  0.00  0.00    +0.000 A 
ATOM     14  C   UNL     1      20.063  -8.676  25.401  0.00  0.00    +0.000 A 
ATOM     15  O   UNL     1      19.605  -9.835  25.405  0.00  0.00    +0.000 OA
ENDROOT
BRANCH   1  16
ATOM     16  C   UNL     1      18.038  -7.855  26.348  0.00  0.00    +0.000 C 
BRANCH  16  17
ATOM     17  C   UNL     1      18.126  -8.034  27.858  0.00  0.00    +0.000 C 
BRANCH  17  19
ATOM     18  C   UNL     1      18.352 -10.414  28.591  0.00  0.00    +0.000 C 
ATOM     19  C   UNL     1      17.393  -9.328  28.189  0.00  0.00    +0.000 C 
ATOM     20  C   UNL     1      16.512  -9.773  27.033  0.00  0.00    +0.000 C 
ENDBRANCH  17  19
ENDBRANCH  16  17
ENDBRANCH   1  16
TORSDOF 3
ENDMDL
MODEL 8
REMARK VINA RESULT:      -5.9      3.154      4.772
REMARK  Name = 
REMARK  3 active torsions:
REMARK  status: ('A' for Active; 'I' for Inactive)
REMARK    1  A    between atoms: C_2  and  C_4
REMARK    2  A    between atoms: C_4  and  C_5
REMARK    3  A    between atoms: C_5  and  N_6
REMARK                            x       y       z     vdW  Elec       q    Type
REMARK                         _______ _______ _______ _____ _____    ______ ____
ROOT
ATOM      1  N   UNL     1      17.732   9.211  39.540  0.00  0.00    +0.000 N 
ATOM      2  C   UNL     1      16.580   9.554  40.144  0.00  0.00    +0.000 A 
ATOM      3  S   UNL     1      16.218   9.100  41.679  0.00  0.00    +0.000 S 
ATOM      4  N   UNL     1      15.692  10.308  39.439  0.00  0.00    +0.000 NA
ATOM      5  C   UNL     1      15.947  10.696  38.194  0.00  0.00    +0.000 A 
ATOM      6  C   UNL     1      17.129  10.339  37.586  0.00  0.00    +0.000 A 
ATOM      7  O   UNL     1      17.137  10.836  36.388  0.00  0.00    +0.000 OA
ATOM      8  C   UNL     1      16.041  11.501  36.150  0.00  0.00    +0.000 A 
ATOM      9  C   UNL     1      15.629  12.182  35.031  0.00  0.00    +0.000 A 
ATOM     10  C   UNL     1      14.408  12.795  35.078  0.00  0.00    +0.000 A 
ATOM     11  C   UNL     1      13.588  12.758  36.181  0.00  0.00    +0.000 A 
ATOM     12  C   UNL     1      14.024  12.070  37.289  0.00  0.00    +0.000 A 
ATOM     13  C   UNL     1      15.237  11.452  37.264  0.00  0.00    +0.000 A 
ATOM     14  C   UNL     1      18.057   9.566  38.290  0.00  0.00    +0.000 A 
ATOM     15  O   UNL     1      19.128   9.240  37.742  0.00  0.00    +0.000 OA
ENDROOT
BRANCH   1  16
ATOM     16  C   UNL     1      18.698   8.406  40.270  0.00  0.00    +0.000 C 
BRANCH  16  17
ATOM     17  C   UNL     1      18.542   6.960  39.820  0.00  0.00    +0.000 C 
BRANCH  17  19
ATOM     18  C   UNL     1      19.752   4.969  40.728  0.00  0.00    +0.000 C 
ATOM     19  C   UNL     1      18.800   6.090  41.043  0.00  0.00    +0.000 C 
ATOM     20  C   UNL     1      17.499   5.559  41.626  0.00  0.00    +0.000 C 
ENDBRANCH  17  19
ENDBRANCH  16  17
ENDBRANCH   1  16
TORSDOF 3
ENDMDL
MODEL 9
REMARK VINA RESULT:      -5.8     22.980     24.500
REMARK  Name = 
REMARK  3 active torsions:
REMARK  status: ('A' for Active; 'I' for Inactive)
REMARK    1  A    between atoms: C_2  and  C_4
REMARK    2  A    between atoms: C_4  and  C_5
REMARK    3  A    between atoms: C_5  and  N_6
REMARK                            x       y       z     vdW  Elec       q    Type
REMARK                         _______ _______ _______ _____ _____    ______ ____
ROOT
ATOM      1  N   UNL     1      28.362  25.675  22.157  0.00  0.00    +0.000 N 
ATOM      2  C   UNL     1      27.896  26.916  22.379  0.00  0.00    +0.000 A 
ATOM      3  S   UNL     1      26.872  27.267  23.612  0.00  0.00    +0.000 S 
ATOM      4  N   UNL     1      28.302  27.908  21.539  0.00  0.00    +0.000 NA
ATOM      5  C   UNL     1      29.130  27.666  20.529  0.00  0.00    +0.000 A 
ATOM      6  C   UNL     1      29.600  26.391  20.310  0.00  0.00    +0.000 A 
ATOM      7  O   UNL     1      30.383  26.417  19.276  0.00  0.00    +0.000 OA
ATOM      8  C   UNL     1      30.470  27.623  18.787  0.00  0.00    +0.000 A 
ATOM      9  C   UNL     1      31.175  28.106  17.711  0.00  0.00    +0.000 A 
ATOM     10  C   UNL     1      31.070  29.440  17.435  0.00  0.00    +0.000 A 
ATOM     11  C   UNL     1      30.298  30.305  18.176  0.00  0.00    +0.000 A 
ATOM     12  C   UNL     1      29.602  29.796  19.247  0.00  0.00    +0.000 A 
ATOM     13  C   UNL     1      29.693  28.470  19.540  0.00  0.00    +0.000 A 
ATOM     14  C   UNL     1      29.198  25.356  21.160  0.00  0.00    +0.000 A 
ATOM     15  O   UNL     1      29.623  24.200  20.965  0.00  0.00    +0.000 OA
ENDROOT
BRANCH   1  16
ATOM     16  C   UNL     1      27.946  24.596  23.038  0.00  0.00    +0.000 C 
BRANCH  16  17
ATOM     17  C   UNL     1      28.985  24.462  24.143  0.00  0.00    +0.000 C 
BRANCH  17  19
ATOM     18  C   UNL     1      28.313  22.655  25.736  0.00  0.00    +0.000 C 
ATOM     19  C   UNL     1      29.076  22.979  24.481  0.00  0.00    +0.000 C 
ATOM     20  C   UNL     1      30.525  22.527  24.587  0.00  0.00    +0.000 C 
ENDBRANCH  17  19
ENDBRANCH  16  17
ENDBRANCH   1  16
TORSDOF 3
ENDMDL
MODEL 10
REMARK VINA RESULT:      -5.8     19.123     21.598
REMARK  Name = 
REMARK  3 active torsions:
REMARK  status: ('A' for Active; 'I' for Inactive)
REMARK    1  A    between atoms: C_2  and  C_4
REMARK    2  A    between atoms: C_4  and  C_5
REMARK    3  A    between atoms: C_5  and  N_6
REMARK                            x       y       z     vdW  Elec       q    Type
REMARK                         _______ _______ _______ _____ _____    ______ ____
ROOT
ATOM      1  N   UNL     1      33.927   2.298  35.989  0.00  0.00    +0.000 N 
ATOM      2  C   UNL     1      34.228   1.554  37.068  0.00  0.00    +0.000 A 
ATOM      3  S   UNL     1      34.537   2.214  38.538  0.00  0.00    +0.000 S 
ATOM      4  N   UNL     1      34.272   0.202  36.915  0.00  0.00    +0.000 NA
ATOM      5  C   UNL     1      34.028  -0.372  35.742  0.00  0.00    +0.000 A 
ATOM      6  C   UNL     1      33.722   0.400  34.645  0.00  0.00    +0.000 A 
ATOM      7  O   UNL     1      33.529  -0.389  33.633  0.00  0.00    +0.000 OA
ATOM      8  C   UNL     1      33.686  -1.637  33.977  0.00  0.00    +0.000 A 
ATOM      9  C   UNL     1      33.580  -2.792  33.240  0.00  0.00    +0.000 A 
ATOM     10  C   UNL     1      33.803  -3.975  33.885  0.00  0.00    +0.000 A 
ATOM     11  C   UNL     1      34.124  -4.058  35.220  0.00  0.00    +0.000 A 
ATOM     12  C   UNL     1      34.224  -2.888  35.935  0.00  0.00    +0.000 A 
ATOM     13  C   UNL     1      34.006  -1.697  35.312  0.00  0.00    +0.000 A 
ATOM     14  C   UNL     1      33.670   1.791  34.777  0.00  0.00    +0.000 A 
ATOM     15  O   UNL     1      33.393   2.493  33.785  0.00  0.00    +0.000 OA
ENDROOT
BRANCH   1  16
ATOM     16  C   UNL     1      33.873   3.745  36.123  0.00  0.00    +0.000 C 
BRANCH  16  17
ATOM     17  C   UNL     1      35.247   4.303  35.775  0.00  0.00    +0.000 C 
BRANCH  17  19
ATOM     18  C   UNL     1      36.063   6.532  34.988  0.00  0.00    +0.000 C 
ATOM     19  C   UNL     1      35.018   5.464  34.815  0.00  0.00    +0.000 C 
ATOM     20  C   UNL     1      33.617   6.035  34.967  0.00  0.00    +0.000 C 
ENDBRANCH  17  19
ENDBRANCH  16  17
ENDBRANCH   1  16
TORSDOF 3
ENDMDL
