MODEL 1
REMARK VINA RESULT:      -6.7      0.000      0.000
REMARK  Name = 
REMARK  6 active torsions:
REMARK  status: ('A' for Active; 'I' for Inactive)
REMARK    1  A    between atoms: C_2  and  C_3
REMARK    2  A    between atoms: C_2  and  N_7
REMARK    3  A    between atoms: C_3  and  C_4
REMARK    4  A    between atoms: C_4  and  C_5
REMARK    5  A    between atoms: N_7  and  N_8
REMARK    6  A    between atoms: C_9  and  C_11
REMARK                            x       y       z     vdW  Elec       q    Type
REMARK                         _______ _______ _______ _____ _____    ______ ____
ROOT
ATOM      1  N   UNL     1      15.066  12.471  34.741  0.00  0.00    +0.000 NA
ATOM      2  C   UNL     1      15.260  11.802  35.962  0.00  0.00    +0.000 C 
ATOM      3  O   UNL     1      14.371  11.957  36.854  0.00  0.00    +0.000 OA
ENDROOT
BRANCH   2   4
ATOM      4  C   UNL     1      16.358  10.941  36.367  0.00  0.00    +0.000 A 
ATOM      5  C   UNL     1      17.153  10.318  35.423  0.00  0.00    +0.000 A 
ATOM      6  C   UNL     1      18.176   9.473  35.812  0.00  0.00    +0.000 A 
ATOM      7  C   UNL     1      18.396   9.258  37.190  0.00  0.00    +0.000 A 
ATOM      8  C   UNL     1      17.598   9.892  38.130  0.00  0.00    +0.000 A 
ATOM      9 BR   UNL     1      17.908   9.577  39.992  0.00  0.00    +0.000 Br
ATOM     10  C   UNL     1      16.586  10.724  37.727  0.00  0.00    +0.000 A 
ENDBRANCH   2   4
BRANCH   1  11
ATOM     11  N   UNL     1      14.143  13.304  34.354  0.00  0.00    +0.000 NA
BRANCH  11  13
ATOM     12  C   UNL     1      12.850  15.304  34.192  0.00  0.00    +0.000 C 
ATOM     13  C   UNL     1      13.591  14.278  33.644  0.00  0.00    +0.000 C 
BRANCH  13  14
ATOM     14  C   UNL     1      13.758  14.396  32.171  0.00  0.00    +0.000 C 
BRANCH  14  15
ATOM     15  C   UNL     1      13.996  13.018  31.608  0.00  0.00    +0.000 C 
BRANCH  15  16
ATOM     16  C   UNL     1      14.791  13.093  30.339  0.00  0.00    +0.000 C 
ATOM     17  C   UNL     1      15.898  14.082  30.382  0.00  0.00    +0.000 C 
ENDBRANCH  15  16
ENDBRANCH  14  15
ENDBRANCH  13  14
ENDBRANCH  11  13
ENDBRANCH   1  11
TORSDOF 6
ENDMDL
MODEL 2
REMARK VINA RESULT:      -6.2      2.142      3.127
REMARK  Name = 
REMARK  6 active torsions:
REMARK  status: ('A' for Active; 'I' for Inactive)
REMARK    1  A    between atoms: C_2  and  C_3
REMARK    2  A    between atoms: C_2  and  N_7
REMARK    3  A    between atoms: C_3  and  C_4
REMARK    4  A    between atoms: C_4  and  C_5
REMARK    5  A    between atoms: N_7  and  N_8
REMARK    6  A    between atoms: C_9  and  C_11
REMARK                            x       y       z     vdW  Elec       q    Type
REMARK                         _______ _______ _______ _____ _____    ______ ____
ROOT
ATOM      1  N   UNL     1      16.751  10.380  34.643  0.00  0.00    +0.000 NA
ATOM      2  C   UNL     1      16.782  10.517  36.041  0.00  0.00    +0.000 C 
ATOM      3  O   UNL     1      15.735  10.966  36.601  0.00  0.00    +0.000 OA
ENDROOT
BRANCH   2   4
ATOM      4  C   UNL     1      17.862  10.218  36.964  0.00  0.00    +0.000 A 
ATOM      5  C   UNL     1      17.614  10.052  38.314  0.00  0.00    +0.000 A 
ATOM      6  C   UNL     1      18.649   9.799  39.195  0.00  0.00    +0.000 A 
ATOM      7  C   UNL     1      19.965   9.713  38.693  0.00  0.00    +0.000 A 
ATOM      8  C   UNL     1      20.205   9.873  37.337  0.00  0.00    +0.000 A 
ATOM      9 BR   UNL     1      22.000   9.762  36.680  0.00  0.00    +0.000 Br
ATOM     10  C   UNL     1      19.168  10.127  36.478  0.00  0.00    +0.000 A 
ENDBRANCH   2   4
BRANCH   1  11
ATOM     11  N   UNL     1      15.841  10.697  33.767  0.00  0.00    +0.000 NA
BRANCH  11  13
ATOM     12  C   UNL     1      14.499  10.075  31.893  0.00  0.00    +0.000 C 
ATOM     13  C   UNL     1      15.324  10.946  32.572  0.00  0.00    +0.000 C 
BRANCH  13  14
ATOM     14  C   UNL     1      15.543  12.229  31.850  0.00  0.00    +0.000 C 
BRANCH  14  15
ATOM     15  C   UNL     1      14.508  12.344  30.761  0.00  0.00    +0.000 C 
BRANCH  15  16
ATOM     16  C   UNL     1      13.765  13.641  30.870  0.00  0.00    +0.000 C 
ATOM     17  C   UNL     1      13.727  14.197  32.246  0.00  0.00    +0.000 C 
ENDBRANCH  15  16
ENDBRANCH  14  15
ENDBRANCH  13  14
ENDBRANCH  11  13
ENDBRANCH   1  11
TORSDOF 6
ENDMDL
MODEL 3
REMARK VINA RESULT:      -6.0      3.790      7.508
REMARK  Name = 
REMARK  6 active torsions:
REMARK  status: ('A' for Active; 'I' for Inactive)
REMARK    1  A    between atoms: C_2  and  C_3
REMARK    2  A    between atoms: C_2  and  N_7
REMARK    3  A    between atoms: C_3  and  C_4
REMARK    4  A    between atoms: C_4  and  C_5
REMARK    5  A    between atoms: N_7  and  N_8
REMARK    6  A    between atoms: C_9  and  C_11
REMARK                            x       y       z     vdW  Elec       q    Type
REMARK                         _______ _______ _______ _____ _____    ______ ____
ROOT
ATOM      1  N   UNL     1      16.811  11.152  35.597  0.00  0.00    +0.000 NA
ATOM      2  C   UNL     1      16.948  10.673  34.282  0.00  0.00    +0.000 C 
ATOM      3  O   UNL     1      17.898   9.862  34.059  0.00  0.00    +0.000 OA
ENDROOT
BRANCH   2   4
ATOM      4  C   UNL     1      16.146  10.979  33.111  0.00  0.00    +0.000 A 
ATOM      5  C   UNL     1      15.081  10.173  32.752  0.00  0.00    +0.000 A 
ATOM      6  C   UNL     1      14.341  10.448  31.618  0.00  0.00    +0.000 A 
ATOM      7  C   UNL     1      14.689  11.567  30.831  0.00  0.00    +0.000 A 
ATOM      8  C   UNL     1      15.754  12.374  31.201  0.00  0.00    +0.000 A 
ATOM      9 BR   UNL     1      16.214  13.880  30.113  0.00  0.00    +0.000 Br
ATOM     10  C   UNL     1      16.480  12.085  32.327  0.00  0.00    +0.000 A 
ENDBRANCH   2   4
BRANCH   1  11
ATOM     11  N   UNL     1      17.539  10.967  36.660  0.00  0.00    +0.000 NA
BRANCH  11  13
ATOM     12  C   UNL     1      19.014  10.960  38.537  0.00  0.00    +0.000 C 
ATOM     13  C   UNL     1      17.806  10.689  37.928  0.00  0.00    +0.000 C 
BRANCH  13  14
ATOM     14  C   UNL     1      16.804  10.095  38.853  0.00  0.00    +0.000 C 
BRANCH  14  15
ATOM     15  C   UNL     1      17.540   9.452  40.001  0.00  0.00    +0.000 C 
BRANCH  15  16
ATOM     16  C   UNL     1      16.734   9.538  41.263  0.00  0.00    +0.000 C 
ATOM     17  C   UNL     1      15.531   8.667  41.266  0.00  0.00    +0.000 C 
ENDBRANCH  15  16
ENDBRANCH  14  15
ENDBRANCH  13  14
ENDBRANCH  11  13
ENDBRANCH   1  11
TORSDOF 6
ENDMDL
MODEL 4
REMARK VINA RESULT:      -5.9      1.684      2.221
REMARK  Name = 
REMARK  6 active torsions:
REMARK  status: ('A' for Active; 'I' for Inactive)
REMARK    1  A    between atoms: C_2  and  C_3
REMARK    2  A    between atoms: C_2  and  N_7
REMARK    3  A    between atoms: C_3  and  C_4
REMARK    4  A    between atoms: C_4  and  C_5
REMARK    5  A    between atoms: N_7  and  N_8
REMARK    6  A    between atoms: C_9  and  C_11
REMARK                            x       y       z     vdW  Elec       q    Type
REMARK                         _______ _______ _______ _____ _____    ______ ____
ROOT
ATOM      1  N   UNL     1      16.150  11.385  35.822  0.00  0.00    +0.000 NA
ATOM      2  C   UNL     1      17.071  10.355  36.082  0.00  0.00    +0.000 C 
ATOM      3  O   UNL     1      17.310   9.541  35.137  0.00  0.00    +0.000 OA
ENDROOT
BRANCH   2   4
ATOM      4  C   UNL     1      17.807  10.074  37.302  0.00  0.00    +0.000 A 
ATOM      5  C   UNL     1      19.179   9.903  37.277  0.00  0.00    +0.000 A 
ATOM      6  C   UNL     1      19.872   9.603  38.435  0.00  0.00    +0.000 A 
ATOM      7  C   UNL     1      19.155   9.475  39.644  0.00  0.00    +0.000 A 
ATOM      8  C   UNL     1      17.781   9.654  39.662  0.00  0.00    +0.000 A 
ATOM      9 BR   UNL     1      16.829   9.465  41.312  0.00  0.00    +0.000 Br
ATOM     10  C   UNL     1      17.109   9.948  38.504  0.00  0.00    +0.000 A 
ENDBRANCH   2   4
BRANCH   1  11
ATOM     11  N   UNL     1      15.416  11.638  34.778  0.00  0.00    +0.000 NA
BRANCH  11  13
ATOM     12  C   UNL     1      14.079  13.481  34.057  0.00  0.00    +0.000 C 
ATOM     13  C   UNL     1      14.856  12.366  33.821  0.00  0.00    +0.000 C 
BRANCH  13  14
ATOM     14  C   UNL     1      15.049  12.081  32.374  0.00  0.00    +0.000 C 
BRANCH  14  15
ATOM     15  C   UNL     1      14.505  13.245  31.584  0.00  0.00    +0.000 C 
BRANCH  15  16
ATOM     16  C   UNL     1      15.126  13.299  30.221  0.00  0.00    +0.000 C 
ATOM     17  C   UNL     1      16.546  13.733  30.226  0.00  0.00    +0.000 C 
ENDBRANCH  15  16
ENDBRANCH  14  15
ENDBRANCH  13  14
ENDBRANCH  11  13
ENDBRANCH   1  11
TORSDOF 6
ENDMDL
MODEL 5
REMARK VINA RESULT:      -5.8     21.520     23.455
REMARK  Name = 
REMARK  6 active torsions:
REMARK  status: ('A' for Active; 'I' for Inactive)
REMARK    1  A    between atoms: C_2  and  C_3
REMARK    2  A    between atoms: C_2  and  N_7
REMARK    3  A    between atoms: C_3  and  C_4
REMARK    4  A    between atoms: C_4  and  C_5
REMARK    5  A    between atoms: N_7  and  N_8
REMARK    6  A    between atoms: C_9  and  C_11
REMARK                            x       y       z     vdW  Elec       q    Type
REMARK                         _______ _______ _______ _____ _____    ______ ____
ROOT
ATOM      1  N   UNL     1      22.461  -7.820  25.207  0.00  0.00    +0.000 NA
ATOM      2  C   UNL     1      21.481  -6.824  25.054  0.00  0.00    +0.000 C 
ATOM      3  O   UNL     1      21.669  -5.963  24.142  0.00  0.00    +0.000 OA
ENDROOT
BRANCH   2   4
ATOM      4  C   UNL     1      20.255  -6.627  25.807  0.00  0.00    +0.000 A 
ATOM      5  C   UNL     1      19.709  -5.364  25.952  0.00  0.00    +0.000 A 
ATOM      6  C   UNL     1      18.560  -5.176  26.696  0.00  0.00    +0.000 A 
ATOM      7  C   UNL     1      17.952  -6.293  27.307  0.00  0.00    +0.000 A 
ATOM      8  C   UNL     1      18.502  -7.557  27.151  0.00  0.00    +0.000 A 
ATOM      9 BR   UNL     1      17.665  -9.056  27.997  0.00  0.00    +0.000 Br
ATOM     10  C   UNL     1      19.643  -7.726  26.413  0.00  0.00    +0.000 A 
ENDBRANCH   2   4
BRANCH   1  11
ATOM     11  N   UNL     1      23.604  -8.000  24.611  0.00  0.00    +0.000 NA
BRANCH  11  13
ATOM     12  C   UNL     1      24.047  -8.332  22.289  0.00  0.00    +0.000 C 
ATOM     13  C   UNL     1      24.441  -8.211  23.604  0.00  0.00    +0.000 C 
BRANCH  13  14
ATOM     14  C   UNL     1      25.916  -8.290  23.785  0.00  0.00    +0.000 C 
BRANCH  14  15
ATOM     15  C   UNL     1      26.569  -7.423  22.739  0.00  0.00    +0.000 C 
BRANCH  15  16
ATOM     16  C   UNL     1      27.862  -8.028  22.280  0.00  0.00    +0.000 C 
ATOM     17  C   UNL     1      28.863  -7.029  21.826  0.00  0.00    +0.000 C 
ENDBRANCH  15  16
ENDBRANCH  14  15
ENDBRANCH  13  14
ENDBRANCH  11  13
ENDBRANCH   1  11
TORSDOF 6
ENDMDL
MODEL 6
REMARK VINA RESULT:      -5.8     22.615     25.250
REMARK  Name = 
REMARK  6 active torsions:
REMARK  status: ('A' for Active; 'I' for Inactive)
REMARK    1  A    between atoms: C_2  and  C_3
REMARK    2  A    between atoms: C_2  and  N_7
REMARK    3  A    between atoms: C_3  and  C_4
REMARK    4  A    between atoms: C_4  and  C_5
REMARK    5  A    between atoms: N_7  and  N_8
REMARK    6  A    between atoms: C_9  and  C_11
REMARK                            x       y       z     vdW  Elec       q    Type
REMARK                         _______ _______ _______ _____ _____    ______ ____
ROOT
ATOM      1  N   UNL     1      33.578  -4.112  32.201  0.00  0.00    +0.000 NA
ATOM      2  C   UNL     1      34.340  -5.228  31.816  0.00  0.00    +0.000 C 
ATOM      3  O   UNL     1      35.164  -5.687  32.666  0.00  0.00    +0.000 OA
ENDROOT
BRANCH   2   4
ATOM      4  C   UNL     1      34.328  -5.952  30.557  0.00  0.00    +0.000 A 
ATOM      5  C   UNL     1      33.737  -5.406  29.433  0.00  0.00    +0.000 A 
ATOM      6  C   UNL     1      33.698  -6.112  28.245  0.00  0.00    +0.000 A 
ATOM      7  C   UNL     1      34.274  -7.400  28.198  0.00  0.00    +0.000 A 
ATOM      8  C   UNL     1      34.870  -7.938  29.328  0.00  0.00    +0.000 A 
ATOM      9 BR   UNL     1      35.635  -9.691  29.244  0.00  0.00    +0.000 Br
ATOM     10  C   UNL     1      34.897  -7.226  30.499  0.00  0.00    +0.000 A 
ENDBRANCH   2   4
BRANCH   1  11
ATOM     11  N   UNL     1      33.600  -3.388  33.283  0.00  0.00    +0.000 NA
BRANCH  11  13
ATOM     12  C   UNL     1      32.116  -2.415  34.880  0.00  0.00    +0.000 C 
ATOM     13  C   UNL     1      33.259  -2.408  34.108  0.00  0.00    +0.000 C 
BRANCH  13  14
ATOM     14  C   UNL     1      34.108  -1.206  34.329  0.00  0.00    +0.000 C 
BRANCH  14  15
ATOM     15  C   UNL     1      33.356   0.004  33.837  0.00  0.00    +0.000 C 
BRANCH  15  16
ATOM     16  C   UNL     1      34.068   0.637  32.680  0.00  0.00    +0.000 C 
ATOM     17  C   UNL     1      33.923   2.113  32.621  0.00  0.00    +0.000 C 
ENDBRANCH  15  16
ENDBRANCH  14  15
ENDBRANCH  13  14
ENDBRANCH  11  13
ENDBRANCH   1  11
TORSDOF 6
ENDMDL
MODEL 7
REMARK VINA RESULT:      -5.7     28.095     30.764
REMARK  Name = 
REMARK  6 active torsions:
REMARK  status: ('A' for Active; 'I' for Inactive)
REMARK    1  A    between atoms: C_2  and  C_3
REMARK    2  A    between atoms: C_2  and  N_7
REMARK    3  A    between atoms: C_3  and  C_4
REMARK    4  A    between atoms: C_4  and  C_5
REMARK    5  A    between atoms: N_7  and  N_8
REMARK    6  A    between atoms: C_9  and  C_11
REMARK                            x       y       z     vdW  Elec       q    Type
REMARK                         _______ _______ _______ _____ _____    ______ ____
ROOT
ATOM      1  N   UNL     1      30.681  22.510   9.764  0.00  0.00    +0.000 NA
ATOM      2  C   UNL     1      29.746  21.850  10.581  0.00  0.00    +0.000 C 
ATOM      3  O   UNL     1      29.761  20.581  10.568  0.00  0.00    +0.000 OA
ENDROOT
BRANCH   2   4
ATOM      4  C   UNL     1      28.737  22.418  11.457  0.00  0.00    +0.000 A 
ATOM      5  C   UNL     1      27.400  22.109  11.291  0.00  0.00    +0.000 A 
ATOM      6  C   UNL     1      26.439  22.678  12.106  0.00  0.00    +0.000 A 
ATOM      7  C   UNL     1      26.846  23.579  13.113  0.00  0.00    +0.000 A 
ATOM      8  C   UNL     1      28.190  23.879  13.278  0.00  0.00    +0.000 A 
ATOM      9 BR   UNL     1      28.718  25.112  14.643  0.00  0.00    +0.000 Br
ATOM     10  C   UNL     1      29.129  23.309  12.458  0.00  0.00    +0.000 A 
ENDBRANCH   2   4
BRANCH   1  11
ATOM     11  N   UNL     1      31.553  22.052   8.913  0.00  0.00    +0.000 NA
BRANCH  11  13
ATOM     12  C   UNL     1      32.824  22.525   6.948  0.00  0.00    +0.000 C 
ATOM     13  C   UNL     1      32.046  21.701   7.733  0.00  0.00    +0.000 C 
BRANCH  13  14
ATOM     14  C   UNL     1      31.852  20.346   7.149  0.00  0.00    +0.000 C 
BRANCH  14  15
ATOM     15  C   UNL     1      30.420  19.934   7.373  0.00  0.00    +0.000 C 
BRANCH  15  16
ATOM     16  C   UNL     1      29.877  19.223   6.170  0.00  0.00    +0.000 C 
ATOM     17  C   UNL     1      29.433  20.135   5.085  0.00  0.00    +0.000 C 
ENDBRANCH  15  16
ENDBRANCH  14  15
ENDBRANCH  13  14
ENDBRANCH  11  13
ENDBRANCH   1  11
TORSDOF 6
ENDMDL
MODEL 8
REMARK VINA RESULT:      -5.7      3.957      7.504
REMARK  Name = 
REMARK  6 active torsions:
REMARK  status: ('A' for Active; 'I' for Inactive)
REMARK    1  A    between atoms: C_2  and  C_3
REMARK    2  A    between atoms: C_2  and  N_7
REMARK    3  A    between atoms: C_3  and  C_4
REMARK    4  A    between atoms: C_4  and  C_5
REMARK    5  A    between atoms: N_7  and  N_8
REMARK    6  A    between atoms: C_9  and  C_11
REMARK                            x       y       z     vdW  Elec       q    Type
REMARK                         _______ _______ _______ _____ _____    ______ ____
ROOT
ATOM      1  N   UNL     1      17.718  10.908  36.781  0.00  0.00    +0.000 NA
ATOM      2  C   UNL     1      17.133  10.714  35.518  0.00  0.00    +0.000 C 
ATOM      3  O   UNL     1      17.502   9.694  34.860  0.00  0.00    +0.000 OA
ENDROOT
BRANCH   2   4
ATOM      4  C   UNL     1      16.146  11.531  34.835  0.00  0.00    +0.000 A 
ATOM      5  C   UNL     1      15.360  12.427  35.536  0.00  0.00    +0.000 A 
ATOM      6  C   UNL     1      14.399  13.178  34.887  0.00  0.00    +0.000 A 
ATOM      7  C   UNL     1      14.232  13.017  33.494  0.00  0.00    +0.000 A 
ATOM      8  C   UNL     1      15.029  12.121  32.797  0.00  0.00    +0.000 A 
ATOM      9 BR   UNL     1      14.778  11.911  30.911  0.00  0.00    +0.000 Br
ATOM     10  C   UNL     1      15.975  11.381  33.457  0.00  0.00    +0.000 A 
ENDBRANCH   2   4
BRANCH   1  11
ATOM     11  N   UNL     1      18.652  10.251  37.406  0.00  0.00    +0.000 NA
BRANCH  11  13
ATOM     12  C   UNL     1      20.264   9.347  38.918  0.00  0.00    +0.000 C 
ATOM     13  C   UNL     1      19.879   9.833  37.686  0.00  0.00    +0.000 C 
BRANCH  13  14
ATOM     14  C   UNL     1      20.969   9.797  36.674  0.00  0.00    +0.000 C 
BRANCH  14  15
ATOM     15  C   UNL     1      22.290   9.882  37.396  0.00  0.00    +0.000 C 
BRANCH  15  16
ATOM     16  C   UNL     1      23.340   9.088  36.679  0.00  0.00    +0.000 C 
ATOM     17  C   UNL     1      24.231   9.909  35.820  0.00  0.00    +0.000 C 
ENDBRANCH  15  16
ENDBRANCH  14  15
ENDBRANCH  13  14
ENDBRANCH  11  13
ENDBRANCH   1  11
TORSDOF 6
ENDMDL
MODEL 9
REMARK VINA RESULT:      -5.6     21.996     24.522
REMARK  Name = 
REMARK  6 active torsions:
REMARK  status: ('A' for Active; 'I' for Inactive)
REMARK    1  A    between atoms: C_2  and  C_3
REMARK    2  A    between atoms: C_2  and  N_7
REMARK    3  A    between atoms: C_3  and  C_4
REMARK    4  A    between atoms: C_4  and  C_5
REMARK    5  A    between atoms: N_7  and  N_8
REMARK    6  A    between atoms: C_9  and  C_11
REMARK                            x       y       z     vdW  Elec       q    Type
REMARK                         _______ _______ _______ _____ _____    ______ ____
ROOT
ATOM      1  N   UNL     1      29.813  25.570  19.972  0.00  0.00    +0.000 NA
ATOM      2  C   UNL     1      28.846  25.711  20.982  0.00  0.00    +0.000 C 
ATOM      3  O   UNL     1      28.154  26.775  20.977  0.00  0.00    +0.000 OA
ENDROOT
BRANCH   2   4
ATOM      4  C   UNL     1      28.514  24.798  22.062  0.00  0.00    +0.000 A 
ATOM      5  C   UNL     1      27.196  24.506  22.362  0.00  0.00    +0.000 A 
ATOM      6  C   UNL     1      26.883  23.662  23.411  0.00  0.00    +0.000 A 
ATOM      7  C   UNL     1      27.932  23.103  24.173  0.00  0.00    +0.000 A 
ATOM      8  C   UNL     1      29.251  23.396  23.862  0.00  0.00    +0.000 A 
ATOM      9 BR   UNL     1      30.656  22.633  24.915  0.00  0.00    +0.000 Br
ATOM     10  C   UNL     1      29.544  24.237  22.820  0.00  0.00    +0.000 A 
ENDBRANCH   2   4
BRANCH   1  11
ATOM     11  N   UNL     1      30.196  26.382  19.029  0.00  0.00    +0.000 NA
BRANCH  11  13
ATOM     12  C   UNL     1      30.512  28.746  19.123  0.00  0.00    +0.000 C 
ATOM     13  C   UNL     1      30.501  27.539  18.458  0.00  0.00    +0.000 C 
BRANCH  13  14
ATOM     14  C   UNL     1      30.916  27.650  17.033  0.00  0.00    +0.000 C 
BRANCH  14  15
ATOM     15  C   UNL     1      29.865  26.989  16.179  0.00  0.00    +0.000 C 
BRANCH  15  16
ATOM     16  C   UNL     1      29.454  27.888  15.052  0.00  0.00    +0.000 C 
ATOM     17  C   UNL     1      30.209  29.165  14.998  0.00  0.00    +0.000 C 
ENDBRANCH  15  16
ENDBRANCH  14  15
ENDBRANCH  13  14
ENDBRANCH  11  13
ENDBRANCH   1  11
TORSDOF 6
ENDMDL
MODEL 10
REMARK VINA RESULT:      -5.6     28.217     30.249
REMARK  Name = 
REMARK  6 active torsions:
REMARK  status: ('A' for Active; 'I' for Inactive)
REMARK    1  A    between atoms: C_2  and  C_3
REMARK    2  A    between atoms: C_2  and  N_7
REMARK    3  A    between atoms: C_3  and  C_4
REMARK    4  A    between atoms: C_4  and  C_5
REMARK    5  A    between atoms: N_7  and  N_8
REMARK    6  A    between atoms: C_9  and  C_11
REMARK                            x       y       z     vdW  Elec       q    Type
REMARK                         _______ _______ _______ _____ _____    ______ ____
ROOT
ATOM      1  N   UNL     1      31.624  21.984  11.291  0.00  0.00    +0.000 NA
ATOM      2  C   UNL     1      30.250  21.829  11.044  0.00  0.00    +0.000 C 
ATOM      3  O   UNL     1      29.915  21.031  10.115  0.00  0.00    +0.000 OA
ENDROOT
BRANCH   2   4
ATOM      4  C   UNL     1      29.125  22.464  11.707  0.00  0.00    +0.000 A 
ATOM      5  C   UNL     1      27.827  22.201  11.309  0.00  0.00    +0.000 A 
ATOM      6  C   UNL     1      26.761  22.833  11.921  0.00  0.00    +0.000 A 
ATOM      7  C   UNL     1      27.019  23.751  12.961  0.00  0.00    +0.000 A 
ATOM      8  C   UNL     1      28.323  24.005  13.360  0.00  0.00    +0.000 A 
ATOM      9 BR   UNL     1      28.648  25.262  14.766  0.00  0.00    +0.000 Br
ATOM     10  C   UNL     1      29.368  23.372  12.740  0.00  0.00    +0.000 A 
ENDBRANCH   2   4
BRANCH   1  11
ATOM     11  N   UNL     1      32.667  21.496  10.684  0.00  0.00    +0.000 NA
BRANCH  11  13
ATOM     12  C   UNL     1      33.194  19.939   8.952  0.00  0.00    +0.000 C 
ATOM     13  C   UNL     1      33.453  20.570  10.150  0.00  0.00    +0.000 C 
BRANCH  13  14
ATOM     14  C   UNL     1      34.738  20.148  10.770  0.00  0.00    +0.000 C 
BRANCH  14  15
ATOM     15  C   UNL     1      34.554  20.113  12.266  0.00  0.00    +0.000 C 
BRANCH  15  16
ATOM     16  C   UNL     1      35.623  19.285  12.913  0.00  0.00    +0.000 C 
ATOM     17  C   UNL     1      36.810  20.068  13.343  0.00  0.00    +0.000 C 
ENDBRANCH  15  16
ENDBRANCH  14  15
ENDBRANCH  13  14
ENDBRANCH  11  13
ENDBRANCH   1  11
TORSDOF 6
ENDMDL
