MODEL 1
REMARK VINA RESULT:      -6.7      0.000      0.000
REMARK  Name = 
REMARK  3 active torsions:
REMARK  status: ('A' for Active; 'I' for Inactive)
REMARK    1  A    between atoms: C_2  and  C_13
REMARK    2  A    between atoms: N_3  and  N_4
REMARK    3  A    between atoms: N_4  and  C_5
REMARK                            x       y       z     vdW  Elec       q    Type
REMARK                         _______ _______ _______ _____ _____    ______ ____
ROOT
ATOM      1  O   UNL     1      17.384  10.885  37.703  0.00  0.00    +0.000 OA
ATOM      2  C   UNL     1      17.788  10.579  36.555  0.00  0.00    +0.000 C 
ATOM      3  N   UNL     1      19.046   9.941  36.416  0.00  0.00    +0.000 NA
ENDROOT
BRANCH   2   4
ATOM      4  C   UNL     1      17.022  10.850  35.356  0.00  0.00    +0.000 A 
ATOM      5  C   UNL     1      17.398  10.327  34.132  0.00  0.00    +0.000 A 
ATOM      6  C   UNL     1      16.653  10.595  32.984  0.00  0.00    +0.000 A 
ATOM      7  C   UNL     1      15.531  11.385  33.080  0.00  0.00    +0.000 A 
ATOM      8 CL   UNL     1      14.514  11.775  31.699  0.00  0.00    +0.000 Cl
ATOM      9  C   UNL     1      15.135  11.919  34.295  0.00  0.00    +0.000 A 
ATOM     10  C   UNL     1      15.890  11.632  35.381  0.00  0.00    +0.000 A 
ENDBRANCH   2   4
BRANCH   3  11
ATOM     11  N   UNL     1      19.891   9.616  37.476  0.00  0.00    +0.000 NA
BRANCH  11  12
ATOM     12  C   UNL     1      20.942  10.566  37.741  0.00  0.00    +0.000 C 
ATOM     13  C   UNL     1      22.100  10.281  37.199  0.00  0.00    +0.000 C 
ATOM     14  C   UNL     1      22.591   9.291  36.422  0.00  0.00    +0.000 C 
ATOM     15  C   UNL     1      24.170   9.457  36.291  0.00  0.00    +0.000 C 
ATOM     16  C   UNL     1      24.561   9.490  37.849  0.00  0.00    +0.000 C 
ATOM     17  C   UNL     1      24.129  10.431  38.441  0.00  0.00    +0.000 C 
ATOM     18  C   UNL     1      23.272  11.402  37.529  0.00  0.00    +0.000 C 
ATOM     19  C   UNL     1      24.083  11.095  36.157  0.00  0.00    +0.000 C 
ENDBRANCH  11  12
ENDBRANCH   3  11
TORSDOF 3
ENDMDL
MODEL 2
REMARK VINA RESULT:      -6.7     17.447     20.387
REMARK  Name = 
REMARK  3 active torsions:
REMARK  status: ('A' for Active; 'I' for Inactive)
REMARK    1  A    between atoms: C_2  and  C_13
REMARK    2  A    between atoms: N_3  and  N_4
REMARK    3  A    between atoms: N_4  and  C_5
REMARK                            x       y       z     vdW  Elec       q    Type
REMARK                         _______ _______ _______ _____ _____    ______ ____
ROOT
ATOM      1  O   UNL     1      34.987  -2.146  35.267  0.00  0.00    +0.000 OA
ATOM      2  C   UNL     1      34.224  -1.749  34.353  0.00  0.00    +0.000 C 
ATOM      3  N   UNL     1      33.537  -2.707  33.565  0.00  0.00    +0.000 NA
ENDROOT
BRANCH   2   4
ATOM      4  C   UNL     1      34.011  -0.346  34.063  0.00  0.00    +0.000 A 
ATOM      5  C   UNL     1      34.156   0.152  32.781  0.00  0.00    +0.000 A 
ATOM      6  C   UNL     1      33.949   1.504  32.514  0.00  0.00    +0.000 A 
ATOM      7  C   UNL     1      33.591   2.345  33.542  0.00  0.00    +0.000 A 
ATOM      8 CL   UNL     1      33.293   4.064  33.314  0.00  0.00    +0.000 Cl
ATOM      9  C   UNL     1      33.438   1.869  34.834  0.00  0.00    +0.000 A 
ATOM     10  C   UNL     1      33.651   0.549  35.044  0.00  0.00    +0.000 A 
ENDBRANCH   2   4
BRANCH   3  11
ATOM     11  N   UNL     1      33.641  -4.087  33.729  0.00  0.00    +0.000 NA
BRANCH  11  12
ATOM     12  C   UNL     1      32.847  -4.877  32.822  0.00  0.00    +0.000 C 
ATOM     13  C   UNL     1      33.526  -5.535  31.914  0.00  0.00    +0.000 C 
ATOM     14  C   UNL     1      34.830  -5.675  31.591  0.00  0.00    +0.000 C 
ATOM     15  C   UNL     1      34.950  -6.477  30.219  0.00  0.00    +0.000 C 
ATOM     16  C   UNL     1      34.014  -5.556  29.294  0.00  0.00    +0.000 C 
ATOM     17  C   UNL     1      32.868  -5.538  29.623  0.00  0.00    +0.000 C 
ATOM     18  C   UNL     1      32.572  -6.428  30.900  0.00  0.00    +0.000 C 
ATOM     19  C   UNL     1      33.738  -7.519  30.612  0.00  0.00    +0.000 C 
ENDBRANCH  11  12
ENDBRANCH   3  11
TORSDOF 3
ENDMDL
MODEL 3
REMARK VINA RESULT:      -6.7      3.512      8.077
REMARK  Name = 
REMARK  3 active torsions:
REMARK  status: ('A' for Active; 'I' for Inactive)
REMARK    1  A    between atoms: C_2  and  C_13
REMARK    2  A    between atoms: N_3  and  N_4
REMARK    3  A    between atoms: N_4  and  C_5
REMARK                            x       y       z     vdW  Elec       q    Type
REMARK                         _______ _______ _______ _____ _____    ______ ____
ROOT
ATOM      1  O   UNL     1      17.367   8.918  35.169  0.00  0.00    +0.000 OA
ATOM      2  C   UNL     1      17.564  10.052  35.667  0.00  0.00    +0.000 C 
ATOM      3  N   UNL     1      16.733  11.131  35.272  0.00  0.00    +0.000 NA
ENDROOT
BRANCH   2   4
ATOM      4  C   UNL     1      18.610  10.313  36.633  0.00  0.00    +0.000 A 
ATOM      5  C   UNL     1      19.837   9.680  36.552  0.00  0.00    +0.000 A 
ATOM      6  C   UNL     1      20.836   9.939  37.488  0.00  0.00    +0.000 A 
ATOM      7  C   UNL     1      20.594  10.839  38.499  0.00  0.00    +0.000 A 
ATOM      8 CL   UNL     1      21.787  11.249  39.724  0.00  0.00    +0.000 Cl
ATOM      9  C   UNL     1      19.373  11.487  38.601  0.00  0.00    +0.000 A 
ATOM     10  C   UNL     1      18.434  11.202  37.669  0.00  0.00    +0.000 A 
ENDBRANCH   2   4
BRANCH   3  11
ATOM     11  N   UNL     1      15.687  11.031  34.356  0.00  0.00    +0.000 NA
BRANCH  11  12
ATOM     12  C   UNL     1      16.049  11.262  32.980  0.00  0.00    +0.000 C 
ATOM     13  C   UNL     1      15.446  12.276  32.408  0.00  0.00    +0.000 C 
ATOM     14  C   UNL     1      14.538  13.202  32.785  0.00  0.00    +0.000 C 
ATOM     15  C   UNL     1      14.075  14.036  31.508  0.00  0.00    +0.000 C 
ATOM     16  C   UNL     1      13.606  12.827  30.560  0.00  0.00    +0.000 C 
ATOM     17  C   UNL     1      14.487  12.093  30.234  0.00  0.00    +0.000 C 
ATOM     18  C   UNL     1      15.896  12.503  30.833  0.00  0.00    +0.000 C 
ATOM     19  C   UNL     1      15.595  14.097  30.879  0.00  0.00    +0.000 C 
ENDBRANCH  11  12
ENDBRANCH   3  11
TORSDOF 3
ENDMDL
MODEL 4
REMARK VINA RESULT:      -6.6      4.305      5.396
REMARK  Name = 
REMARK  3 active torsions:
REMARK  status: ('A' for Active; 'I' for Inactive)
REMARK    1  A    between atoms: C_2  and  C_13
REMARK    2  A    between atoms: N_3  and  N_4
REMARK    3  A    between atoms: N_4  and  C_5
REMARK                            x       y       z     vdW  Elec       q    Type
REMARK                         _______ _______ _______ _____ _____    ______ ____
ROOT
ATOM      1  O   UNL     1      16.864  12.522  36.894  0.00  0.00    +0.000 OA
ATOM      2  C   UNL     1      16.730  11.477  36.212  0.00  0.00    +0.000 C 
ATOM      3  N   UNL     1      17.087  10.231  36.786  0.00  0.00    +0.000 NA
ENDROOT
BRANCH   2   4
ATOM      4  C   UNL     1      16.222  11.485  34.856  0.00  0.00    +0.000 A 
ATOM      5  C   UNL     1      15.139  12.269  34.500  0.00  0.00    +0.000 A 
ATOM      6  C   UNL     1      14.660  12.268  33.192  0.00  0.00    +0.000 A 
ATOM      7  C   UNL     1      15.278  11.481  32.249  0.00  0.00    +0.000 A 
ATOM      8 CL   UNL     1      14.762  11.415  30.568  0.00  0.00    +0.000 Cl
ATOM      9  C   UNL     1      16.364  10.688  32.582  0.00  0.00    +0.000 A 
ATOM     10  C   UNL     1      16.794  10.722  33.865  0.00  0.00    +0.000 A 
ENDBRANCH   2   4
BRANCH   3  11
ATOM     11  N   UNL     1      17.586  10.067  38.077  0.00  0.00    +0.000 NA
BRANCH  11  12
ATOM     12  C   UNL     1      16.591  10.001  39.118  0.00  0.00    +0.000 C 
ATOM     13  C   UNL     1      17.002   9.481  40.249  0.00  0.00    +0.000 C 
ATOM     14  C   UNL     1      18.161   8.970  40.717  0.00  0.00    +0.000 C 
ATOM     15  C   UNL     1      17.908   8.310  42.145  0.00  0.00    +0.000 C 
ATOM     16  C   UNL     1      16.714   7.306  41.762  0.00  0.00    +0.000 C 
ATOM     17  C   UNL     1      15.711   7.850  41.413  0.00  0.00    +0.000 C 
ATOM     18  C   UNL     1      15.827   9.430  41.412  0.00  0.00    +0.000 C 
ATOM     19  C   UNL     1      16.897   9.516  42.629  0.00  0.00    +0.000 C 
ENDBRANCH  11  12
ENDBRANCH   3  11
TORSDOF 3
ENDMDL
MODEL 5
REMARK VINA RESULT:      -6.3      3.838      5.496
REMARK  Name = 
REMARK  3 active torsions:
REMARK  status: ('A' for Active; 'I' for Inactive)
REMARK    1  A    between atoms: C_2  and  C_13
REMARK    2  A    between atoms: N_3  and  N_4
REMARK    3  A    between atoms: N_4  and  C_5
REMARK                            x       y       z     vdW  Elec       q    Type
REMARK                         _______ _______ _______ _____ _____    ______ ____
ROOT
ATOM      1  O   UNL     1      18.624  11.363  38.224  0.00  0.00    +0.000 OA
ATOM      2  C   UNL     1      18.339  10.425  37.440  0.00  0.00    +0.000 C 
ATOM      3  N   UNL     1      18.634   9.093  37.826  0.00  0.00    +0.000 NA
ENDROOT
BRANCH   2   4
ATOM      4  C   UNL     1      17.717  10.641  36.151  0.00  0.00    +0.000 A 
ATOM      5  C   UNL     1      18.071   9.886  35.048  0.00  0.00    +0.000 A 
ATOM      6  C   UNL     1      17.465  10.103  33.811  0.00  0.00    +0.000 A 
ATOM      7  C   UNL     1      16.503  11.079  33.696  0.00  0.00    +0.000 A 
ATOM      8 CL   UNL     1      15.668  11.428  32.188  0.00  0.00    +0.000 Cl
ATOM      9  C   UNL     1      16.131  11.848  34.787  0.00  0.00    +0.000 A 
ATOM     10  C   UNL     1      16.748  11.600  35.966  0.00  0.00    +0.000 A 
ENDBRANCH   2   4
BRANCH   3  11
ATOM     11  N   UNL     1      19.228   8.731  39.034  0.00  0.00    +0.000 NA
BRANCH  11  12
ATOM     12  C   UNL     1      18.503   7.756  39.810  0.00  0.00    +0.000 C 
ATOM     13  C   UNL     1      17.561   8.244  40.579  0.00  0.00    +0.000 C 
ATOM     14  C   UNL     1      17.067   9.472  40.848  0.00  0.00    +0.000 C 
ATOM     15  C   UNL     1      16.038   9.372  42.061  0.00  0.00    +0.000 C 
ATOM     16  C   UNL     1      16.982   8.658  43.147  0.00  0.00    +0.000 C 
ATOM     17  C   UNL     1      17.323   7.555  42.849  0.00  0.00    +0.000 C 
ATOM     18  C   UNL     1      16.757   7.086  41.445  0.00  0.00    +0.000 C 
ATOM     19  C   UNL     1      15.391   7.959  41.521  0.00  0.00    +0.000 C 
ENDBRANCH  11  12
ENDBRANCH   3  11
TORSDOF 3
ENDMDL
MODEL 6
REMARK VINA RESULT:      -6.1     22.080     23.487
REMARK  Name = 
REMARK  3 active torsions:
REMARK  status: ('A' for Active; 'I' for Inactive)
REMARK    1  A    between atoms: C_2  and  C_13
REMARK    2  A    between atoms: N_3  and  N_4
REMARK    3  A    between atoms: N_4  and  C_5
REMARK                            x       y       z     vdW  Elec       q    Type
REMARK                         _______ _______ _______ _____ _____    ______ ____
ROOT
ATOM      1  O   UNL     1      27.780  26.229  21.166  0.00  0.00    +0.000 OA
ATOM      2  C   UNL     1      28.942  26.102  20.709  0.00  0.00    +0.000 C 
ATOM      3  N   UNL     1      29.611  24.862  20.866  0.00  0.00    +0.000 NA
ENDROOT
BRANCH   2   4
ATOM      4  C   UNL     1      29.637  27.172  20.023  0.00  0.00    +0.000 A 
ATOM      5  C   UNL     1      29.541  28.482  20.455  0.00  0.00    +0.000 A 
ATOM      6  C   UNL     1      30.214  29.503  19.787  0.00  0.00    +0.000 A 
ATOM      7  C   UNL     1      30.983  29.196  18.689  0.00  0.00    +0.000 A 
ATOM      8 CL   UNL     1      31.883  30.404  17.781  0.00  0.00    +0.000 Cl
ATOM      9  C   UNL     1      31.095  27.891  18.238  0.00  0.00    +0.000 A 
ATOM     10  C   UNL     1      30.423  26.934  18.920  0.00  0.00    +0.000 A 
ENDBRANCH   2   4
BRANCH   3  11
ATOM     11  N   UNL     1      29.070  23.744  21.499  0.00  0.00    +0.000 NA
BRANCH  11  12
ATOM     12  C   UNL     1      29.066  23.793  22.940  0.00  0.00    +0.000 C 
ATOM     13  C   UNL     1      27.888  23.662  23.499  0.00  0.00    +0.000 C 
ATOM     14  C   UNL     1      26.622  23.484  23.064  0.00  0.00    +0.000 C 
ATOM     15  C   UNL     1      25.618  23.615  24.294  0.00  0.00    +0.000 C 
ATOM     16  C   UNL     1      26.058  25.060  24.840  0.00  0.00    +0.000 C 
ATOM     17  C   UNL     1      27.174  25.107  25.256  0.00  0.00    +0.000 C 
ATOM     18  C   UNL     1      27.937  23.722  25.151  0.00  0.00    +0.000 C 
ATOM     19  C   UNL     1      26.615  22.795  25.317  0.00  0.00    +0.000 C 
ENDBRANCH  11  12
ENDBRANCH   3  11
TORSDOF 3
ENDMDL
MODEL 7
REMARK VINA RESULT:      -5.9     16.723     18.102
REMARK  Name = 
REMARK  3 active torsions:
REMARK  status: ('A' for Active; 'I' for Inactive)
REMARK    1  A    between atoms: C_2  and  C_13
REMARK    2  A    between atoms: N_3  and  N_4
REMARK    3  A    between atoms: N_4  and  C_5
REMARK                            x       y       z     vdW  Elec       q    Type
REMARK                         _______ _______ _______ _____ _____    ______ ____
ROOT
ATOM      1  O   UNL     1      33.888   0.306  32.582  0.00  0.00    +0.000 OA
ATOM      2  C   UNL     1      33.492  -0.081  33.708  0.00  0.00    +0.000 C 
ATOM      3  N   UNL     1      33.348   0.868  34.751  0.00  0.00    +0.000 NA
ENDROOT
BRANCH   2   4
ATOM      4  C   UNL     1      33.172  -1.464  33.994  0.00  0.00    +0.000 A 
ATOM      5  C   UNL     1      32.258  -1.801  34.976  0.00  0.00    +0.000 A 
ATOM      6  C   UNL     1      31.959  -3.137  35.242  0.00  0.00    +0.000 A 
ATOM      7  C   UNL     1      32.579  -4.124  34.513  0.00  0.00    +0.000 A 
ATOM      8 CL   UNL     1      32.265  -5.837  34.757  0.00  0.00    +0.000 Cl
ATOM      9  C   UNL     1      33.497  -3.810  33.523  0.00  0.00    +0.000 A 
ATOM     10  C   UNL     1      33.755  -2.500  33.302  0.00  0.00    +0.000 A 
ENDBRANCH   2   4
BRANCH   3  11
ATOM     11  N   UNL     1      33.615   2.230  34.625  0.00  0.00    +0.000 NA
BRANCH  11  12
ATOM     12  C   UNL     1      34.145   2.867  35.804  0.00  0.00    +0.000 C 
ATOM     13  C   UNL     1      34.548   4.103  35.637  0.00  0.00    +0.000 C 
ATOM     14  C   UNL     1      34.598   4.976  34.608  0.00  0.00    +0.000 C 
ATOM     15  C   UNL     1      35.412   6.271  35.054  0.00  0.00    +0.000 C 
ATOM     16  C   UNL     1      36.770   5.571  35.547  0.00  0.00    +0.000 C 
ATOM     17  C   UNL     1      36.638   4.861  36.496  0.00  0.00    +0.000 C 
ATOM     18  C   UNL     1      35.144   4.791  37.018  0.00  0.00    +0.000 C 
ATOM     19  C   UNL     1      34.739   6.293  36.556  0.00  0.00    +0.000 C 
ENDBRANCH  11  12
ENDBRANCH   3  11
TORSDOF 3
ENDMDL
MODEL 8
REMARK VINA RESULT:      -5.8      4.130      4.801
REMARK  Name = 
REMARK  3 active torsions:
REMARK  status: ('A' for Active; 'I' for Inactive)
REMARK    1  A    between atoms: C_2  and  C_13
REMARK    2  A    between atoms: N_3  and  N_4
REMARK    3  A    between atoms: N_4  and  C_5
REMARK                            x       y       z     vdW  Elec       q    Type
REMARK                         _______ _______ _______ _____ _____    ______ ____
ROOT
ATOM      1  O   UNL     1      18.849  11.147  38.480  0.00  0.00    +0.000 OA
ATOM      2  C   UNL     1      18.404  10.231  37.747  0.00  0.00    +0.000 C 
ATOM      3  N   UNL     1      18.476   8.891  38.202  0.00  0.00    +0.000 NA
ENDROOT
BRANCH   2   4
ATOM      4  C   UNL     1      17.815  10.482  36.448  0.00  0.00    +0.000 A 
ATOM      5  C   UNL     1      18.109   9.681  35.360  0.00  0.00    +0.000 A 
ATOM      6  C   UNL     1      17.536   9.933  34.115  0.00  0.00    +0.000 A 
ATOM      7  C   UNL     1      16.666  10.989  33.975  0.00  0.00    +0.000 A 
ATOM      8 CL   UNL     1      15.878  11.387  32.454  0.00  0.00    +0.000 Cl
ATOM      9  C   UNL     1      16.356  11.805  35.051  0.00  0.00    +0.000 A 
ATOM     10  C   UNL     1      16.937  11.521  36.240  0.00  0.00    +0.000 A 
ENDBRANCH   2   4
BRANCH   3  11
ATOM     11  N   UNL     1      19.012   8.497  39.427  0.00  0.00    +0.000 NA
BRANCH  11  12
ATOM     12  C   UNL     1      18.555   7.222  39.919  0.00  0.00    +0.000 C 
ATOM     13  C   UNL     1      19.462   6.507  40.539  0.00  0.00    +0.000 C 
ATOM     14  C   UNL     1      20.766   6.656  40.853  0.00  0.00    +0.000 C 
ATOM     15  C   UNL     1      21.326   5.286  41.446  0.00  0.00    +0.000 C 
ATOM     16  C   UNL     1      20.923   4.297  40.246  0.00  0.00    +0.000 C 
ATOM     17  C   UNL     1      19.747   4.185  40.080  0.00  0.00    +0.000 C 
ATOM     18  C   UNL     1      18.889   5.055  41.088  0.00  0.00    +0.000 C 
ATOM     19  C   UNL     1      19.956   4.990  42.309  0.00  0.00    +0.000 C 
ENDBRANCH  11  12
ENDBRANCH   3  11
TORSDOF 3
ENDMDL
MODEL 9
REMARK VINA RESULT:      -5.8     23.291     24.558
REMARK  Name = 
REMARK  3 active torsions:
REMARK  status: ('A' for Active; 'I' for Inactive)
REMARK    1  A    between atoms: C_2  and  C_13
REMARK    2  A    between atoms: N_3  and  N_4
REMARK    3  A    between atoms: N_4  and  C_5
REMARK                            x       y       z     vdW  Elec       q    Type
REMARK                         _______ _______ _______ _____ _____    ______ ____
ROOT
ATOM      1  O   UNL     1      29.773  27.693  20.682  0.00  0.00    +0.000 OA
ATOM      2  C   UNL     1      29.792  26.993  19.640  0.00  0.00    +0.000 C 
ATOM      3  N   UNL     1      29.766  25.581  19.759  0.00  0.00    +0.000 NA
ENDROOT
BRANCH   2   4
ATOM      4  C   UNL     1      29.838  27.567  18.311  0.00  0.00    +0.000 A 
ATOM      5  C   UNL     1      28.785  28.314  17.815  0.00  0.00    +0.000 A 
ATOM      6  C   UNL     1      28.841  28.861  16.534  0.00  0.00    +0.000 A 
ATOM      7  C   UNL     1      29.961  28.655  15.763  0.00  0.00    +0.000 A 
ATOM      8 CL   UNL     1      30.141  29.309  14.140  0.00  0.00    +0.000 Cl
ATOM      9  C   UNL     1      31.028  27.910  16.239  0.00  0.00    +0.000 A 
ATOM     10  C   UNL     1      30.927  27.399  17.488  0.00  0.00    +0.000 A 
ENDBRANCH   2   4
BRANCH   3  11
ATOM     11  N   UNL     1      29.718  24.889  20.968  0.00  0.00    +0.000 NA
BRANCH  11  12
ATOM     12  C   UNL     1      28.396  24.652  21.491  0.00  0.00    +0.000 C 
ATOM     13  C   UNL     1      28.272  24.813  22.786  0.00  0.00    +0.000 C 
ATOM     14  C   UNL     1      29.091  25.159  23.803  0.00  0.00    +0.000 C 
ATOM     15  C   UNL     1      28.326  24.958  25.187  0.00  0.00    +0.000 C 
ATOM     16  C   UNL     1      27.891  23.420  25.027  0.00  0.00    +0.000 C 
ATOM     17  C   UNL     1      27.123  23.220  24.137  0.00  0.00    +0.000 C 
ATOM     18  C   UNL     1      26.738  24.533  23.338  0.00  0.00    +0.000 C 
ATOM     19  C   UNL     1      26.906  25.544  24.596  0.00  0.00    +0.000 C 
ENDBRANCH  11  12
ENDBRANCH   3  11
TORSDOF 3
ENDMDL
MODEL 10
REMARK VINA RESULT:      -5.7     23.435     24.781
REMARK  Name = 
REMARK  3 active torsions:
REMARK  status: ('A' for Active; 'I' for Inactive)
REMARK    1  A    between atoms: C_2  and  C_13
REMARK    2  A    between atoms: N_3  and  N_4
REMARK    3  A    between atoms: N_4  and  C_5
REMARK                            x       y       z     vdW  Elec       q    Type
REMARK                         _______ _______ _______ _____ _____    ______ ____
ROOT
ATOM      1  O   UNL     1      29.744  24.355  20.777  0.00  0.00    +0.000 OA
ATOM      2  C   UNL     1      29.047  25.186  21.409  0.00  0.00    +0.000 C 
ATOM      3  N   UNL     1      29.092  26.551  21.030  0.00  0.00    +0.000 NA
ENDROOT
BRANCH   2   4
ATOM      4  C   UNL     1      28.191  24.811  22.515  0.00  0.00    +0.000 A 
ATOM      5  C   UNL     1      27.198  23.861  22.364  0.00  0.00    +0.000 A 
ATOM      6  C   UNL     1      26.380  23.508  23.436  0.00  0.00    +0.000 A 
ATOM      7  C   UNL     1      26.571  24.114  24.656  0.00  0.00    +0.000 A 
ATOM      8 CL   UNL     1      25.605  23.735  26.076  0.00  0.00    +0.000 Cl
ATOM      9  C   UNL     1      27.560  25.068  24.832  0.00  0.00    +0.000 A 
ATOM     10  C   UNL     1      28.329  25.377  23.761  0.00  0.00    +0.000 A 
ENDBRANCH   2   4
BRANCH   3  11
ATOM     11  N   UNL     1      29.865  27.059  19.987  0.00  0.00    +0.000 NA
BRANCH  11  12
ATOM     12  C   UNL     1      29.169  27.923  19.067  0.00  0.00    +0.000 C 
ATOM     13  C   UNL     1      29.671  27.969  17.857  0.00  0.00    +0.000 C 
ATOM     14  C   UNL     1      30.711  27.394  17.216  0.00  0.00    +0.000 C 
ATOM     15  C   UNL     1      30.877  28.060  15.778  0.00  0.00    +0.000 C 
ATOM     16  C   UNL     1      30.987  29.602  16.214  0.00  0.00    +0.000 C 
ATOM     17  C   UNL     1      30.000  30.038  16.721  0.00  0.00    +0.000 C 
ATOM     18  C   UNL     1      28.836  28.970  16.839  0.00  0.00    +0.000 C 
ATOM     19  C   UNL     1      29.254  28.127  15.517  0.00  0.00    +0.000 C 
ENDBRANCH  11  12
ENDBRANCH   3  11
TORSDOF 3
ENDMDL
