MODEL 1
REMARK VINA RESULT:      -6.5      0.000      0.000
REMARK  Name = 
REMARK  4 active torsions:
REMARK  status: ('A' for Active; 'I' for Inactive)
REMARK    1  A    between atoms: S_2  and  C_3
REMARK    2  A    between atoms: C_6  and  C_7
REMARK    3  A    between atoms: N_8  and  N_9
REMARK    4  A    between atoms: C_10  and  C_12
REMARK                            x       y       z     vdW  Elec       q    Type
REMARK                         _______ _______ _______ _____ _____    ______ ____
ROOT
ATOM      1  C   UNL     1      17.322  10.047  38.132  0.00  0.00    +0.000 C 
ATOM      2  N   UNL     1      16.242  10.664  37.803  0.00  0.00    +0.000 NA
ENDROOT
BRANCH   1   6
ATOM      3  C   UNL     1      18.150   8.584  42.050  0.00  0.00    +0.000 A 
ATOM      4  C   UNL     1      16.899   9.073  41.755  0.00  0.00    +0.000 A 
ATOM      5  C   UNL     1      16.620   9.554  40.475  0.00  0.00    +0.000 A 
ATOM      6  C   UNL     1      17.558   9.554  39.496  0.00  0.00    +0.000 A 
ATOM      7  C   UNL     1      18.817   9.070  39.765  0.00  0.00    +0.000 A 
ATOM      8  C   UNL     1      19.075   8.601  41.029  0.00  0.00    +0.000 A 
BRANCH   3  10
ATOM      9  C   UNL     1      17.099   7.793  44.665  0.00  0.00    +0.000 C 
ATOM     10  S   UNL     1      18.593   7.951  43.651  0.00  0.00    +0.000 S 
ENDBRANCH   3  10
ENDBRANCH   1   6
BRANCH   2  11
ATOM     11  N   UNL     1      16.005  11.141  36.498  0.00  0.00    +0.000 NA
ATOM     12  C   UNL     1      14.912  12.009  36.225  0.00  0.00    +0.000 C 
ATOM     13  O   UNL     1      14.187  12.315  37.207  0.00  0.00    +0.000 OA
BRANCH  12  14
ATOM     14  C   UNL     1      14.643  12.516  34.879  0.00  0.00    +0.000 A 
ATOM     15  C   UNL     1      13.876  13.645  34.692  0.00  0.00    +0.000 A 
ATOM     16  C   UNL     1      13.646  14.092  33.393  0.00  0.00    +0.000 A 
ATOM     17  C   UNL     1      14.163  13.438  32.296  0.00  0.00    +0.000 A 
ATOM     18  C   UNL     1      13.896  13.947  30.906  0.00  0.00    +0.000 C 
ATOM     19  N   UNL     1      14.907  12.340  32.511  0.00  0.00    +0.000 NA
ATOM     20  C   UNL     1      15.142  11.889  33.766  0.00  0.00    +0.000 A 
ENDBRANCH  12  14
ENDBRANCH   2  11
TORSDOF 4
ENDMDL
MODEL 2
REMARK VINA RESULT:      -6.4      1.938      2.360
REMARK  Name = 
REMARK  4 active torsions:
REMARK  status: ('A' for Active; 'I' for Inactive)
REMARK    1  A    between atoms: S_2  and  C_3
REMARK    2  A    between atoms: C_6  and  C_7
REMARK    3  A    between atoms: N_8  and  N_9
REMARK    4  A    between atoms: C_10  and  C_12
REMARK                            x       y       z     vdW  Elec       q    Type
REMARK                         _______ _______ _______ _____ _____    ______ ____
ROOT
ATOM      1  C   UNL     1      17.079  10.170  38.482  0.00  0.00    +0.000 C 
ATOM      2  N   UNL     1      17.282   9.881  37.245  0.00  0.00    +0.000 NA
ENDROOT
BRANCH   1   6
ATOM      3  C   UNL     1      19.105   8.019  41.555  0.00  0.00    +0.000 A 
ATOM      4  C   UNL     1      17.969   8.731  41.857  0.00  0.00    +0.000 A 
ATOM      5  C   UNL     1      17.299   9.439  40.857  0.00  0.00    +0.000 A 
ATOM      6  C   UNL     1      17.742   9.445  39.576  0.00  0.00    +0.000 A 
ATOM      7  C   UNL     1      18.875   8.740  39.247  0.00  0.00    +0.000 A 
ATOM      8  C   UNL     1      19.522   8.051  40.241  0.00  0.00    +0.000 A 
BRANCH   3  10
ATOM      9  C   UNL     1      19.246   5.465  42.980  0.00  0.00    +0.000 C 
ATOM     10  S   UNL     1      20.020   7.090  42.764  0.00  0.00    +0.000 S 
ENDBRANCH   3  10
ENDBRANCH   1   6
BRANCH   2  11
ATOM     11  N   UNL     1      16.654  10.569  36.188  0.00  0.00    +0.000 NA
ATOM     12  C   UNL     1      16.901  10.212  34.834  0.00  0.00    +0.000 C 
ATOM     13  O   UNL     1      17.702   9.259  34.648  0.00  0.00    +0.000 OA
BRANCH  12  14
ATOM     14  C   UNL     1      16.262  10.911  33.719  0.00  0.00    +0.000 A 
ATOM     15  C   UNL     1      16.563  10.583  32.415  0.00  0.00    +0.000 A 
ATOM     16  C   UNL     1      15.930  11.276  31.386  0.00  0.00    +0.000 A 
ATOM     17  C   UNL     1      15.016  12.276  31.636  0.00  0.00    +0.000 A 
ATOM     18  C   UNL     1      14.351  13.005  30.501  0.00  0.00    +0.000 C 
ATOM     19  N   UNL     1      14.744  12.573  32.918  0.00  0.00    +0.000 NA
ATOM     20  C   UNL     1      15.348  11.912  33.934  0.00  0.00    +0.000 A 
ENDBRANCH  12  14
ENDBRANCH   2  11
TORSDOF 4
ENDMDL
MODEL 3
REMARK VINA RESULT:      -6.1     22.912     25.906
REMARK  Name = 
REMARK  4 active torsions:
REMARK  status: ('A' for Active; 'I' for Inactive)
REMARK    1  A    between atoms: S_2  and  C_3
REMARK    2  A    between atoms: C_6  and  C_7
REMARK    3  A    between atoms: N_8  and  N_9
REMARK    4  A    between atoms: C_10  and  C_12
REMARK                            x       y       z     vdW  Elec       q    Type
REMARK                         _______ _______ _______ _____ _____    ______ ____
ROOT
ATOM      1  C   UNL     1      28.741  24.316  21.610  0.00  0.00    +0.000 C 
ATOM      2  N   UNL     1      29.719  25.047  21.203  0.00  0.00    +0.000 NA
ENDROOT
BRANCH   1   6
ATOM      3  C   UNL     1      28.401  22.790  25.577  0.00  0.00    +0.000 A 
ATOM      4  C   UNL     1      29.642  22.906  24.994  0.00  0.00    +0.000 A 
ATOM      5  C   UNL     1      29.762  23.404  23.696  0.00  0.00    +0.000 A 
ATOM      6  C   UNL     1      28.676  23.785  22.979  0.00  0.00    +0.000 A 
ATOM      7  C   UNL     1      27.424  23.679  23.538  0.00  0.00    +0.000 A 
ATOM      8  C   UNL     1      27.323  23.187  24.815  0.00  0.00    +0.000 A 
BRANCH   3  10
ATOM      9  C   UNL     1      29.500  22.748  28.289  0.00  0.00    +0.000 C 
ATOM     10  S   UNL     1      28.155  22.167  27.223  0.00  0.00    +0.000 S 
ENDBRANCH   3  10
ENDBRANCH   1   6
BRANCH   2  11
ATOM     11  N   UNL     1      29.792  25.562  19.894  0.00  0.00    +0.000 NA
ATOM     12  C   UNL     1      29.801  26.964  19.660  0.00  0.00    +0.000 C 
ATOM     13  O   UNL     1      29.742  27.699  20.680  0.00  0.00    +0.000 OA
BRANCH  12  14
ATOM     14  C   UNL     1      29.875  27.524  18.310  0.00  0.00    +0.000 A 
ATOM     15  C   UNL     1      30.996  27.338  17.530  0.00  0.00    +0.000 A 
ATOM     16  C   UNL     1      31.023  27.890  16.251  0.00  0.00    +0.000 A 
ATOM     17  C   UNL     1      29.964  28.613  15.748  0.00  0.00    +0.000 A 
ATOM     18  C   UNL     1      30.024  29.195  14.363  0.00  0.00    +0.000 C 
ATOM     19  N   UNL     1      28.885  28.777  16.533  0.00  0.00    +0.000 NA
ATOM     20  C   UNL     1      28.839  28.250  17.779  0.00  0.00    +0.000 A 
ENDBRANCH  12  14
ENDBRANCH   2  11
TORSDOF 4
ENDMDL
MODEL 4
REMARK VINA RESULT:      -6.0      4.317      5.759
REMARK  Name = 
REMARK  4 active torsions:
REMARK  status: ('A' for Active; 'I' for Inactive)
REMARK    1  A    between atoms: S_2  and  C_3
REMARK    2  A    between atoms: C_6  and  C_7
REMARK    3  A    between atoms: N_8  and  N_9
REMARK    4  A    between atoms: C_10  and  C_12
REMARK                            x       y       z     vdW  Elec       q    Type
REMARK                         _______ _______ _______ _____ _____    ______ ____
ROOT
ATOM      1  C   UNL     1      19.995  10.019  38.297  0.00  0.00    +0.000 C 
ATOM      2  N   UNL     1      19.277  11.004  37.882  0.00  0.00    +0.000 NA
ENDROOT
BRANCH   1   6
ATOM      3  C   UNL     1      24.212   9.958  37.672  0.00  0.00    +0.000 A 
ATOM      4  C   UNL     1      23.707   9.766  38.936  0.00  0.00    +0.000 A 
ATOM      5  C   UNL     1      22.328   9.784  39.150  0.00  0.00    +0.000 A 
ATOM      6  C   UNL     1      21.455   9.989  38.133  0.00  0.00    +0.000 A 
ATOM      7  C   UNL     1      21.934  10.183  36.858  0.00  0.00    +0.000 A 
ATOM      8  C   UNL     1      23.292  10.163  36.666  0.00  0.00    +0.000 A 
BRANCH   3  10
ATOM      9  C   UNL     1      26.813   8.931  38.535  0.00  0.00    +0.000 C 
ATOM     10  S   UNL     1      25.952   9.950  37.309  0.00  0.00    +0.000 S 
ENDBRANCH   3  10
ENDBRANCH   1   6
BRANCH   2  11
ATOM     11  N   UNL     1      17.878  11.043  38.034  0.00  0.00    +0.000 NA
ATOM     12  C   UNL     1      17.029  11.304  36.923  0.00  0.00    +0.000 C 
ATOM     13  O   UNL     1      17.602  11.493  35.818  0.00  0.00    +0.000 OA
BRANCH  12  14
ATOM     14  C   UNL     1      15.572  11.352  37.055  0.00  0.00    +0.000 A 
ATOM     15  C   UNL     1      14.958  10.980  38.231  0.00  0.00    +0.000 A 
ATOM     16  C   UNL     1      13.569  11.041  38.311  0.00  0.00    +0.000 A 
ATOM     17  C   UNL     1      12.797  11.461  37.251  0.00  0.00    +0.000 A 
ATOM     18  C   UNL     1      11.299  11.514  37.370  0.00  0.00    +0.000 C 
ATOM     19  N   UNL     1      13.425  11.816  36.118  0.00  0.00    +0.000 NA
ATOM     20  C   UNL     1      14.774  11.764  36.018  0.00  0.00    +0.000 A 
ENDBRANCH  12  14
ENDBRANCH   2  11
TORSDOF 4
ENDMDL
MODEL 5
REMARK VINA RESULT:      -5.9     20.522     22.722
REMARK  Name = 
REMARK  4 active torsions:
REMARK  status: ('A' for Active; 'I' for Inactive)
REMARK    1  A    between atoms: S_2  and  C_3
REMARK    2  A    between atoms: C_6  and  C_7
REMARK    3  A    between atoms: N_8  and  N_9
REMARK    4  A    between atoms: C_10  and  C_12
REMARK                            x       y       z     vdW  Elec       q    Type
REMARK                         _______ _______ _______ _____ _____    ______ ____
ROOT
ATOM      1  C   UNL     1      33.298  -2.892  33.949  0.00  0.00    +0.000 C 
ATOM      2  N   UNL     1      33.649  -1.813  33.342  0.00  0.00    +0.000 NA
ENDROOT
BRANCH   1   6
ATOM      3  C   UNL     1      33.528  -6.791  32.239  0.00  0.00    +0.000 A 
ATOM      4  C   UNL     1      33.828  -5.691  31.471  0.00  0.00    +0.000 A 
ATOM      5  C   UNL     1      33.756  -4.411  32.023  0.00  0.00    +0.000 A 
ATOM      6  C   UNL     1      33.392  -4.214  33.314  0.00  0.00    +0.000 A 
ATOM      7  C   UNL     1      33.088  -5.298  34.104  0.00  0.00    +0.000 A 
ATOM      8  C   UNL     1      33.164  -6.549  33.547  0.00  0.00    +0.000 A 
BRANCH   3  10
ATOM      9  C   UNL     1      34.931  -8.587  30.402  0.00  0.00    +0.000 C 
ATOM     10  S   UNL     1      33.595  -8.456  31.620  0.00  0.00    +0.000 S 
ENDBRANCH   3  10
ENDBRANCH   1   6
BRANCH   2  11
ATOM     11  N   UNL     1      33.563  -0.540  33.940  0.00  0.00    +0.000 NA
ATOM     12  C   UNL     1      33.879   0.636  33.205  0.00  0.00    +0.000 C 
ATOM     13  O   UNL     1      34.231   0.465  32.009  0.00  0.00    +0.000 OA
BRANCH  12  14
ATOM     14  C   UNL     1      33.799   1.968  33.804  0.00  0.00    +0.000 A 
ATOM     15  C   UNL     1      33.553   3.078  33.025  0.00  0.00    +0.000 A 
ATOM     16  C   UNL     1      33.487   4.327  33.637  0.00  0.00    +0.000 A 
ATOM     17  C   UNL     1      33.659   4.481  34.995  0.00  0.00    +0.000 A 
ATOM     18  C   UNL     1      33.581   5.844  35.625  0.00  0.00    +0.000 C 
ATOM     19  N   UNL     1      33.898   3.381  35.728  0.00  0.00    +0.000 NA
ATOM     20  C   UNL     1      33.967   2.157  35.152  0.00  0.00    +0.000 A 
ENDBRANCH  12  14
ENDBRANCH   2  11
TORSDOF 4
ENDMDL
MODEL 6
REMARK VINA RESULT:      -5.8     20.024     22.412
REMARK  Name = 
REMARK  4 active torsions:
REMARK  status: ('A' for Active; 'I' for Inactive)
REMARK    1  A    between atoms: S_2  and  C_3
REMARK    2  A    between atoms: C_6  and  C_7
REMARK    3  A    between atoms: N_8  and  N_9
REMARK    4  A    between atoms: C_10  and  C_12
REMARK                            x       y       z     vdW  Elec       q    Type
REMARK                         _______ _______ _______ _____ _____    ______ ____
ROOT
ATOM      1  C   UNL     1      33.279   0.781  33.500  0.00  0.00    +0.000 C 
ATOM      2  N   UNL     1      34.083  -0.189  33.760  0.00  0.00    +0.000 NA
ENDROOT
BRANCH   1   6
ATOM      3  C   UNL     1      33.942   4.660  35.141  0.00  0.00    +0.000 A 
ATOM      4  C   UNL     1      33.565   4.532  33.825  0.00  0.00    +0.000 A 
ATOM      5  C   UNL     1      33.345   3.266  33.280  0.00  0.00    +0.000 A 
ATOM      6  C   UNL     1      33.495   2.139  34.019  0.00  0.00    +0.000 A 
ATOM      7  C   UNL     1      33.872   2.240  35.338  0.00  0.00    +0.000 A 
ATOM      8  C   UNL     1      34.084   3.491  35.859  0.00  0.00    +0.000 A 
BRANCH   3  10
ATOM      9  C   UNL     1      35.872   6.844  35.417  0.00  0.00    +0.000 C 
ATOM     10  S   UNL     1      34.242   6.231  35.918  0.00  0.00    +0.000 S 
ENDBRANCH   3  10
ENDBRANCH   1   6
BRANCH   2  11
ATOM     11  N   UNL     1      33.886  -1.494  33.268  0.00  0.00    +0.000 NA
ATOM     12  C   UNL     1      33.398  -2.528  34.114  0.00  0.00    +0.000 C 
ATOM     13  O   UNL     1      33.158  -2.204  35.306  0.00  0.00    +0.000 OA
BRANCH  12  14
ATOM     14  C   UNL     1      33.186  -3.892  33.627  0.00  0.00    +0.000 A 
ATOM     15  C   UNL     1      33.576  -4.256  32.357  0.00  0.00    +0.000 A 
ATOM     16  C   UNL     1      33.354  -5.565  31.936  0.00  0.00    +0.000 A 
ATOM     17  C   UNL     1      32.757  -6.500  32.751  0.00  0.00    +0.000 A 
ATOM     18  C   UNL     1      32.531  -7.905  32.266  0.00  0.00    +0.000 C 
ATOM     19  N   UNL     1      32.387  -6.114  33.985  0.00  0.00    +0.000 NA
ATOM     20  C   UNL     1      32.593  -4.847  34.414  0.00  0.00    +0.000 A 
ENDBRANCH  12  14
ENDBRANCH   2  11
TORSDOF 4
ENDMDL
MODEL 7
REMARK VINA RESULT:      -5.8     23.704     27.844
REMARK  Name = 
REMARK  4 active torsions:
REMARK  status: ('A' for Active; 'I' for Inactive)
REMARK    1  A    between atoms: S_2  and  C_3
REMARK    2  A    between atoms: C_6  and  C_7
REMARK    3  A    between atoms: N_8  and  N_9
REMARK    4  A    between atoms: C_10  and  C_12
REMARK                            x       y       z     vdW  Elec       q    Type
REMARK                         _______ _______ _______ _____ _____    ______ ____
ROOT
ATOM      1  C   UNL     1      29.991  26.799  19.679  0.00  0.00    +0.000 C 
ATOM      2  N   UNL     1      29.738  25.541  19.780  0.00  0.00    +0.000 NA
ENDROOT
BRANCH   1   6
ATOM      3  C   UNL     1      30.046  28.845  15.939  0.00  0.00    +0.000 A 
ATOM      4  C   UNL     1      31.118  28.065  16.306  0.00  0.00    +0.000 A 
ATOM      5  C   UNL     1      31.108  27.392  17.528  0.00  0.00    +0.000 A 
ATOM      6  C   UNL     1      30.057  27.484  18.380  0.00  0.00    +0.000 A 
ATOM      7  C   UNL     1      28.973  28.257  18.037  0.00  0.00    +0.000 A 
ATOM      8  C   UNL     1      28.998  28.912  16.832  0.00  0.00    +0.000 A 
BRANCH   3  10
ATOM      9  C   UNL     1      30.711  31.375  14.627  0.00  0.00    +0.000 C 
ATOM     10  S   UNL     1      29.973  29.735  14.402  0.00  0.00    +0.000 S 
ENDBRANCH   3  10
ENDBRANCH   1   6
BRANCH   2  11
ATOM     11  N   UNL     1      29.671  24.874  21.019  0.00  0.00    +0.000 NA
ATOM     12  C   UNL     1      28.458  24.826  21.759  0.00  0.00    +0.000 C 
ATOM     13  O   UNL     1      27.469  25.408  21.242  0.00  0.00    +0.000 OA
BRANCH  12  14
ATOM     14  C   UNL     1      28.363  24.141  23.048  0.00  0.00    +0.000 A 
ATOM     15  C   UNL     1      27.137  23.811  23.583  0.00  0.00    +0.000 A 
ATOM     16  C   UNL     1      27.095  23.160  24.813  0.00  0.00    +0.000 A 
ATOM     17  C   UNL     1      28.241  22.839  25.506  0.00  0.00    +0.000 A 
ATOM     18  C   UNL     1      28.161  22.135  26.833  0.00  0.00    +0.000 C 
ATOM     19  N   UNL     1      29.422  23.174  24.959  0.00  0.00    +0.000 NA
ATOM     20  C   UNL     1      29.485  23.808  23.764  0.00  0.00    +0.000 A 
ENDBRANCH  12  14
ENDBRANCH   2  11
TORSDOF 4
ENDMDL
MODEL 8
REMARK VINA RESULT:      -5.7     24.055     25.135
REMARK  Name = 
REMARK  4 active torsions:
REMARK  status: ('A' for Active; 'I' for Inactive)
REMARK    1  A    between atoms: S_2  and  C_3
REMARK    2  A    between atoms: C_6  and  C_7
REMARK    3  A    between atoms: N_8  and  N_9
REMARK    4  A    between atoms: C_10  and  C_12
REMARK                            x       y       z     vdW  Elec       q    Type
REMARK                         _______ _______ _______ _____ _____    ______ ____
ROOT
ATOM      1  C   UNL     1      22.765  -6.671  24.774  0.00  0.00    +0.000 C 
ATOM      2  N   UNL     1      23.384  -7.598  24.129  0.00  0.00    +0.000 NA
ENDROOT
BRANCH   1   6
ATOM      3  C   UNL     1      18.898  -7.396  26.417  0.00  0.00    +0.000 A 
ATOM      4  C   UNL     1      19.253  -6.121  26.045  0.00  0.00    +0.000 A 
ATOM      5  C   UNL     1      20.517  -5.875  25.506  0.00  0.00    +0.000 A 
ATOM      6  C   UNL     1      21.421  -6.870  25.335  0.00  0.00    +0.000 A 
ATOM      7  C   UNL     1      21.091  -8.155  25.698  0.00  0.00    +0.000 A 
ATOM      8  C   UNL     1      19.846  -8.380  26.227  0.00  0.00    +0.000 A 
BRANCH   3  10
ATOM      9  C   UNL     1      16.129  -8.085  25.767  0.00  0.00    +0.000 C 
ATOM     10  S   UNL     1      17.312  -7.801  27.110  0.00  0.00    +0.000 S 
ENDBRANCH   3  10
ENDBRANCH   1   6
BRANCH   2  11
ATOM     11  N   UNL     1      24.672  -7.419  23.587  0.00  0.00    +0.000 NA
ATOM     12  C   UNL     1      25.633  -8.465  23.627  0.00  0.00    +0.000 C 
ATOM     13  O   UNL     1      25.263  -9.540  24.168  0.00  0.00    +0.000 OA
BRANCH  12  14
ATOM     14  C   UNL     1      26.978  -8.304  23.072  0.00  0.00    +0.000 A 
ATOM     15  C   UNL     1      27.301  -7.198  22.317  0.00  0.00    +0.000 A 
ATOM     16  C   UNL     1      28.592  -7.087  21.808  0.00  0.00    +0.000 A 
ATOM     17  C   UNL     1      29.551  -8.049  22.039  0.00  0.00    +0.000 A 
ATOM     18  C   UNL     1      30.936  -7.899  21.475  0.00  0.00    +0.000 C 
ATOM     19  N   UNL     1      29.205  -9.117  22.779  0.00  0.00    +0.000 NA
ATOM     20  C   UNL     1      27.954  -9.244  23.282  0.00  0.00    +0.000 A 
ENDBRANCH  12  14
ENDBRANCH   2  11
TORSDOF 4
ENDMDL
MODEL 9
REMARK VINA RESULT:      -5.7     24.277     25.352
REMARK  Name = 
REMARK  4 active torsions:
REMARK  status: ('A' for Active; 'I' for Inactive)
REMARK    1  A    between atoms: S_2  and  C_3
REMARK    2  A    between atoms: C_6  and  C_7
REMARK    3  A    between atoms: N_8  and  N_9
REMARK    4  A    between atoms: C_10  and  C_12
REMARK                            x       y       z     vdW  Elec       q    Type
REMARK                         _______ _______ _______ _____ _____    ______ ____
ROOT
ATOM      1  C   UNL     1      24.681  -8.561  22.863  0.00  0.00    +0.000 C 
ATOM      2  N   UNL     1      23.934  -7.518  22.964  0.00  0.00    +0.000 NA
ENDROOT
BRANCH   1   6
ATOM      3  C   UNL     1      28.613  -8.272  21.239  0.00  0.00    +0.000 A 
ATOM      4  C   UNL     1      27.812  -9.338  20.901  0.00  0.00    +0.000 A 
ATOM      5  C   UNL     1      26.523  -9.440  21.428  0.00  0.00    +0.000 A 
ATOM      6  C   UNL     1      26.028  -8.506  22.277  0.00  0.00    +0.000 A 
ATOM      7  C   UNL     1      26.808  -7.431  22.631  0.00  0.00    +0.000 A 
ATOM      8  C   UNL     1      28.072  -7.345  22.105  0.00  0.00    +0.000 A 
BRANCH   3  10
ATOM      9  C   UNL     1      30.190  -7.305  18.971  0.00  0.00    +0.000 C 
ATOM     10  S   UNL     1      30.264  -8.061  20.616  0.00  0.00    +0.000 S 
ENDBRANCH   3  10
ENDBRANCH   1   6
BRANCH   2  11
ATOM     11  N   UNL     1      22.641  -7.558  23.523  0.00  0.00    +0.000 NA
ATOM     12  C   UNL     1      22.349  -6.878  24.737  0.00  0.00    +0.000 C 
ATOM     13  O   UNL     1      23.303  -6.250  25.266  0.00  0.00    +0.000 OA
BRANCH  12  14
ATOM     14  C   UNL     1      21.015  -6.905  25.339  0.00  0.00    +0.000 A 
ATOM     15  C   UNL     1      20.356  -5.735  25.646  0.00  0.00    +0.000 A 
ATOM     16  C   UNL     1      19.089  -5.809  26.218  0.00  0.00    +0.000 A 
ATOM     17  C   UNL     1      18.480  -7.015  26.485  0.00  0.00    +0.000 A 
ATOM     18  C   UNL     1      17.110  -7.060  27.104  0.00  0.00    +0.000 C 
ATOM     19  N   UNL     1      19.148  -8.139  26.174  0.00  0.00    +0.000 NA
ATOM     20  C   UNL     1      20.382  -8.090  25.618  0.00  0.00    +0.000 A 
ENDBRANCH  12  14
ENDBRANCH   2  11
TORSDOF 4
ENDMDL
MODEL 10
REMARK VINA RESULT:      -5.7     22.402     23.631
REMARK  Name = 
REMARK  4 active torsions:
REMARK  status: ('A' for Active; 'I' for Inactive)
REMARK    1  A    between atoms: S_2  and  C_3
REMARK    2  A    between atoms: C_6  and  C_7
REMARK    3  A    between atoms: N_8  and  N_9
REMARK    4  A    between atoms: C_10  and  C_12
REMARK                            x       y       z     vdW  Elec       q    Type
REMARK                         _______ _______ _______ _____ _____    ______ ____
ROOT
ATOM      1  C   UNL     1      13.713  -8.454  25.203  0.00  0.00    +0.000 C 
ATOM      2  N   UNL     1      14.631  -8.054  26.012  0.00  0.00    +0.000 NA
ENDROOT
BRANCH   1   6
ATOM      3  C   UNL     1       9.730  -9.415  26.385  0.00  0.00    +0.000 A 
ATOM      4  C   UNL     1      10.711  -9.278  27.339  0.00  0.00    +0.000 A 
ATOM      5  C   UNL     1      12.017  -8.964  26.961  0.00  0.00    +0.000 A 
ATOM      6  C   UNL     1      12.356  -8.786  25.661  0.00  0.00    +0.000 A 
ATOM      7  C   UNL     1      11.394  -8.916  24.686  0.00  0.00    +0.000 A 
ATOM      8  C   UNL     1      10.115  -9.226  25.075  0.00  0.00    +0.000 A 
BRANCH   3  10
ATOM      9  C   UNL     1       6.967  -9.230  25.438  0.00  0.00    +0.000 C 
ATOM     10  S   UNL     1       8.043  -9.812  26.775  0.00  0.00    +0.000 S 
ENDBRANCH   3  10
ENDBRANCH   1   6
BRANCH   2  11
ATOM     11  N   UNL     1      15.935  -7.733  25.585  0.00  0.00    +0.000 NA
ATOM     12  C   UNL     1      17.059  -7.979  26.420  0.00  0.00    +0.000 C 
ATOM     13  O   UNL     1      16.814  -8.492  27.543  0.00  0.00    +0.000 OA
BRANCH  12  14
ATOM     14  C   UNL     1      18.422  -7.653  26.001  0.00  0.00    +0.000 A 
ATOM     15  C   UNL     1      18.915  -6.374  26.137  0.00  0.00    +0.000 A 
ATOM     16  C   UNL     1      20.219  -6.110  25.723  0.00  0.00    +0.000 A 
ATOM     17  C   UNL     1      21.024  -7.089  25.184  0.00  0.00    +0.000 A 
ATOM     18  C   UNL     1      22.427  -6.771  24.748  0.00  0.00    +0.000 C 
ATOM     19  N   UNL     1      20.514  -8.327  25.064  0.00  0.00    +0.000 NA
ATOM     20  C   UNL     1      19.249  -8.605  25.460  0.00  0.00    +0.000 A 
ENDBRANCH  12  14
ENDBRANCH   2  11
TORSDOF 4
ENDMDL
