MODEL 1
REMARK VINA RESULT:      -7.2      0.000      0.000
REMARK  Name = 
REMARK  2 active torsions:
REMARK  status: ('A' for Active; 'I' for Inactive)
REMARK    1  A    between atoms: C_2  and  N_3
REMARK    2  A    between atoms: C_2  and  C_15
REMARK                            x       y       z     vdW  Elec       q    Type
REMARK                         _______ _______ _______ _____ _____    ______ ____
ROOT
ATOM      1  C   UNL     1      26.611  23.960  24.166  0.00  0.00    +0.000 C 
ATOM      2  C   UNL     1      27.882  23.612  23.170  0.00  0.00    +0.000 C 
ENDROOT
BRANCH   2   3
ATOM      3  N   UNL     1      28.037  24.987  22.530  0.00  0.00    +0.000 N 
ATOM      4  C   UNL     1      27.297  25.985  23.010  0.00  0.00    +0.000 A 
ATOM      5  O   UNL     1      26.502  25.848  23.938  0.00  0.00    +0.000 OA
ATOM      6  N   UNL     1      27.387  27.249  22.477  0.00  0.00    +0.000 NA
ATOM      7  C   UNL     1      28.210  27.523  21.470  0.00  0.00    +0.000 A 
ATOM      8  C   UNL     1      28.312  28.803  20.919  0.00  0.00    +0.000 A 
ATOM      9  C   UNL     1      29.173  29.064  19.875  0.00  0.00    +0.000 A 
ATOM     10  C   UNL     1      29.931  28.018  19.392  0.00  0.00    +0.000 A 
ATOM     11  C   UNL     1      29.842  26.737  19.929  0.00  0.00    +0.000 A 
ATOM     12  C   UNL     1      28.983  26.503  20.962  0.00  0.00    +0.000 A 
ATOM     13  C   UNL     1      28.857  25.245  21.533  0.00  0.00    +0.000 A 
ATOM     14  N   UNL     1      29.583  24.324  21.045  0.00  0.00    +0.000 NA
ENDBRANCH   2   3
BRANCH   2  15
ATOM     15  C   UNL     1      28.988  23.710  24.377  0.00  0.00    +0.000 C 
ATOM     16  C   UNL     1      29.492  25.060  24.469  0.00  0.00    +0.000 C 
ATOM     17  C   UNL     1      30.507  25.136  25.538  0.00  0.00    +0.000 C 
ATOM     18  C   UNL     1      29.832  24.725  26.853  0.00  0.00    +0.000 C 
ATOM     19  C   UNL     1      29.222  23.341  26.747  0.00  0.00    +0.000 C 
ATOM     20  C   UNL     1      30.398  22.387  26.499  0.00  0.00    +0.000 C 
ATOM     21  C   UNL     1      31.044  22.728  25.151  0.00  0.00    +0.000 C 
ATOM     22  C   UNL     1      31.620  24.136  25.201  0.00  0.00    +0.000 C 
ATOM     23  C   UNL     1      29.980  22.614  24.114  0.00  0.00    +0.000 C 
ATOM     24  C   UNL     1      28.233  23.244  25.631  0.00  0.00    +0.000 C 
ENDBRANCH   2  15
TORSDOF 2
ENDMDL
MODEL 2
REMARK VINA RESULT:      -7.2      1.298      2.058
REMARK  Name = 
REMARK  2 active torsions:
REMARK  status: ('A' for Active; 'I' for Inactive)
REMARK    1  A    between atoms: C_2  and  N_3
REMARK    2  A    between atoms: C_2  and  C_15
REMARK                            x       y       z     vdW  Elec       q    Type
REMARK                         _______ _______ _______ _____ _____    ______ ____
ROOT
ATOM      1  C   UNL     1      27.471  25.865  24.516  0.00  0.00    +0.000 C 
ATOM      2  C   UNL     1      27.944  24.625  23.533  0.00  0.00    +0.000 C 
ENDROOT
BRANCH   2   3
ATOM      3  N   UNL     1      28.546  25.458  22.408  0.00  0.00    +0.000 N 
ATOM      4  C   UNL     1      29.059  24.815  21.361  0.00  0.00    +0.000 A 
ATOM      5  O   UNL     1      29.067  23.590  21.262  0.00  0.00    +0.000 OA
ATOM      6  N   UNL     1      29.618  25.507  20.313  0.00  0.00    +0.000 NA
ATOM      7  C   UNL     1      29.669  26.835  20.304  0.00  0.00    +0.000 A 
ATOM      8  C   UNL     1      30.235  27.551  19.246  0.00  0.00    +0.000 A 
ATOM      9  C   UNL     1      30.277  28.929  19.258  0.00  0.00    +0.000 A 
ATOM     10  C   UNL     1      29.740  29.577  20.351  0.00  0.00    +0.000 A 
ATOM     11  C   UNL     1      29.173  28.880  21.414  0.00  0.00    +0.000 A 
ATOM     12  C   UNL     1      29.144  27.516  21.379  0.00  0.00    +0.000 A 
ATOM     13  C   UNL     1      28.590  26.775  22.411  0.00  0.00    +0.000 A 
ATOM     14  N   UNL     1      28.111  27.429  23.390  0.00  0.00    +0.000 NA
ENDBRANCH   2   3
BRANCH   2  15
ATOM     15  C   UNL     1      29.283  24.295  24.420  0.00  0.00    +0.000 C 
ATOM     16  C   UNL     1      30.364  25.164  24.013  0.00  0.00    +0.000 C 
ATOM     17  C   UNL     1      31.574  24.844  24.795  0.00  0.00    +0.000 C 
ATOM     18  C   UNL     1      31.243  25.060  26.277  0.00  0.00    +0.000 C 
ATOM     19  C   UNL     1      30.056  24.218  26.702  0.00  0.00    +0.000 C 
ATOM     20  C   UNL     1      30.494  22.759  26.521  0.00  0.00    +0.000 C 
ATOM     21  C   UNL     1      30.758  22.496  25.034  0.00  0.00    +0.000 C 
ATOM     22  C   UNL     1      31.912  23.367  24.557  0.00  0.00    +0.000 C 
ATOM     23  C   UNL     1      29.500  22.814  24.303  0.00  0.00    +0.000 C 
ATOM     24  C   UNL     1      28.842  24.499  25.877  0.00  0.00    +0.000 C 
ENDBRANCH   2  15
TORSDOF 2
ENDMDL
MODEL 3
REMARK VINA RESULT:      -7.1     20.242     22.365
REMARK  Name = 
REMARK  2 active torsions:
REMARK  status: ('A' for Active; 'I' for Inactive)
REMARK    1  A    between atoms: C_2  and  N_3
REMARK    2  A    between atoms: C_2  and  C_15
REMARK                            x       y       z     vdW  Elec       q    Type
REMARK                         _______ _______ _______ _____ _____    ______ ____
ROOT
ATOM      1  C   UNL     1      21.822  12.646  39.446  0.00  0.00    +0.000 C 
ATOM      2  C   UNL     1      21.616  11.019  39.645  0.00  0.00    +0.000 C 
ENDROOT
BRANCH   2   3
ATOM      3  N   UNL     1      20.291  10.878  38.905  0.00  0.00    +0.000 N 
ATOM      4  C   UNL     1      19.729   9.672  38.858  0.00  0.00    +0.000 A 
ATOM      5  O   UNL     1      20.226   8.676  39.381  0.00  0.00    +0.000 OA
ATOM      6  N   UNL     1      18.535   9.476  38.205  0.00  0.00    +0.000 NA
ATOM      7  C   UNL     1      17.900  10.474  37.600  0.00  0.00    +0.000 A 
ATOM      8  C   UNL     1      16.686  10.289  36.933  0.00  0.00    +0.000 A 
ATOM      9  C   UNL     1      16.044  11.340  36.313  0.00  0.00    +0.000 A 
ATOM     10  C   UNL     1      16.643  12.581  36.373  0.00  0.00    +0.000 A 
ATOM     11  C   UNL     1      17.852  12.784  37.032  0.00  0.00    +0.000 A 
ATOM     12  C   UNL     1      18.467  11.728  37.639  0.00  0.00    +0.000 A 
ATOM     13  C   UNL     1      19.672  11.876  38.310  0.00  0.00    +0.000 A 
ATOM     14  N   UNL     1      20.172  13.044  38.330  0.00  0.00    +0.000 NA
ENDBRANCH   2   3
BRANCH   2  15
ATOM     15  C   UNL     1      22.675  10.635  38.453  0.00  0.00    +0.000 C 
ATOM     16  C   UNL     1      21.989  10.608  37.181  0.00  0.00    +0.000 C 
ATOM     17  C   UNL     1      22.940  10.234  36.116  0.00  0.00    +0.000 C 
ATOM     18  C   UNL     1      24.058  11.284  36.099  0.00  0.00    +0.000 C 
ATOM     19  C   UNL     1      24.735  11.387  37.452  0.00  0.00    +0.000 C 
ATOM     20  C   UNL     1      25.375  10.015  37.702  0.00  0.00    +0.000 C 
ATOM     21  C   UNL     1      24.270   8.957  37.800  0.00  0.00    +0.000 C 
ATOM     22  C   UNL     1      23.531   8.865  36.472  0.00  0.00    +0.000 C 
ATOM     23  C   UNL     1      23.359   9.376  38.901  0.00  0.00    +0.000 C 
ATOM     24  C   UNL     1      23.767  11.712  38.543  0.00  0.00    +0.000 C 
ENDBRANCH   2  15
TORSDOF 2
ENDMDL
MODEL 4
REMARK VINA RESULT:      -7.1      3.418      5.864
REMARK  Name = 
REMARK  2 active torsions:
REMARK  status: ('A' for Active; 'I' for Inactive)
REMARK    1  A    between atoms: C_2  and  N_3
REMARK    2  A    between atoms: C_2  and  C_15
REMARK                            x       y       z     vdW  Elec       q    Type
REMARK                         _______ _______ _______ _____ _____    ______ ____
ROOT
ATOM      1  C   UNL     1      28.271  21.874  27.486  0.00  0.00    +0.000 C 
ATOM      2  C   UNL     1      27.579  22.340  26.060  0.00  0.00    +0.000 C 
ENDROOT
BRANCH   2   3
ATOM      3  N   UNL     1      26.617  23.383  26.618  0.00  0.00    +0.000 N 
ATOM      4  C   UNL     1      25.805  24.002  25.763  0.00  0.00    +0.000 A 
ATOM      5  O   UNL     1      25.795  23.770  24.556  0.00  0.00    +0.000 OA
ATOM      6  N   UNL     1      24.914  24.953  26.201  0.00  0.00    +0.000 NA
ATOM      7  C   UNL     1      24.831  25.291  27.484  0.00  0.00    +0.000 A 
ATOM      8  C   UNL     1      23.930  26.256  27.942  0.00  0.00    +0.000 A 
ATOM      9  C   UNL     1      23.860  26.590  29.278  0.00  0.00    +0.000 A 
ATOM     10  C   UNL     1      24.710  25.938  30.146  0.00  0.00    +0.000 A 
ATOM     11  C   UNL     1      25.613  24.974  29.708  0.00  0.00    +0.000 A 
ATOM     12  C   UNL     1      25.664  24.661  28.381  0.00  0.00    +0.000 A 
ATOM     13  C   UNL     1      26.544  23.708  27.892  0.00  0.00    +0.000 A 
ATOM     14  N   UNL     1      27.300  23.142  28.742  0.00  0.00    +0.000 NA
ENDBRANCH   2   3
BRANCH   2  15
ATOM     15  C   UNL     1      28.848  23.290  25.636  0.00  0.00    +0.000 C 
ATOM     16  C   UNL     1      28.595  24.652  26.045  0.00  0.00    +0.000 C 
ATOM     17  C   UNL     1      29.726  25.507  25.636  0.00  0.00    +0.000 C 
ATOM     18  C   UNL     1      30.989  24.970  26.321  0.00  0.00    +0.000 C 
ATOM     19  C   UNL     1      31.225  23.513  25.971  0.00  0.00    +0.000 C 
ATOM     20  C   UNL     1      31.457  23.482  24.455  0.00  0.00    +0.000 C 
ATOM     21  C   UNL     1      30.180  23.943  23.743  0.00  0.00    +0.000 C 
ATOM     22  C   UNL     1      29.880  25.389  24.115  0.00  0.00    +0.000 C 
ATOM     23  C   UNL     1      29.083  23.034  24.176  0.00  0.00    +0.000 C 
ATOM     24  C   UNL     1      30.059  22.651  26.333  0.00  0.00    +0.000 C 
ENDBRANCH   2  15
TORSDOF 2
ENDMDL
MODEL 5
REMARK VINA RESULT:      -6.8     33.482     35.589
REMARK  Name = 
REMARK  2 active torsions:
REMARK  status: ('A' for Active; 'I' for Inactive)
REMARK    1  A    between atoms: C_2  and  N_3
REMARK    2  A    between atoms: C_2  and  C_15
REMARK                            x       y       z     vdW  Elec       q    Type
REMARK                         _______ _______ _______ _____ _____    ______ ____
ROOT
ATOM      1  C   UNL     1      18.398  -9.284  28.436  0.00  0.00    +0.000 C 
ATOM      2  C   UNL     1      17.826  -7.915  27.710  0.00  0.00    +0.000 C 
ENDROOT
BRANCH   2   3
ATOM      3  N   UNL     1      19.039  -7.610  26.839  0.00  0.00    +0.000 N 
ATOM      4  C   UNL     1      19.083  -6.430  26.223  0.00  0.00    +0.000 A 
ATOM      5  O   UNL     1      18.197  -5.583  26.326  0.00  0.00    +0.000 OA
ATOM      6  N   UNL     1      20.147  -6.093  25.421  0.00  0.00    +0.000 NA
ATOM      7  C   UNL     1      21.166  -6.924  25.231  0.00  0.00    +0.000 A 
ATOM      8  C   UNL     1      22.255  -6.595  24.419  0.00  0.00    +0.000 A 
ATOM      9  C   UNL     1      23.301  -7.473  24.236  0.00  0.00    +0.000 A 
ATOM     10  C   UNL     1      23.237  -8.689  24.883  0.00  0.00    +0.000 A 
ATOM     11  C   UNL     1      22.161  -9.035  25.695  0.00  0.00    +0.000 A 
ATOM     12  C   UNL     1      21.137  -8.149  25.860  0.00  0.00    +0.000 A 
ATOM     13  C   UNL     1      20.042  -8.443  26.659  0.00  0.00    +0.000 A 
ATOM     14  N   UNL     1      20.042  -9.579  27.229  0.00  0.00    +0.000 NA
ENDBRANCH   2   3
BRANCH   2  15
ATOM     15  C   UNL     1      16.888  -8.743  26.651  0.00  0.00    +0.000 C 
ATOM     16  C   UNL     1      17.603  -8.931  25.410  0.00  0.00    +0.000 C 
ATOM     17  C   UNL     1      16.745  -9.652  24.450  0.00  0.00    +0.000 C 
ATOM     18  C   UNL     1      16.387 -11.009  25.071  0.00  0.00    +0.000 C 
ATOM     19  C   UNL     1      15.710 -10.833  26.417  0.00  0.00    +0.000 C 
ATOM     20  C   UNL     1      14.403 -10.083  26.130  0.00  0.00    +0.000 C 
ATOM     21  C   UNL     1      14.735  -8.691  25.579  0.00  0.00    +0.000 C 
ATOM     22  C   UNL     1      15.467  -8.829  24.250  0.00  0.00    +0.000 C 
ATOM     23  C   UNL     1      15.581  -8.007  26.595  0.00  0.00    +0.000 C 
ATOM     24  C   UNL     1      16.553 -10.056  27.375  0.00  0.00    +0.000 C 
ENDBRANCH   2  15
TORSDOF 2
ENDMDL
MODEL 6
REMARK VINA RESULT:      -6.7      2.803      5.339
REMARK  Name = 
REMARK  2 active torsions:
REMARK  status: ('A' for Active; 'I' for Inactive)
REMARK    1  A    between atoms: C_2  and  N_3
REMARK    2  A    between atoms: C_2  and  C_15
REMARK                            x       y       z     vdW  Elec       q    Type
REMARK                         _______ _______ _______ _____ _____    ______ ____
ROOT
ATOM      1  C   UNL     1      30.235  22.610  24.921  0.00  0.00    +0.000 C 
ATOM      2  C   UNL     1      29.753  24.064  25.538  0.00  0.00    +0.000 C 
ENDROOT
BRANCH   2   3
ATOM      3  N   UNL     1      31.103  24.771  25.505  0.00  0.00    +0.000 N 
ATOM      4  C   UNL     1      31.192  25.972  26.073  0.00  0.00    +0.000 A 
ATOM      5  O   UNL     1      30.242  26.530  26.620  0.00  0.00    +0.000 OA
ATOM      6  N   UNL     1      32.379  26.664  26.077  0.00  0.00    +0.000 NA
ATOM      7  C   UNL     1      33.477  26.166  25.517  0.00  0.00    +0.000 A 
ATOM      8  C   UNL     1      34.691  26.858  25.513  0.00  0.00    +0.000 A 
ATOM      9  C   UNL     1      35.817  26.322  24.926  0.00  0.00    +0.000 A 
ATOM     10  C   UNL     1      35.704  25.077  24.344  0.00  0.00    +0.000 A 
ATOM     11  C   UNL     1      34.504  24.373  24.337  0.00  0.00    +0.000 A 
ATOM     12  C   UNL     1      33.402  24.925  24.924  0.00  0.00    +0.000 A 
ATOM     13  C   UNL     1      32.183  24.266  24.947  0.00  0.00    +0.000 A 
ATOM     14  N   UNL     1      32.144  23.123  24.394  0.00  0.00    +0.000 NA
ENDBRANCH   2   3
BRANCH   2  15
ATOM     15  C   UNL     1      29.107  24.569  24.117  0.00  0.00    +0.000 C 
ATOM     16  C   UNL     1      29.960  25.573  23.524  0.00  0.00    +0.000 C 
ATOM     17  C   UNL     1      29.361  26.045  22.260  0.00  0.00    +0.000 C 
ATOM     18  C   UNL     1      29.229  24.835  21.326  0.00  0.00    +0.000 C 
ATOM     19  C   UNL     1      28.406  23.734  21.967  0.00  0.00    +0.000 C 
ATOM     20  C   UNL     1      27.007  24.328  22.175  0.00  0.00    +0.000 C 
ATOM     21  C   UNL     1      27.100  25.494  23.167  0.00  0.00    +0.000 C 
ATOM     22  C   UNL     1      27.967  26.598  22.578  0.00  0.00    +0.000 C 
ATOM     23  C   UNL     1      27.689  24.954  24.424  0.00  0.00    +0.000 C 
ATOM     24  C   UNL     1      28.979  23.291  23.275  0.00  0.00    +0.000 C 
ENDBRANCH   2  15
TORSDOF 2
ENDMDL
MODEL 7
REMARK VINA RESULT:      -6.7      3.220      5.175
REMARK  Name = 
REMARK  2 active torsions:
REMARK  status: ('A' for Active; 'I' for Inactive)
REMARK    1  A    between atoms: C_2  and  N_3
REMARK    2  A    between atoms: C_2  and  C_15
REMARK                            x       y       z     vdW  Elec       q    Type
REMARK                         _______ _______ _______ _____ _____    ______ ____
ROOT
ATOM      1  C   UNL     1      28.203  21.932  27.479  0.00  0.00    +0.000 C 
ATOM      2  C   UNL     1      27.603  22.361  26.001  0.00  0.00    +0.000 C 
ENDROOT
BRANCH   2   3
ATOM      3  N   UNL     1      26.625  23.434  26.468  0.00  0.00    +0.000 N 
ATOM      4  C   UNL     1      26.551  23.683  27.774  0.00  0.00    +0.000 A 
ATOM      5  O   UNL     1      27.230  23.093  28.612  0.00  0.00    +0.000 OA
ATOM      6  N   UNL     1      25.689  24.636  28.262  0.00  0.00    +0.000 NA
ATOM      7  C   UNL     1      24.901  25.340  27.455  0.00  0.00    +0.000 A 
ATOM      8  C   UNL     1      24.020  26.312  27.937  0.00  0.00    +0.000 A 
ATOM      9  C   UNL     1      23.213  27.031  27.081  0.00  0.00    +0.000 A 
ATOM     10  C   UNL     1      23.305  26.758  25.733  0.00  0.00    +0.000 A 
ATOM     11  C   UNL     1      24.177  25.794  25.235  0.00  0.00    +0.000 A 
ATOM     12  C   UNL     1      24.965  25.095  26.102  0.00  0.00    +0.000 A 
ATOM     13  C   UNL     1      25.851  24.124  25.658  0.00  0.00    +0.000 A 
ATOM     14  N   UNL     1      25.890  23.920  24.405  0.00  0.00    +0.000 NA
ENDBRANCH   2   3
BRANCH   2  15
ATOM     15  C   UNL     1      28.908  23.280  25.623  0.00  0.00    +0.000 C 
ATOM     16  C   UNL     1      28.693  24.638  26.066  0.00  0.00    +0.000 C 
ATOM     17  C   UNL     1      29.857  25.467  25.699  0.00  0.00    +0.000 C 
ATOM     18  C   UNL     1      31.092  24.869  26.386  0.00  0.00    +0.000 C 
ATOM     19  C   UNL     1      31.285  23.416  25.998  0.00  0.00    +0.000 C 
ATOM     20  C   UNL     1      31.539  23.420  24.485  0.00  0.00    +0.000 C 
ATOM     21  C   UNL     1      30.288  23.943  23.768  0.00  0.00    +0.000 C 
ATOM     22  C   UNL     1      30.031  25.387  24.178  0.00  0.00    +0.000 C 
ATOM     23  C   UNL     1      29.157  23.058  24.160  0.00  0.00    +0.000 C 
ATOM     24  C   UNL     1      30.087  22.582  26.318  0.00  0.00    +0.000 C 
ENDBRANCH   2  15
TORSDOF 2
ENDMDL
MODEL 8
REMARK VINA RESULT:      -6.5      2.934      6.030
REMARK  Name = 
REMARK  2 active torsions:
REMARK  status: ('A' for Active; 'I' for Inactive)
REMARK    1  A    between atoms: C_2  and  N_3
REMARK    2  A    between atoms: C_2  and  C_15
REMARK                            x       y       z     vdW  Elec       q    Type
REMARK                         _______ _______ _______ _____ _____    ______ ____
ROOT
ATOM      1  C   UNL     1      25.877  23.058  23.967  0.00  0.00    +0.000 C 
ATOM      2  C   UNL     1      25.741  24.703  24.030  0.00  0.00    +0.000 C 
ENDROOT
BRANCH   2   3
ATOM      3  N   UNL     1      25.746  24.862  25.546  0.00  0.00    +0.000 N 
ATOM      4  C   UNL     1      25.389  26.041  26.051  0.00  0.00    +0.000 A 
ATOM      5  O   UNL     1      25.056  26.998  25.355  0.00  0.00    +0.000 OA
ATOM      6  N   UNL     1      25.374  26.251  27.409  0.00  0.00    +0.000 NA
ATOM      7  C   UNL     1      25.714  25.293  28.265  0.00  0.00    +0.000 A 
ATOM      8  C   UNL     1      25.703  25.492  29.648  0.00  0.00    +0.000 A 
ATOM      9  C   UNL     1      26.059  24.484  30.518  0.00  0.00    +0.000 A 
ATOM     10  C   UNL     1      26.425  23.270  29.976  0.00  0.00    +0.000 A 
ATOM     11  C   UNL     1      26.442  23.053  28.601  0.00  0.00    +0.000 A 
ATOM     12  C   UNL     1      26.086  24.067  27.760  0.00  0.00    +0.000 A 
ATOM     13  C   UNL     1      26.085  23.903  26.384  0.00  0.00    +0.000 A 
ATOM     14  N   UNL     1      26.431  22.762  25.946  0.00  0.00    +0.000 NA
ENDBRANCH   2   3
BRANCH   2  15
ATOM     15  C   UNL     1      27.326  24.951  23.690  0.00  0.00    +0.000 C 
ATOM     16  C   UNL     1      28.029  25.328  24.894  0.00  0.00    +0.000 C 
ATOM     17  C   UNL     1      29.449  25.578  24.578  0.00  0.00    +0.000 C 
ATOM     18  C   UNL     1      30.034  24.283  24.000  0.00  0.00    +0.000 C 
ATOM     19  C   UNL     1      29.254  23.824  22.783  0.00  0.00    +0.000 C 
ATOM     20  C   UNL     1      29.428  24.932  21.736  0.00  0.00    +0.000 C 
ATOM     21  C   UNL     1      28.783  26.221  22.258  0.00  0.00    +0.000 C 
ATOM     22  C   UNL     1      29.507  26.683  23.516  0.00  0.00    +0.000 C 
ATOM     23  C   UNL     1      27.353  25.913  22.538  0.00  0.00    +0.000 C 
ATOM     24  C   UNL     1      27.804  23.623  23.085  0.00  0.00    +0.000 C 
ENDBRANCH   2  15
TORSDOF 2
ENDMDL
MODEL 9
REMARK VINA RESULT:      -6.4      2.781      6.585
REMARK  Name = 
REMARK  2 active torsions:
REMARK  status: ('A' for Active; 'I' for Inactive)
REMARK    1  A    between atoms: C_2  and  N_3
REMARK    2  A    between atoms: C_2  and  C_15
REMARK                            x       y       z     vdW  Elec       q    Type
REMARK                         _______ _______ _______ _____ _____    ______ ____
ROOT
ATOM      1  C   UNL     1      30.939  22.995  24.492  0.00  0.00    +0.000 C 
ATOM      2  C   UNL     1      29.312  22.711  24.540  0.00  0.00    +0.000 C 
ENDROOT
BRANCH   2   3
ATOM      3  N   UNL     1      29.140  22.695  26.055  0.00  0.00    +0.000 N 
ATOM      4  C   UNL     1      27.917  22.496  26.542  0.00  0.00    +0.000 A 
ATOM      5  O   UNL     1      26.929  22.323  25.830  0.00  0.00    +0.000 OA
ATOM      6  N   UNL     1      27.693  22.472  27.897  0.00  0.00    +0.000 NA
ATOM      7  C   UNL     1      28.681  22.646  28.769  0.00  0.00    +0.000 A 
ATOM      8  C   UNL     1      28.468  22.625  30.150  0.00  0.00    +0.000 A 
ATOM      9  C   UNL     1      29.508  22.808  31.036  0.00  0.00    +0.000 A 
ATOM     10  C   UNL     1      30.767  23.013  30.513  0.00  0.00    +0.000 A 
ATOM     11  C   UNL     1      30.998  23.038  29.140  0.00  0.00    +0.000 A 
ATOM     12  C   UNL     1      29.952  22.855  28.283  0.00  0.00    +0.000 A 
ATOM     13  C   UNL     1      30.128  22.869  26.908  0.00  0.00    +0.000 A 
ATOM     14  N   UNL     1      31.312  23.062  26.487  0.00  0.00    +0.000 NA
ENDBRANCH   2   3
BRANCH   2  15
ATOM     15  C   UNL     1      28.925  24.269  24.204  0.00  0.00    +0.000 C 
ATOM     16  C   UNL     1      28.713  24.995  25.435  0.00  0.00    +0.000 C 
ATOM     17  C   UNL     1      28.337  26.388  25.126  0.00  0.00    +0.000 C 
ATOM     18  C   UNL     1      29.487  27.016  24.326  0.00  0.00    +0.000 C 
ATOM     19  C   UNL     1      29.781  26.217  23.071  0.00  0.00    +0.000 C 
ATOM     20  C   UNL     1      28.509  26.299  22.218  0.00  0.00    +0.000 C 
ATOM     21  C   UNL     1      27.360  25.610  22.964  0.00  0.00    +0.000 C 
ATOM     22  C   UNL     1      27.072  26.355  24.261  0.00  0.00    +0.000 C 
ATOM     23  C   UNL     1      27.787  24.208  23.227  0.00  0.00    +0.000 C 
ATOM     24  C   UNL     1      30.108  24.791  23.375  0.00  0.00    +0.000 C 
ENDBRANCH   2  15
TORSDOF 2
ENDMDL
MODEL 10
REMARK VINA RESULT:      -6.4      1.765      2.485
REMARK  Name = 
REMARK  2 active torsions:
REMARK  status: ('A' for Active; 'I' for Inactive)
REMARK    1  A    between atoms: C_2  and  N_3
REMARK    2  A    between atoms: C_2  and  C_15
REMARK                            x       y       z     vdW  Elec       q    Type
REMARK                         _______ _______ _______ _____ _____    ______ ____
ROOT
ATOM      1  C   UNL     1      24.965  24.864  25.995  0.00  0.00    +0.000 C 
ATOM      2  C   UNL     1      25.903  23.790  25.161  0.00  0.00    +0.000 C 
ENDROOT
BRANCH   2   3
ATOM      3  N   UNL     1      26.570  24.778  24.212  0.00  0.00    +0.000 N 
ATOM      4  C   UNL     1      26.287  26.071  24.358  0.00  0.00    +0.000 A 
ATOM      5  O   UNL     1      25.519  26.499  25.218  0.00  0.00    +0.000 OA
ATOM      6  N   UNL     1      26.854  27.014  23.534  0.00  0.00    +0.000 NA
ATOM      7  C   UNL     1      27.700  26.675  22.567  0.00  0.00    +0.000 A 
ATOM      8  C   UNL     1      28.283  27.623  21.722  0.00  0.00    +0.000 A 
ATOM      9  C   UNL     1      29.159  27.249  20.725  0.00  0.00    +0.000 A 
ATOM     10  C   UNL     1      29.439  25.906  20.590  0.00  0.00    +0.000 A 
ATOM     11  C   UNL     1      28.867  24.947  21.422  0.00  0.00    +0.000 A 
ATOM     12  C   UNL     1      28.004  25.343  22.402  0.00  0.00    +0.000 A 
ATOM     13  C   UNL     1      27.407  24.429  23.258  0.00  0.00    +0.000 A 
ATOM     14  N   UNL     1      27.707  23.207  23.083  0.00  0.00    +0.000 NA
ENDBRANCH   2   3
BRANCH   2  15
ATOM     15  C   UNL     1      27.031  23.696  26.348  0.00  0.00    +0.000 C 
ATOM     16  C   UNL     1      28.006  24.747  26.179  0.00  0.00    +0.000 C 
ATOM     17  C   UNL     1      29.034  24.640  27.232  0.00  0.00    +0.000 C 
ATOM     18  C   UNL     1      28.330  24.778  28.588  0.00  0.00    +0.000 C 
ATOM     19  C   UNL     1      27.243  23.733  28.749  0.00  0.00    +0.000 C 
ATOM     20  C   UNL     1      27.961  22.378  28.723  0.00  0.00    +0.000 C 
ATOM     21  C   UNL     1      28.611  22.182  27.347  0.00  0.00    +0.000 C 
ATOM     22  C   UNL     1      29.673  23.251  27.127  0.00  0.00    +0.000 C 
ATOM     23  C   UNL     1      27.526  22.279  26.332  0.00  0.00    +0.000 C 
ATOM     24  C   UNL     1      26.228  23.801  27.654  0.00  0.00    +0.000 C 
ENDBRANCH   2  15
TORSDOF 2
ENDMDL
