MODEL 1
REMARK VINA RESULT:      -8.2      0.000      0.000
REMARK  Name = 
REMARK  7 active torsions:
REMARK  status: ('A' for Active; 'I' for Inactive)
REMARK    1  A    between atoms: C_2  and  C_4
REMARK    2  A    between atoms: C_4  and  N_5
REMARK    3  A    between atoms: C_8  and  C_9
REMARK    4  A    between atoms: N_11  and  C_12
REMARK    5  A    between atoms: C_12  and  C_14
REMARK    6  A    between atoms: C_14  and  C_15
REMARK    7  A    between atoms: C_15  and  C_16
REMARK                            x       y       z     vdW  Elec       q    Type
REMARK                         _______ _______ _______ _____ _____    ______ ____
ROOT
ATOM      1  N   UNL     1      36.017  -0.119  16.766  0.00  0.00    +0.000 N 
ATOM      2  C   UNL     1      35.689   1.134  16.473  0.00  0.00    +0.000 A 
ATOM      3  N   UNL     1      34.508   1.831  16.875  0.00  0.00    +0.000 NA
ATOM      4  C   UNL     1      36.676   1.704  15.696  0.00  0.00    +0.000 A 
ATOM      5  C   UNL     1      37.666   0.739  15.504  0.00  0.00    +0.000 A 
ATOM      6  N   UNL     1      38.837   0.746  14.838  0.00  0.00    +0.000 NA
ATOM      7  C   UNL     1      39.621  -0.353  14.816  0.00  0.00    +0.000 A 
ATOM      8  C   UNL     1      40.830  -0.397  14.149  0.00  0.00    +0.000 A 
ATOM      9  C   UNL     1      41.639  -1.518  14.121  0.00  0.00    +0.000 A 
ATOM     10  C   UNL     1      41.181  -2.626  14.806  0.00  0.00    +0.000 A 
ATOM     11  C   UNL     1      39.984  -2.588  15.468  0.00  0.00    +0.000 A 
ATOM     12  C   UNL     1      39.171  -1.466  15.498  0.00  0.00    +0.000 A 
ATOM     13  N   UNL     1      37.994  -1.458  16.160  0.00  0.00    +0.000 NA
ATOM     14  C   UNL     1      37.204  -0.364  16.188  0.00  0.00    +0.000 A 
ENDROOT
BRANCH   4  15
ATOM     15  C   UNL     1      36.749   3.048  15.140  0.00  0.00    +0.000 C 
ATOM     16  O   UNL     1      35.979   3.294  14.175  0.00  0.00    +0.000 OA
ATOM     17  N   UNL     1      37.596   4.066  15.590  0.00  0.00    +0.000 NA
BRANCH  17  18
ATOM     18  C   UNL     1      37.486   5.446  14.816  0.00  0.00    +0.000 C 
ATOM     19  C   UNL     1      38.953   5.221  14.051  0.00  0.00    +0.000 C 
BRANCH  18  20
ATOM     20  C   UNL     1      38.205   6.294  16.067  0.00  0.00    +0.000 C 
BRANCH  20  21
ATOM     21  C   UNL     1      39.606   5.763  16.150  0.00  0.00    +0.000 C 
BRANCH  21  22
ATOM     22  C   UNL     1      40.305   6.049  17.401  0.00  0.00    +0.000 A 
ATOM     23  C   UNL     1      39.596   5.983  18.592  0.00  0.00    +0.000 A 
ATOM     24  C   UNL     1      40.227   6.252  19.807  0.00  0.00    +0.000 A 
ATOM     25  C   UNL     1      41.546   6.583  19.855  0.00  0.00    +0.000 A 
ATOM     26  C   UNL     1      42.269   6.651  18.662  0.00  0.00    +0.000 A 
ATOM     27  C   UNL     1      41.627   6.382  17.465  0.00  0.00    +0.000 A 
ENDBRANCH  21  22
ENDBRANCH  20  21
ENDBRANCH  18  20
ENDBRANCH  17  18
ENDBRANCH   4  15
BRANCH   1  28
ATOM     28  C   UNL     1      35.199  -1.030  17.576  0.00  0.00    +0.000 C 
BRANCH  28  30
ATOM     29  C   UNL     1      32.903  -1.987  17.449  0.00  0.00    +0.000 C 
ATOM     30  C   UNL     1      34.201  -1.742  16.682  0.00  0.00    +0.000 C 
ATOM     31  C   UNL     1      34.725  -3.134  16.314  0.00  0.00    +0.000 C 
ENDBRANCH  28  30
ENDBRANCH   1  28
TORSDOF 7
ENDMDL
MODEL 2
REMARK VINA RESULT:      -8.2      1.238      1.711
REMARK  Name = 
REMARK  7 active torsions:
REMARK  status: ('A' for Active; 'I' for Inactive)
REMARK    1  A    between atoms: C_2  and  C_4
REMARK    2  A    between atoms: C_4  and  N_5
REMARK    3  A    between atoms: C_8  and  C_9
REMARK    4  A    between atoms: N_11  and  C_12
REMARK    5  A    between atoms: C_12  and  C_14
REMARK    6  A    between atoms: C_14  and  C_15
REMARK    7  A    between atoms: C_15  and  C_16
REMARK                            x       y       z     vdW  Elec       q    Type
REMARK                         _______ _______ _______ _____ _____    ______ ____
ROOT
ATOM      1  N   UNL     1      36.295  -1.676  16.187  0.00  0.00    +0.000 N 
ATOM      2  C   UNL     1      35.812  -0.452  16.363  0.00  0.00    +0.000 A 
ATOM      3  N   UNL     1      34.529  -0.101  16.886  0.00  0.00    +0.000 NA
ATOM      4  C   UNL     1      36.745   0.480  15.960  0.00  0.00    +0.000 A 
ATOM      5  C   UNL     1      37.866  -0.219  15.511  0.00  0.00    +0.000 A 
ATOM      6  N   UNL     1      39.054   0.176  15.012  0.00  0.00    +0.000 NA
ATOM      7  C   UNL     1      39.982  -0.735  14.648  0.00  0.00    +0.000 A 
ATOM      8  C   UNL     1      41.215  -0.382  14.133  0.00  0.00    +0.000 A 
ATOM      9  C   UNL     1      42.171  -1.308  13.757  0.00  0.00    +0.000 A 
ATOM     10  C   UNL     1      41.839  -2.638  13.921  0.00  0.00    +0.000 A 
ATOM     11  C   UNL     1      40.620  -2.992  14.431  0.00  0.00    +0.000 A 
ATOM     12  C   UNL     1      39.659  -2.068  14.808  0.00  0.00    +0.000 A 
ATOM     13  N   UNL     1      38.463  -2.447  15.308  0.00  0.00    +0.000 NA
ATOM     14  C   UNL     1      37.530  -1.545  15.675  0.00  0.00    +0.000 A 
ENDROOT
BRANCH   4  15
ATOM     15  C   UNL     1      36.657   1.934  15.968  0.00  0.00    +0.000 C 
ATOM     16  O   UNL     1      35.754   2.441  15.252  0.00  0.00    +0.000 OA
ATOM     17  N   UNL     1      37.485   2.792  16.698  0.00  0.00    +0.000 NA
BRANCH  17  18
ATOM     18  C   UNL     1      37.186   4.341  16.537  0.00  0.00    +0.000 C 
ATOM     19  C   UNL     1      38.417   4.542  15.428  0.00  0.00    +0.000 C 
BRANCH  18  20
ATOM     20  C   UNL     1      38.192   4.747  17.812  0.00  0.00    +0.000 C 
BRANCH  20  21
ATOM     21  C   UNL     1      39.126   5.784  17.261  0.00  0.00    +0.000 C 
BRANCH  21  22
ATOM     22  C   UNL     1      40.273   6.100  18.110  0.00  0.00    +0.000 A 
ATOM     23  C   UNL     1      41.503   6.333  17.512  0.00  0.00    +0.000 A 
ATOM     24  C   UNL     1      42.622   6.635  18.287  0.00  0.00    +0.000 A 
ATOM     25  C   UNL     1      42.537   6.708  19.643  0.00  0.00    +0.000 A 
ATOM     26  C   UNL     1      41.303   6.476  20.256  0.00  0.00    +0.000 A 
ATOM     27  C   UNL     1      40.203   6.177  19.470  0.00  0.00    +0.000 A 
ENDBRANCH  21  22
ENDBRANCH  20  21
ENDBRANCH  18  20
ENDBRANCH  17  18
ENDBRANCH   4  15
BRANCH   1  28
ATOM     28  C   UNL     1      35.575  -2.914  16.508  0.00  0.00    +0.000 C 
BRANCH  28  30
ATOM     29  C   UNL     1      33.589  -3.939  15.408  0.00  0.00    +0.000 C 
ATOM     30  C   UNL     1      35.051  -3.539  15.227  0.00  0.00    +0.000 C 
ATOM     31  C   UNL     1      35.798  -4.845  14.937  0.00  0.00    +0.000 C 
ENDBRANCH  28  30
ENDBRANCH   1  28
TORSDOF 7
ENDMDL
MODEL 3
REMARK VINA RESULT:      -7.9      4.003      6.706
REMARK  Name = 
REMARK  7 active torsions:
REMARK  status: ('A' for Active; 'I' for Inactive)
REMARK    1  A    between atoms: C_2  and  C_4
REMARK    2  A    between atoms: C_4  and  N_5
REMARK    3  A    between atoms: C_8  and  C_9
REMARK    4  A    between atoms: N_11  and  C_12
REMARK    5  A    between atoms: C_12  and  C_14
REMARK    6  A    between atoms: C_14  and  C_15
REMARK    7  A    between atoms: C_15  and  C_16
REMARK                            x       y       z     vdW  Elec       q    Type
REMARK                         _______ _______ _______ _____ _____    ______ ____
ROOT
ATOM      1  N   UNL     1      38.164  -2.228  16.683  0.00  0.00    +0.000 N 
ATOM      2  C   UNL     1      39.242  -2.456  15.941  0.00  0.00    +0.000 A 
ATOM      3  N   UNL     1      40.140  -3.563  16.046  0.00  0.00    +0.000 NA
ATOM      4  C   UNL     1      39.393  -1.444  15.016  0.00  0.00    +0.000 A 
ATOM      5  C   UNL     1      38.343  -0.544  15.205  0.00  0.00    +0.000 A 
ATOM      6  N   UNL     1      37.999   0.605  14.594  0.00  0.00    +0.000 NA
ATOM      7  C   UNL     1      36.904   1.292  14.988  0.00  0.00    +0.000 A 
ATOM      8  C   UNL     1      36.509   2.474  14.393  0.00  0.00    +0.000 A 
ATOM      9  C   UNL     1      35.389   3.183  14.790  0.00  0.00    +0.000 A 
ATOM     10  C   UNL     1      34.659   2.649  15.833  0.00  0.00    +0.000 A 
ATOM     11  C   UNL     1      35.047   1.478  16.424  0.00  0.00    +0.000 A 
ATOM     12  C   UNL     1      36.168   0.765  16.030  0.00  0.00    +0.000 A 
ATOM     13  N   UNL     1      36.526  -0.389  16.633  0.00  0.00    +0.000 NA
ATOM     14  C   UNL     1      37.618  -1.081  16.246  0.00  0.00    +0.000 A 
ENDROOT
BRANCH   4  15
ATOM     15  C   UNL     1      40.423  -1.272  14.000  0.00  0.00    +0.000 C 
ATOM     16  O   UNL     1      40.040  -1.346  12.802  0.00  0.00    +0.000 OA
ATOM     17  N   UNL     1      41.777  -1.037  14.251  0.00  0.00    +0.000 NA
BRANCH  17  18
ATOM     18  C   UNL     1      42.700  -0.885  12.970  0.00  0.00    +0.000 C 
ATOM     19  C   UNL     1      43.174  -2.484  13.027  0.00  0.00    +0.000 C 
BRANCH  18  20
ATOM     20  C   UNL     1      44.019  -0.401  13.879  0.00  0.00    +0.000 C 
BRANCH  20  21
ATOM     21  C   UNL     1      44.552  -1.660  14.499  0.00  0.00    +0.000 C 
BRANCH  21  22
ATOM     22  C   UNL     1      45.184  -1.488  15.806  0.00  0.00    +0.000 A 
ATOM     23  C   UNL     1      45.223  -0.219  16.367  0.00  0.00    +0.000 A 
ATOM     24  C   UNL     1      45.820  -0.013  17.610  0.00  0.00    +0.000 A 
ATOM     25  C   UNL     1      46.376  -1.045  18.302  0.00  0.00    +0.000 A 
ATOM     26  C   UNL     1      46.341  -2.326  17.746  0.00  0.00    +0.000 A 
ATOM     27  C   UNL     1      45.745  -2.512  16.510  0.00  0.00    +0.000 A 
ENDBRANCH  21  22
ENDBRANCH  20  21
ENDBRANCH  18  20
ENDBRANCH  17  18
ENDBRANCH   4  15
BRANCH   1  28
ATOM     28  C   UNL     1      37.697  -3.098  17.769  0.00  0.00    +0.000 C 
BRANCH  28  30
ATOM     29  C   UNL     1      38.906  -3.893  19.796  0.00  0.00    +0.000 C 
ATOM     30  C   UNL     1      38.347  -2.670  19.072  0.00  0.00    +0.000 C 
ATOM     31  C   UNL     1      37.292  -2.086  20.017  0.00  0.00    +0.000 C 
ENDBRANCH  28  30
ENDBRANCH   1  28
TORSDOF 7
ENDMDL
MODEL 4
REMARK VINA RESULT:      -7.9      2.043      2.576
REMARK  Name = 
REMARK  7 active torsions:
REMARK  status: ('A' for Active; 'I' for Inactive)
REMARK    1  A    between atoms: C_2  and  C_4
REMARK    2  A    between atoms: C_4  and  N_5
REMARK    3  A    between atoms: C_8  and  C_9
REMARK    4  A    between atoms: N_11  and  C_12
REMARK    5  A    between atoms: C_12  and  C_14
REMARK    6  A    between atoms: C_14  and  C_15
REMARK    7  A    between atoms: C_15  and  C_16
REMARK                            x       y       z     vdW  Elec       q    Type
REMARK                         _______ _______ _______ _____ _____    ______ ____
ROOT
ATOM      1  N   UNL     1      37.262  -1.697  15.913  0.00  0.00    +0.000 N 
ATOM      2  C   UNL     1      36.873  -0.498  16.332  0.00  0.00    +0.000 A 
ATOM      3  N   UNL     1      36.170  -0.194  17.538  0.00  0.00    +0.000 NA
ATOM      4  C   UNL     1      37.251   0.460  15.414  0.00  0.00    +0.000 A 
ATOM      5  C   UNL     1      37.910  -0.194  14.373  0.00  0.00    +0.000 A 
ATOM      6  N   UNL     1      38.480   0.239  13.232  0.00  0.00    +0.000 NA
ATOM      7  C   UNL     1      39.064  -0.633  12.382  0.00  0.00    +0.000 A 
ATOM      8  C   UNL     1      39.662  -0.239  11.201  0.00  0.00    +0.000 A 
ATOM      9  C   UNL     1      40.263  -1.125  10.324  0.00  0.00    +0.000 A 
ATOM     10  C   UNL     1      40.242  -2.458  10.685  0.00  0.00    +0.000 A 
ATOM     11  C   UNL     1      39.650  -2.852  11.854  0.00  0.00    +0.000 A 
ATOM     12  C   UNL     1      39.048  -1.967  12.734  0.00  0.00    +0.000 A 
ATOM     13  N   UNL     1      38.471  -2.387  13.881  0.00  0.00    +0.000 NA
ATOM     14  C   UNL     1      37.886  -1.522  14.736  0.00  0.00    +0.000 A 
ENDROOT
BRANCH   4  15
ATOM     15  C   UNL     1      37.041   1.902  15.449  0.00  0.00    +0.000 C 
ATOM     16  O   UNL     1      35.955   2.318  14.966  0.00  0.00    +0.000 OA
ATOM     17  N   UNL     1      37.939   2.839  15.968  0.00  0.00    +0.000 NA
BRANCH  17  18
ATOM     18  C   UNL     1      37.478   4.354  15.888  0.00  0.00    +0.000 C 
ATOM     19  C   UNL     1      38.780   4.781  14.935  0.00  0.00    +0.000 C 
BRANCH  18  20
ATOM     20  C   UNL     1      38.298   4.760  17.290  0.00  0.00    +0.000 C 
BRANCH  20  21
ATOM     21  C   UNL     1      39.425   5.646  16.844  0.00  0.00    +0.000 C 
BRANCH  21  22
ATOM     22  C   UNL     1      40.364   6.031  17.895  0.00  0.00    +0.000 A 
ATOM     23  C   UNL     1      39.920   6.061  19.209  0.00  0.00    +0.000 A 
ATOM     24  C   UNL     1      40.785   6.427  20.241  0.00  0.00    +0.000 A 
ATOM     25  C   UNL     1      42.079   6.761  19.986  0.00  0.00    +0.000 A 
ATOM     26  C   UNL     1      42.536   6.733  18.667  0.00  0.00    +0.000 A 
ATOM     27  C   UNL     1      41.664   6.369  17.655  0.00  0.00    +0.000 A 
ENDBRANCH  21  22
ENDBRANCH  20  21
ENDBRANCH  18  20
ENDBRANCH  17  18
ENDBRANCH   4  15
BRANCH   1  28
ATOM     28  C   UNL     1      37.028  -2.952  16.637  0.00  0.00    +0.000 C 
BRANCH  28  30
ATOM     29  C   UNL     1      38.294  -4.970  17.365  0.00  0.00    +0.000 C 
ATOM     30  C   UNL     1      38.340  -3.450  17.217  0.00  0.00    +0.000 C 
ATOM     31  C   UNL     1      38.524  -2.909  18.639  0.00  0.00    +0.000 C 
ENDBRANCH  28  30
ENDBRANCH   1  28
TORSDOF 7
ENDMDL
MODEL 5
REMARK VINA RESULT:      -7.8      1.467      4.468
REMARK  Name = 
REMARK  7 active torsions:
REMARK  status: ('A' for Active; 'I' for Inactive)
REMARK    1  A    between atoms: C_2  and  C_4
REMARK    2  A    between atoms: C_4  and  N_5
REMARK    3  A    between atoms: C_8  and  C_9
REMARK    4  A    between atoms: N_11  and  C_12
REMARK    5  A    between atoms: C_12  and  C_14
REMARK    6  A    between atoms: C_14  and  C_15
REMARK    7  A    between atoms: C_15  and  C_16
REMARK                            x       y       z     vdW  Elec       q    Type
REMARK                         _______ _______ _______ _____ _____    ______ ____
ROOT
ATOM      1  N   UNL     1      38.911   0.235  13.835  0.00  0.00    +0.000 N 
ATOM      2  C   UNL     1      39.141   1.526  14.046  0.00  0.00    +0.000 A 
ATOM      3  N   UNL     1      40.169   2.324  13.455  0.00  0.00    +0.000 NA
ATOM      4  C   UNL     1      38.223   2.022  14.947  0.00  0.00    +0.000 A 
ATOM      5  C   UNL     1      37.380   0.969  15.308  0.00  0.00    +0.000 A 
ATOM      6  N   UNL     1      36.325   0.883  16.140  0.00  0.00    +0.000 NA
ATOM      7  C   UNL     1      35.675  -0.290  16.306  0.00  0.00    +0.000 A 
ATOM      8  C   UNL     1      34.588  -0.430  17.147  0.00  0.00    +0.000 A 
ATOM      9  C   UNL     1      33.916  -1.627  17.322  0.00  0.00    +0.000 A 
ATOM     10  C   UNL     1      34.387  -2.709  16.604  0.00  0.00    +0.000 A 
ATOM     11  C   UNL     1      35.463  -2.574  15.770  0.00  0.00    +0.000 A 
ATOM     12  C   UNL     1      36.138  -1.377  15.592  0.00  0.00    +0.000 A 
ATOM     13  N   UNL     1      37.199  -1.274  14.761  0.00  0.00    +0.000 NA
ATOM     14  C   UNL     1      37.853  -0.107  14.590  0.00  0.00    +0.000 A 
ENDROOT
BRANCH   4  15
ATOM     15  C   UNL     1      38.087   3.373  15.474  0.00  0.00    +0.000 C 
ATOM     16  O   UNL     1      37.359   4.159  14.811  0.00  0.00    +0.000 OA
ATOM     17  N   UNL     1      38.694   3.854  16.638  0.00  0.00    +0.000 NA
BRANCH  17  18
ATOM     18  C   UNL     1      38.389   5.367  17.000  0.00  0.00    +0.000 C 
ATOM     19  C   UNL     1      39.853   5.888  16.389  0.00  0.00    +0.000 C 
BRANCH  18  20
ATOM     20  C   UNL     1      39.024   5.209  18.541  0.00  0.00    +0.000 C 
BRANCH  20  21
ATOM     21  C   UNL     1      39.049   6.601  19.101  0.00  0.00    +0.000 C 
BRANCH  21  22
ATOM     22  C   UNL     1      40.322   7.009  19.692  0.00  0.00    +0.000 A 
ATOM     23  C   UNL     1      40.593   8.363  19.823  0.00  0.00    +0.000 A 
ATOM     24  C   UNL     1      41.798   8.793  20.380  0.00  0.00    +0.000 A 
ATOM     25  C   UNL     1      42.732   7.900  20.807  0.00  0.00    +0.000 A 
ATOM     26  C   UNL     1      42.468   6.534  20.681  0.00  0.00    +0.000 A 
ATOM     27  C   UNL     1      41.267   6.125  20.125  0.00  0.00    +0.000 A 
ENDBRANCH  21  22
ENDBRANCH  20  21
ENDBRANCH  18  20
ENDBRANCH  17  18
ENDBRANCH   4  15
BRANCH   1  28
ATOM     28  C   UNL     1      39.695  -0.618  12.934  0.00  0.00    +0.000 C 
BRANCH  28  30
ATOM     29  C   UNL     1      41.841  -0.966  14.150  0.00  0.00    +0.000 C 
ATOM     30  C   UNL     1      40.510  -1.602  13.755  0.00  0.00    +0.000 C 
ATOM     31  C   UNL     1      40.878  -2.819  12.899  0.00  0.00    +0.000 C 
ENDBRANCH  28  30
ENDBRANCH   1  28
TORSDOF 7
ENDMDL
MODEL 6
REMARK VINA RESULT:      -7.8      2.124      4.066
REMARK  Name = 
REMARK  7 active torsions:
REMARK  status: ('A' for Active; 'I' for Inactive)
REMARK    1  A    between atoms: C_2  and  C_4
REMARK    2  A    between atoms: C_4  and  N_5
REMARK    3  A    between atoms: C_8  and  C_9
REMARK    4  A    between atoms: N_11  and  C_12
REMARK    5  A    between atoms: C_12  and  C_14
REMARK    6  A    between atoms: C_14  and  C_15
REMARK    7  A    between atoms: C_15  and  C_16
REMARK                            x       y       z     vdW  Elec       q    Type
REMARK                         _______ _______ _______ _____ _____    ______ ____
ROOT
ATOM      1  N   UNL     1      38.791  -1.075  13.211  0.00  0.00    +0.000 N 
ATOM      2  C   UNL     1      38.384   0.186  13.122  0.00  0.00    +0.000 A 
ATOM      3  N   UNL     1      38.353   0.999  11.947  0.00  0.00    +0.000 NA
ATOM      4  C   UNL     1      37.977   0.633  14.362  0.00  0.00    +0.000 A 
ATOM      5  C   UNL     1      38.146  -0.420  15.262  0.00  0.00    +0.000 A 
ATOM      6  N   UNL     1      37.915  -0.544  16.583  0.00  0.00    +0.000 NA
ATOM      7  C   UNL     1      38.175  -1.706  17.220  0.00  0.00    +0.000 A 
ATOM      8  C   UNL     1      37.954  -1.883  18.572  0.00  0.00    +0.000 A 
ATOM      9  C   UNL     1      38.217  -3.071  19.232  0.00  0.00    +0.000 A 
ATOM     10  C   UNL     1      38.723  -4.102  18.467  0.00  0.00    +0.000 A 
ATOM     11  C   UNL     1      38.943  -3.931  17.127  0.00  0.00    +0.000 A 
ATOM     12  C   UNL     1      38.681  -2.743  16.463  0.00  0.00    +0.000 A 
ATOM     13  N   UNL     1      38.908  -2.604  15.139  0.00  0.00    +0.000 NA
ATOM     14  C   UNL     1      38.652  -1.446  14.495  0.00  0.00    +0.000 A 
ENDROOT
BRANCH   4  15
ATOM     15  C   UNL     1      37.456   1.939  14.745  0.00  0.00    +0.000 C 
ATOM     16  O   UNL     1      36.250   2.161  14.462  0.00  0.00    +0.000 OA
ATOM     17  N   UNL     1      38.183   2.944  15.389  0.00  0.00    +0.000 NA
BRANCH  17  18
ATOM     18  C   UNL     1      37.387   4.280  15.699  0.00  0.00    +0.000 C 
ATOM     19  C   UNL     1      38.442   5.208  14.798  0.00  0.00    +0.000 C 
BRANCH  18  20
ATOM     20  C   UNL     1      38.250   4.561  17.105  0.00  0.00    +0.000 C 
BRANCH  20  21
ATOM     21  C   UNL     1      39.430   5.388  16.683  0.00  0.00    +0.000 C 
BRANCH  21  22
ATOM     22  C   UNL     1      40.248   5.906  17.779  0.00  0.00    +0.000 A 
ATOM     23  C   UNL     1      39.695   5.975  19.049  0.00  0.00    +0.000 A 
ATOM     24  C   UNL     1      40.441   6.466  20.121  0.00  0.00    +0.000 A 
ATOM     25  C   UNL     1      41.724   6.887  19.948  0.00  0.00    +0.000 A 
ATOM     26  C   UNL     1      42.290   6.821  18.673  0.00  0.00    +0.000 A 
ATOM     27  C   UNL     1      41.534   6.332  17.621  0.00  0.00    +0.000 A 
ENDBRANCH  21  22
ENDBRANCH  20  21
ENDBRANCH  18  20
ENDBRANCH  17  18
ENDBRANCH   4  15
BRANCH   1  28
ATOM     28  C   UNL     1      39.295  -1.872  12.087  0.00  0.00    +0.000 C 
BRANCH  28  30
ATOM     29  C   UNL     1      41.371  -1.511  10.760  0.00  0.00    +0.000 C 
ATOM     30  C   UNL     1      40.812  -1.899  12.127  0.00  0.00    +0.000 C 
ATOM     31  C   UNL     1      41.305  -3.328  12.376  0.00  0.00    +0.000 C 
ENDBRANCH  28  30
ENDBRANCH   1  28
TORSDOF 7
ENDMDL
MODEL 7
REMARK VINA RESULT:      -7.6      1.993      4.854
REMARK  Name = 
REMARK  7 active torsions:
REMARK  status: ('A' for Active; 'I' for Inactive)
REMARK    1  A    between atoms: C_2  and  C_4
REMARK    2  A    between atoms: C_4  and  N_5
REMARK    3  A    between atoms: C_8  and  C_9
REMARK    4  A    between atoms: N_11  and  C_12
REMARK    5  A    between atoms: C_12  and  C_14
REMARK    6  A    between atoms: C_14  and  C_15
REMARK    7  A    between atoms: C_15  and  C_16
REMARK                            x       y       z     vdW  Elec       q    Type
REMARK                         _______ _______ _______ _____ _____    ______ ____
ROOT
ATOM      1  N   UNL     1      38.815  -1.945  14.642  0.00  0.00    +0.000 N 
ATOM      2  C   UNL     1      38.688  -0.679  15.023  0.00  0.00    +0.000 A 
ATOM      3  N   UNL     1      39.702   0.327  15.017  0.00  0.00    +0.000 NA
ATOM      4  C   UNL     1      37.395  -0.448  15.444  0.00  0.00    +0.000 A 
ATOM      5  C   UNL     1      36.691  -1.646  15.311  0.00  0.00    +0.000 A 
ATOM      6  N   UNL     1      35.416  -1.993  15.569  0.00  0.00    +0.000 NA
ATOM      7  C   UNL     1      34.989  -3.255  15.342  0.00  0.00    +0.000 A 
ATOM      8  C   UNL     1      33.692  -3.661  15.590  0.00  0.00    +0.000 A 
ATOM      9  C   UNL     1      33.246  -4.950  15.359  0.00  0.00    +0.000 A 
ATOM     10  C   UNL     1      34.172  -5.843  14.859  0.00  0.00    +0.000 A 
ATOM     11  C   UNL     1      35.458  -5.444  14.612  0.00  0.00    +0.000 A 
ATOM     12  C   UNL     1      35.908  -4.154  14.842  0.00  0.00    +0.000 A 
ATOM     13  N   UNL     1      37.184  -3.790  14.589  0.00  0.00    +0.000 NA
ATOM     14  C   UNL     1      37.619  -2.533  14.813  0.00  0.00    +0.000 A 
ENDROOT
BRANCH   4  15
ATOM     15  C   UNL     1      36.796   0.782  15.945  0.00  0.00    +0.000 C 
ATOM     16  O   UNL     1      36.544   0.816  17.178  0.00  0.00    +0.000 OA
ATOM     17  N   UNL     1      36.485   1.905  15.173  0.00  0.00    +0.000 NA
BRANCH  17  18
ATOM     18  C   UNL     1      35.837   3.122  15.956  0.00  0.00    +0.000 C 
ATOM     19  C   UNL     1      35.256   3.815  14.553  0.00  0.00    +0.000 C 
BRANCH  18  20
ATOM     20  C   UNL     1      37.246   4.022  15.884  0.00  0.00    +0.000 C 
BRANCH  20  21
ATOM     21  C   UNL     1      37.742   4.090  17.299  0.00  0.00    +0.000 C 
BRANCH  21  22
ATOM     22  C   UNL     1      38.907   4.947  17.508  0.00  0.00    +0.000 A 
ATOM     23  C   UNL     1      39.667   5.320  16.408  0.00  0.00    +0.000 A 
ATOM     24  C   UNL     1      40.788   6.135  16.566  0.00  0.00    +0.000 A 
ATOM     25  C   UNL     1      41.162   6.584  17.795  0.00  0.00    +0.000 A 
ATOM     26  C   UNL     1      40.403   6.216  18.908  0.00  0.00    +0.000 A 
ATOM     27  C   UNL     1      39.294   5.405  18.733  0.00  0.00    +0.000 A 
ENDBRANCH  21  22
ENDBRANCH  20  21
ENDBRANCH  18  20
ENDBRANCH  17  18
ENDBRANCH   4  15
BRANCH   1  28
ATOM     28  C   UNL     1      40.055  -2.545  14.136  0.00  0.00    +0.000 C 
BRANCH  28  30
ATOM     29  C   UNL     1      41.223  -3.380  12.100  0.00  0.00    +0.000 C 
ATOM     30  C   UNL     1      39.913  -2.820  12.650  0.00  0.00    +0.000 C 
ATOM     31  C   UNL     1      39.684  -1.507  11.894  0.00  0.00    +0.000 C 
ENDBRANCH  28  30
ENDBRANCH   1  28
TORSDOF 7
ENDMDL
MODEL 8
REMARK VINA RESULT:      -7.5      1.727      7.678
REMARK  Name = 
REMARK  7 active torsions:
REMARK  status: ('A' for Active; 'I' for Inactive)
REMARK    1  A    between atoms: C_2  and  C_4
REMARK    2  A    between atoms: C_4  and  N_5
REMARK    3  A    between atoms: C_8  and  C_9
REMARK    4  A    between atoms: N_11  and  C_12
REMARK    5  A    between atoms: C_12  and  C_14
REMARK    6  A    between atoms: C_14  and  C_15
REMARK    7  A    between atoms: C_15  and  C_16
REMARK                            x       y       z     vdW  Elec       q    Type
REMARK                         _______ _______ _______ _____ _____    ______ ____
ROOT
ATOM      1  N   UNL     1      38.643   4.021  13.974  0.00  0.00    +0.000 N 
ATOM      2  C   UNL     1      37.642   3.172  14.176  0.00  0.00    +0.000 A 
ATOM      3  N   UNL     1      36.965   2.390  13.190  0.00  0.00    +0.000 NA
ATOM      4  C   UNL     1      37.325   3.137  15.518  0.00  0.00    +0.000 A 
ATOM      5  C   UNL     1      38.184   4.020  16.174  0.00  0.00    +0.000 A 
ATOM      6  N   UNL     1      38.320   4.378  17.465  0.00  0.00    +0.000 NA
ATOM      7  C   UNL     1      39.258   5.277  17.833  0.00  0.00    +0.000 A 
ATOM      8  C   UNL     1      39.438   5.677  19.143  0.00  0.00    +0.000 A 
ATOM      9  C   UNL     1      40.397   6.596  19.529  0.00  0.00    +0.000 A 
ATOM     10  C   UNL     1      41.192   7.115  18.526  0.00  0.00    +0.000 A 
ATOM     11  C   UNL     1      41.018   6.722  17.227  0.00  0.00    +0.000 A 
ATOM     12  C   UNL     1      40.058   5.801  16.837  0.00  0.00    +0.000 A 
ATOM     13  N   UNL     1      39.909   5.432  15.546  0.00  0.00    +0.000 NA
ATOM     14  C   UNL     1      38.974   4.535  15.170  0.00  0.00    +0.000 A 
ENDROOT
BRANCH   4  15
ATOM     15  C   UNL     1      36.302   2.357  16.202  0.00  0.00    +0.000 C 
ATOM     16  O   UNL     1      35.110   2.716  16.015  0.00  0.00    +0.000 OA
ATOM     17  N   UNL     1      36.542   1.261  17.036  0.00  0.00    +0.000 NA
BRANCH  17  18
ATOM     18  C   UNL     1      35.257   0.578  17.665  0.00  0.00    +0.000 C 
ATOM     19  C   UNL     1      36.041   0.247  19.101  0.00  0.00    +0.000 C 
BRANCH  18  20
ATOM     20  C   UNL     1      35.649  -0.923  17.037  0.00  0.00    +0.000 C 
BRANCH  20  21
ATOM     21  C   UNL     1      36.906  -1.330  17.749  0.00  0.00    +0.000 C 
BRANCH  21  22
ATOM     22  C   UNL     1      37.971  -1.838  16.885  0.00  0.00    +0.000 A 
ATOM     23  C   UNL     1      38.618  -3.011  17.244  0.00  0.00    +0.000 A 
ATOM     24  C   UNL     1      39.641  -3.528  16.448  0.00  0.00    +0.000 A 
ATOM     25  C   UNL     1      40.027  -2.898  15.306  0.00  0.00    +0.000 A 
ATOM     26  C   UNL     1      39.381  -1.716  14.935  0.00  0.00    +0.000 A 
ATOM     27  C   UNL     1      38.369  -1.217  15.737  0.00  0.00    +0.000 A 
ENDBRANCH  21  22
ENDBRANCH  20  21
ENDBRANCH  18  20
ENDBRANCH  17  18
ENDBRANCH   4  15
BRANCH   1  28
ATOM     28  C   UNL     1      39.242   4.312  12.666  0.00  0.00    +0.000 C 
BRANCH  28  30
ATOM     29  C   UNL     1      38.053   5.142  10.641  0.00  0.00    +0.000 C 
ATOM     30  C   UNL     1      38.537   5.504  12.043  0.00  0.00    +0.000 C 
ATOM     31  C   UNL     1      39.529   6.655  11.846  0.00  0.00    +0.000 C 
ENDBRANCH  28  30
ENDBRANCH   1  28
TORSDOF 7
ENDMDL
MODEL 9
REMARK VINA RESULT:      -7.5      4.107      6.892
REMARK  Name = 
REMARK  7 active torsions:
REMARK  status: ('A' for Active; 'I' for Inactive)
REMARK    1  A    between atoms: C_2  and  C_4
REMARK    2  A    between atoms: C_4  and  N_5
REMARK    3  A    between atoms: C_8  and  C_9
REMARK    4  A    between atoms: N_11  and  C_12
REMARK    5  A    between atoms: C_12  and  C_14
REMARK    6  A    between atoms: C_14  and  C_15
REMARK    7  A    between atoms: C_15  and  C_16
REMARK                            x       y       z     vdW  Elec       q    Type
REMARK                         _______ _______ _______ _____ _____    ______ ____
ROOT
ATOM      1  N   UNL     1      37.973  -2.143  16.784  0.00  0.00    +0.000 N 
ATOM      2  C   UNL     1      39.034  -2.408  16.030  0.00  0.00    +0.000 A 
ATOM      3  N   UNL     1      39.917  -3.526  16.150  0.00  0.00    +0.000 NA
ATOM      4  C   UNL     1      39.183  -1.426  15.074  0.00  0.00    +0.000 A 
ATOM      5  C   UNL     1      38.150  -0.505  15.256  0.00  0.00    +0.000 A 
ATOM      6  N   UNL     1      37.813   0.633  14.618  0.00  0.00    +0.000 NA
ATOM      7  C   UNL     1      36.736   1.347  15.012  0.00  0.00    +0.000 A 
ATOM      8  C   UNL     1      36.348   2.518  14.391  0.00  0.00    +0.000 A 
ATOM      9  C   UNL     1      35.246   3.255  14.787  0.00  0.00    +0.000 A 
ATOM     10  C   UNL     1      34.527   2.763  15.858  0.00  0.00    +0.000 A 
ATOM     11  C   UNL     1      34.908   1.602  16.476  0.00  0.00    +0.000 A 
ATOM     12  C   UNL     1      36.011   0.861  16.082  0.00  0.00    +0.000 A 
ATOM     13  N   UNL     1      36.363  -0.281  16.711  0.00  0.00    +0.000 NA
ATOM     14  C   UNL     1      37.437  -1.000  16.325  0.00  0.00    +0.000 A 
ENDROOT
BRANCH   4  15
ATOM     15  C   UNL     1      40.197  -1.298  14.035  0.00  0.00    +0.000 C 
ATOM     16  O   UNL     1      40.141  -2.136  13.097  0.00  0.00    +0.000 OA
ATOM     17  N   UNL     1      41.208  -0.334  14.004  0.00  0.00    +0.000 NA
BRANCH  17  18
ATOM     18  C   UNL     1      42.192  -0.406  12.762  0.00  0.00    +0.000 C 
ATOM     19  C   UNL     1      43.316   0.584  13.498  0.00  0.00    +0.000 C 
BRANCH  18  20
ATOM     20  C   UNL     1      41.458   0.894  12.005  0.00  0.00    +0.000 C 
BRANCH  20  21
ATOM     21  C   UNL     1      40.921   0.346  10.715  0.00  0.00    +0.000 C 
BRANCH  21  22
ATOM     22  C   UNL     1      39.538   0.711  10.414  0.00  0.00    +0.000 A 
ATOM     23  C   UNL     1      39.228   1.153   9.136  0.00  0.00    +0.000 A 
ATOM     24  C   UNL     1      37.921   1.514   8.809  0.00  0.00    +0.000 A 
ATOM     25  C   UNL     1      36.922   1.441   9.730  0.00  0.00    +0.000 A 
ATOM     26  C   UNL     1      37.224   0.997  11.020  0.00  0.00    +0.000 A 
ATOM     27  C   UNL     1      38.527   0.644  11.327  0.00  0.00    +0.000 A 
ENDBRANCH  21  22
ENDBRANCH  20  21
ENDBRANCH  18  20
ENDBRANCH  17  18
ENDBRANCH   4  15
BRANCH   1  28
ATOM     28  C   UNL     1      37.513  -2.975  17.902  0.00  0.00    +0.000 C 
BRANCH  28  30
ATOM     29  C   UNL     1      38.904  -3.811  19.791  0.00  0.00    +0.000 C 
ATOM     30  C   UNL     1      38.256  -2.579  19.165  0.00  0.00    +0.000 C 
ATOM     31  C   UNL     1      37.268  -2.062  20.215  0.00  0.00    +0.000 C 
ENDBRANCH  28  30
ENDBRANCH   1  28
TORSDOF 7
ENDMDL
MODEL 10
REMARK VINA RESULT:      -7.3      1.788      4.654
REMARK  Name = 
REMARK  7 active torsions:
REMARK  status: ('A' for Active; 'I' for Inactive)
REMARK    1  A    between atoms: C_2  and  C_4
REMARK    2  A    between atoms: C_4  and  N_5
REMARK    3  A    between atoms: C_8  and  C_9
REMARK    4  A    between atoms: N_11  and  C_12
REMARK    5  A    between atoms: C_12  and  C_14
REMARK    6  A    between atoms: C_14  and  C_15
REMARK    7  A    between atoms: C_15  and  C_16
REMARK                            x       y       z     vdW  Elec       q    Type
REMARK                         _______ _______ _______ _____ _____    ______ ____
ROOT
ATOM      1  N   UNL     1      38.901   0.585  13.654  0.00  0.00    +0.000 N 
ATOM      2  C   UNL     1      39.119   1.870  13.905  0.00  0.00    +0.000 A 
ATOM      3  N   UNL     1      40.099   2.712  13.293  0.00  0.00    +0.000 NA
ATOM      4  C   UNL     1      38.241   2.312  14.873  0.00  0.00    +0.000 A 
ATOM      5  C   UNL     1      37.439   1.229  15.235  0.00  0.00    +0.000 A 
ATOM      6  N   UNL     1      36.432   1.088  16.119  0.00  0.00    +0.000 NA
ATOM      7  C   UNL     1      35.814  -0.103  16.271  0.00  0.00    +0.000 A 
ATOM      8  C   UNL     1      34.777  -0.298  17.162  0.00  0.00    +0.000 A 
ATOM      9  C   UNL     1      34.137  -1.514  17.325  0.00  0.00    +0.000 A 
ATOM     10  C   UNL     1      34.588  -2.557  16.540  0.00  0.00    +0.000 A 
ATOM     11  C   UNL     1      35.615  -2.368  15.656  0.00  0.00    +0.000 A 
ATOM     12  C   UNL     1      36.257  -1.151  15.490  0.00  0.00    +0.000 A 
ATOM     13  N   UNL     1      37.269  -0.995  14.609  0.00  0.00    +0.000 NA
ATOM     14  C   UNL     1      37.892   0.192  14.450  0.00  0.00    +0.000 A 
ENDROOT
BRANCH   4  15
ATOM     15  C   UNL     1      38.110   3.638  15.460  0.00  0.00    +0.000 C 
ATOM     16  O   UNL     1      37.070   4.280  15.157  0.00  0.00    +0.000 OA
ATOM     17  N   UNL     1      39.035   4.241  16.317  0.00  0.00    +0.000 NA
BRANCH  17  18
ATOM     18  C   UNL     1      38.661   5.696  16.824  0.00  0.00    +0.000 C 
ATOM     19  C   UNL     1      39.593   6.428  15.648  0.00  0.00    +0.000 C 
BRANCH  18  20
ATOM     20  C   UNL     1      39.924   5.724  17.922  0.00  0.00    +0.000 C 
BRANCH  20  21
ATOM     21  C   UNL     1      39.286   6.022  19.247  0.00  0.00    +0.000 C 
BRANCH  21  22
ATOM     22  C   UNL     1      39.510   7.375  19.754  0.00  0.00    +0.000 A 
ATOM     23  C   UNL     1      40.771   7.937  19.619  0.00  0.00    +0.000 A 
ATOM     24  C   UNL     1      41.027   9.225  20.092  0.00  0.00    +0.000 A 
ATOM     25  C   UNL     1      40.050   9.958  20.693  0.00  0.00    +0.000 A 
ATOM     26  C   UNL     1      38.777   9.401  20.832  0.00  0.00    +0.000 A 
ATOM     27  C   UNL     1      38.542   8.122  20.358  0.00  0.00    +0.000 A 
ENDBRANCH  21  22
ENDBRANCH  20  21
ENDBRANCH  18  20
ENDBRANCH  17  18
ENDBRANCH   4  15
BRANCH   1  28
ATOM     28  C   UNL     1      39.650  -0.217  12.680  0.00  0.00    +0.000 C 
BRANCH  28  30
ATOM     29  C   UNL     1      42.088  -0.588  13.031  0.00  0.00    +0.000 C 
ATOM     30  C   UNL     1      40.685  -1.057  13.407  0.00  0.00    +0.000 C 
ATOM     31  C   UNL     1      40.603  -2.513  12.935  0.00  0.00    +0.000 C 
ENDBRANCH  28  30
ENDBRANCH   1  28
TORSDOF 7
ENDMDL
