MODEL 1
REMARK VINA RESULT:      -6.4      0.000      0.000
REMARK  Name = 
REMARK  2 active torsions:
REMARK  status: ('A' for Active; 'I' for Inactive)
REMARK    1  A    between atoms: O_2  and  C_3
REMARK    2  A    between atoms: C_9  and  C_10
REMARK                            x       y       z     vdW  Elec       q    Type
REMARK                         _______ _______ _______ _____ _____    ______ ____
ROOT
ATOM      1  C   UNL     1      24.734  25.682  25.816  0.00  0.00    +0.000 A 
ATOM      2  C   UNL     1      24.314  25.883  27.114  0.00  0.00    +0.000 A 
ATOM      3  C   UNL     1      24.944  25.294  28.186  0.00  0.00    +0.000 A 
ATOM      4  C   UNL     1      26.046  24.464  27.973  0.00  0.00    +0.000 A 
ATOM      5  C   UNL     1      26.479  24.253  26.679  0.00  0.00    +0.000 A 
ATOM      6  C   UNL     1      25.824  24.860  25.621  0.00  0.00    +0.000 A 
ATOM      7  C   UNL     1      27.607  23.424  26.230  0.00  0.00    +0.000 C 
ATOM      8  N   UNL     1      28.128  22.462  26.885  0.00  0.00    +0.000 NA
ATOM      9  N   UNL     1      27.794  21.945  28.150  0.00  0.00    +0.000 NA
ATOM     10  C   UNL     1      27.164  22.561  29.103  0.00  0.00    +0.000 C 
ATOM     11  C   UNL     1      26.959  21.730  30.339  0.00  0.00    +0.000 C 
ATOM     12  C   UNL     1      26.614  23.910  29.208  0.00  0.00    +0.000 C 
ENDROOT
BRANCH   7  13
ATOM     13  C   UNL     1      28.144  23.769  24.918  0.00  0.00    +0.000 A 
ATOM     14  C   UNL     1      29.144  24.700  24.750  0.00  0.00    +0.000 A 
ATOM     15  C   UNL     1      29.642  25.014  23.481  0.00  0.00    +0.000 A 
ATOM     16  C   UNL     1      29.149  24.403  22.371  0.00  0.00    +0.000 A 
ATOM     17  N   UNL     1      29.591  24.657  21.042  0.00  0.00    +0.000 NA
ATOM     18  C   UNL     1      28.137  23.458  22.517  0.00  0.00    +0.000 A 
ATOM     19  C   UNL     1      27.654  23.160  23.791  0.00  0.00    +0.000 A 
ENDBRANCH   7  13
BRANCH   1  21
ATOM     20  C   UNL     1      23.043  27.180  24.935  0.00  0.00    +0.000 C 
ATOM     21  O   UNL     1      24.090  26.281  24.739  0.00  0.00    +0.000 OA
ENDBRANCH   1  21
TORSDOF 2
ENDMDL
MODEL 2
REMARK VINA RESULT:      -6.3     18.414     20.894
REMARK  Name = 
REMARK  2 active torsions:
REMARK  status: ('A' for Active; 'I' for Inactive)
REMARK    1  A    between atoms: O_2  and  C_3
REMARK    2  A    between atoms: C_9  and  C_10
REMARK                            x       y       z     vdW  Elec       q    Type
REMARK                         _______ _______ _______ _____ _____    ______ ____
ROOT
ATOM      1  C   UNL     1      20.797  10.387  38.109  0.00  0.00    +0.000 A 
ATOM      2  C   UNL     1      21.207   9.730  39.250  0.00  0.00    +0.000 A 
ATOM      3  C   UNL     1      20.311   9.174  40.134  0.00  0.00    +0.000 A 
ATOM      4  C   UNL     1      18.941   9.268  39.885  0.00  0.00    +0.000 A 
ATOM      5  C   UNL     1      18.515   9.922  38.747  0.00  0.00    +0.000 A 
ATOM      6  C   UNL     1      19.441  10.471  37.875  0.00  0.00    +0.000 A 
ATOM      7  C   UNL     1      17.133  10.136  38.294  0.00  0.00    +0.000 C 
ATOM      8  N   UNL     1      16.097  10.115  39.036  0.00  0.00    +0.000 NA
ATOM      9  N   UNL     1      15.983   9.895  40.421  0.00  0.00    +0.000 NA
ATOM     10  C   UNL     1      16.829   9.275  41.185  0.00  0.00    +0.000 C 
ATOM     11  C   UNL     1      16.416   9.208  42.629  0.00  0.00    +0.000 C 
ATOM     12  C   UNL     1      18.110   8.628  40.913  0.00  0.00    +0.000 C 
ENDROOT
BRANCH   7  13
ATOM     13  C   UNL     1      16.984  10.391  36.864  0.00  0.00    +0.000 A 
ATOM     14  C   UNL     1      17.417   9.503  35.907  0.00  0.00    +0.000 A 
ATOM     15  C   UNL     1      17.263   9.770  34.542  0.00  0.00    +0.000 A 
ATOM     16  C   UNL     1      16.675  10.921  34.121  0.00  0.00    +0.000 A 
ATOM     17  N   UNL     1      16.475  11.278  32.759  0.00  0.00    +0.000 NA
ATOM     18  C   UNL     1      16.229  11.834  35.073  0.00  0.00    +0.000 A 
ATOM     19  C   UNL     1      16.393  11.549  36.429  0.00  0.00    +0.000 A 
ENDBRANCH   7  13
BRANCH   1  21
ATOM     20  C   UNL     1      22.540  10.143  36.440  0.00  0.00    +0.000 C 
ATOM     21  O   UNL     1      21.710  10.946  37.221  0.00  0.00    +0.000 OA
ENDBRANCH   1  21
TORSDOF 2
ENDMDL
MODEL 3
REMARK VINA RESULT:      -6.2      3.097      6.629
REMARK  Name = 
REMARK  2 active torsions:
REMARK  status: ('A' for Active; 'I' for Inactive)
REMARK    1  A    between atoms: O_2  and  C_3
REMARK    2  A    between atoms: C_9  and  C_10
REMARK                            x       y       z     vdW  Elec       q    Type
REMARK                         _______ _______ _______ _____ _____    ______ ____
ROOT
ATOM      1  C   UNL     1      30.271  22.328  26.874  0.00  0.00    +0.000 A 
ATOM      2  C   UNL     1      30.720  22.418  25.574  0.00  0.00    +0.000 A 
ATOM      3  C   UNL     1      29.917  22.875  24.553  0.00  0.00    +0.000 A 
ATOM      4  C   UNL     1      28.604  23.264  24.824  0.00  0.00    +0.000 A 
ATOM      5  C   UNL     1      28.140  23.180  26.121  0.00  0.00    +0.000 A 
ATOM      6  C   UNL     1      28.972  22.717  27.127  0.00  0.00    +0.000 A 
ATOM      7  C   UNL     1      26.805  23.533  26.625  0.00  0.00    +0.000 C 
ATOM      8  N   UNL     1      25.741  23.597  25.927  0.00  0.00    +0.000 NA
ATOM      9  N   UNL     1      25.547  23.362  24.553  0.00  0.00    +0.000 NA
ATOM     10  C   UNL     1      26.444  23.421  23.617  0.00  0.00    +0.000 C 
ATOM     11  C   UNL     1      25.916  23.114  22.243  0.00  0.00    +0.000 C 
ATOM     12  C   UNL     1      27.871  23.729  23.640  0.00  0.00    +0.000 C 
ENDROOT
BRANCH   7  13
ATOM     13  C   UNL     1      26.742  23.827  28.054  0.00  0.00    +0.000 A 
ATOM     14  C   UNL     1      26.530  22.851  29.000  0.00  0.00    +0.000 A 
ATOM     15  C   UNL     1      26.474  23.158  30.364  0.00  0.00    +0.000 A 
ATOM     16  C   UNL     1      26.630  24.438  30.795  0.00  0.00    +0.000 A 
ATOM     17  N   UNL     1      26.588  24.845  32.158  0.00  0.00    +0.000 NA
ATOM     18  C   UNL     1      26.845  25.442  29.855  0.00  0.00    +0.000 A 
ATOM     19  C   UNL     1      26.897  25.115  28.500  0.00  0.00    +0.000 A 
ENDBRANCH   7  13
BRANCH   1  21
ATOM     20  C   UNL     1      31.158  22.530  29.122  0.00  0.00    +0.000 C 
ATOM     21  O   UNL     1      31.089  21.865  27.898  0.00  0.00    +0.000 OA
ENDBRANCH   1  21
TORSDOF 2
ENDMDL
MODEL 4
REMARK VINA RESULT:      -6.2     32.313     34.408
REMARK  Name = 
REMARK  2 active torsions:
REMARK  status: ('A' for Active; 'I' for Inactive)
REMARK    1  A    between atoms: O_2  and  C_3
REMARK    2  A    between atoms: C_9  and  C_10
REMARK                            x       y       z     vdW  Elec       q    Type
REMARK                         _______ _______ _______ _____ _____    ______ ____
ROOT
ATOM      1  C   UNL     1      18.420  -9.771  29.237  0.00  0.00    +0.000 A 
ATOM      2  C   UNL     1      17.396 -10.666  29.461  0.00  0.00    +0.000 A 
ATOM      3  C   UNL     1      16.348 -10.814  28.581  0.00  0.00    +0.000 A 
ATOM      4  C   UNL     1      16.303 -10.041  27.419  0.00  0.00    +0.000 A 
ATOM      5  C   UNL     1      17.322  -9.140  27.181  0.00  0.00    +0.000 A 
ATOM      6  C   UNL     1      18.363  -9.016  28.085  0.00  0.00    +0.000 A 
ATOM      7  C   UNL     1      17.474  -8.234  26.032  0.00  0.00    +0.000 C 
ATOM      8  N   UNL     1      16.531  -7.834  25.274  0.00  0.00    +0.000 NA
ATOM      9  N   UNL     1      15.155  -8.124  25.313  0.00  0.00    +0.000 NA
ATOM     10  C   UNL     1      14.590  -9.156  25.860  0.00  0.00    +0.000 C 
ATOM     11  C   UNL     1      13.092  -9.175  25.732  0.00  0.00    +0.000 C 
ATOM     12  C   UNL     1      15.130 -10.308  26.578  0.00  0.00    +0.000 C 
ENDROOT
BRANCH   7  13
ATOM     13  C   UNL     1      18.838  -7.782  25.779  0.00  0.00    +0.000 A 
ATOM     14  C   UNL     1      19.229  -6.475  25.958  0.00  0.00    +0.000 A 
ATOM     15  C   UNL     1      20.543  -6.066  25.708  0.00  0.00    +0.000 A 
ATOM     16  C   UNL     1      21.477  -6.955  25.279  0.00  0.00    +0.000 A 
ATOM     17  N   UNL     1      22.835  -6.633  25.000  0.00  0.00    +0.000 NA
ATOM     18  C   UNL     1      21.105  -8.283  25.091  0.00  0.00    +0.000 A 
ATOM     19  C   UNL     1      19.789  -8.670  25.345  0.00  0.00    +0.000 A 
ENDBRANCH   7  13
BRANCH   1  21
ATOM     20  C   UNL     1      19.292  -9.836  31.499  0.00  0.00    +0.000 C 
ATOM     21  O   UNL     1      19.474  -9.630  30.132  0.00  0.00    +0.000 OA
ENDBRANCH   1  21
TORSDOF 2
ENDMDL
MODEL 5
REMARK VINA RESULT:      -6.1      2.924      3.779
REMARK  Name = 
REMARK  2 active torsions:
REMARK  status: ('A' for Active; 'I' for Inactive)
REMARK    1  A    between atoms: O_2  and  C_3
REMARK    2  A    between atoms: C_9  and  C_10
REMARK                            x       y       z     vdW  Elec       q    Type
REMARK                         _______ _______ _______ _____ _____    ______ ____
ROOT
ATOM      1  C   UNL     1      27.082  23.487  28.642  0.00  0.00    +0.000 A 
ATOM      2  C   UNL     1      27.125  23.569  30.018  0.00  0.00    +0.000 A 
ATOM      3  C   UNL     1      28.289  23.377  30.726  0.00  0.00    +0.000 A 
ATOM      4  C   UNL     1      29.475  23.089  30.047  0.00  0.00    +0.000 A 
ATOM      5  C   UNL     1      29.448  23.004  28.670  0.00  0.00    +0.000 A 
ATOM      6  C   UNL     1      28.261  23.203  27.985  0.00  0.00    +0.000 A 
ATOM      7  C   UNL     1      30.569  22.714  27.763  0.00  0.00    +0.000 C 
ATOM      8  N   UNL     1      31.645  22.112  28.083  0.00  0.00    +0.000 NA
ATOM      9  N   UNL     1      32.050  21.581  29.322  0.00  0.00    +0.000 NA
ATOM     10  C   UNL     1      31.618  21.925  30.496  0.00  0.00    +0.000 C 
ATOM     11  C   UNL     1      32.251  21.165  31.629  0.00  0.00    +0.000 C 
ATOM     12  C   UNL     1      30.633  22.911  30.933  0.00  0.00    +0.000 C 
ENDROOT
BRANCH   7  13
ATOM     13  C   UNL     1      30.387  23.174  26.390  0.00  0.00    +0.000 A 
ATOM     14  C   UNL     1      30.646  24.469  26.004  0.00  0.00    +0.000 A 
ATOM     15  C   UNL     1      30.464  24.886  24.681  0.00  0.00    +0.000 A 
ATOM     16  C   UNL     1      30.024  24.017  23.733  0.00  0.00    +0.000 A 
ATOM     17  N   UNL     1      29.810  24.348  22.366  0.00  0.00    +0.000 NA
ATOM     18  C   UNL     1      29.756  22.701  24.101  0.00  0.00    +0.000 A 
ATOM     19  C   UNL     1      29.944  22.306  25.425  0.00  0.00    +0.000 A 
ENDBRANCH   7  13
BRANCH   1  21
ATOM     20  C   UNL     1      25.910  23.879  26.556  0.00  0.00    +0.000 C 
ATOM     21  O   UNL     1      25.901  23.684  27.936  0.00  0.00    +0.000 OA
ENDBRANCH   1  21
TORSDOF 2
ENDMDL
MODEL 6
REMARK VINA RESULT:      -6.0      2.556      3.607
REMARK  Name = 
REMARK  2 active torsions:
REMARK  status: ('A' for Active; 'I' for Inactive)
REMARK    1  A    between atoms: O_2  and  C_3
REMARK    2  A    between atoms: C_9  and  C_10
REMARK                            x       y       z     vdW  Elec       q    Type
REMARK                         _______ _______ _______ _____ _____    ______ ____
ROOT
ATOM      1  C   UNL     1      27.493  23.184  23.926  0.00  0.00    +0.000 A 
ATOM      2  C   UNL     1      26.186  23.239  24.362  0.00  0.00    +0.000 A 
ATOM      3  C   UNL     1      25.864  23.331  25.696  0.00  0.00    +0.000 A 
ATOM      4  C   UNL     1      26.878  23.372  26.655  0.00  0.00    +0.000 A 
ATOM      5  C   UNL     1      28.192  23.318  26.235  0.00  0.00    +0.000 A 
ATOM      6  C   UNL     1      28.485  23.226  24.884  0.00  0.00    +0.000 A 
ATOM      7  C   UNL     1      29.405  23.346  27.064  0.00  0.00    +0.000 C 
ATOM      8  N   UNL     1      29.468  23.030  28.297  0.00  0.00    +0.000 NA
ATOM      9  N   UNL     1      28.456  22.588  29.169  0.00  0.00    +0.000 NA
ATOM     10  C   UNL     1      27.179  22.780  29.044  0.00  0.00    +0.000 C 
ATOM     11  C   UNL     1      26.357  22.177  30.149  0.00  0.00    +0.000 C 
ATOM     12  C   UNL     1      26.383  23.471  28.033  0.00  0.00    +0.000 C 
ENDROOT
BRANCH   7  13
ATOM     13  C   UNL     1      30.616  23.779  26.374  0.00  0.00    +0.000 A 
ATOM     14  C   UNL     1      31.223  24.987  26.635  0.00  0.00    +0.000 A 
ATOM     15  C   UNL     1      32.383  25.380  25.959  0.00  0.00    +0.000 A 
ATOM     16  C   UNL     1      32.948  24.574  25.021  0.00  0.00    +0.000 A 
ATOM     17  N   UNL     1      34.124  24.888  24.284  0.00  0.00    +0.000 NA
ATOM     18  C   UNL     1      32.350  23.348  24.740  0.00  0.00    +0.000 A 
ATOM     19  C   UNL     1      31.193  22.975  25.425  0.00  0.00    +0.000 A 
ENDBRANCH   7  13
BRANCH   1  21
ATOM     20  C   UNL     1      28.437  24.143  21.908  0.00  0.00    +0.000 C 
ATOM     21  O   UNL     1      27.810  23.092  22.576  0.00  0.00    +0.000 OA
ENDBRANCH   1  21
TORSDOF 2
ENDMDL
MODEL 7
REMARK VINA RESULT:      -6.0     31.333     33.234
REMARK  Name = 
REMARK  2 active torsions:
REMARK  status: ('A' for Active; 'I' for Inactive)
REMARK    1  A    between atoms: O_2  and  C_3
REMARK    2  A    between atoms: C_9  and  C_10
REMARK                            x       y       z     vdW  Elec       q    Type
REMARK                         _______ _______ _______ _____ _____    ______ ____
ROOT
ATOM      1  C   UNL     1      22.064 -10.356  26.871  0.00  0.00    +0.000 A 
ATOM      2  C   UNL     1      20.870 -10.328  27.559  0.00  0.00    +0.000 A 
ATOM      3  C   UNL     1      19.930  -9.344  27.352  0.00  0.00    +0.000 A 
ATOM      4  C   UNL     1      20.175  -8.334  26.420  0.00  0.00    +0.000 A 
ATOM      5  C   UNL     1      21.366  -8.349  25.722  0.00  0.00    +0.000 A 
ATOM      6  C   UNL     1      22.293  -9.353  25.953  0.00  0.00    +0.000 A 
ATOM      7  C   UNL     1      21.827  -7.393  24.705  0.00  0.00    +0.000 C 
ATOM      8  N   UNL     1      21.412  -6.196  24.570  0.00  0.00    +0.000 NA
ATOM      9  N   UNL     1      20.450  -5.484  25.311  0.00  0.00    +0.000 NA
ATOM     10  C   UNL     1      19.491  -5.984  26.028  0.00  0.00    +0.000 C 
ATOM     11  C   UNL     1      18.629  -4.953  26.701  0.00  0.00    +0.000 C 
ATOM     12  C   UNL     1      19.084  -7.358  26.307  0.00  0.00    +0.000 C 
ENDROOT
BRANCH   7  13
ATOM     13  C   UNL     1      22.847  -7.904  23.794  0.00  0.00    +0.000 A 
ATOM     14  C   UNL     1      22.563  -8.819  22.806  0.00  0.00    +0.000 A 
ATOM     15  C   UNL     1      23.558  -9.294  21.944  0.00  0.00    +0.000 A 
ATOM     16  C   UNL     1      24.842  -8.860  22.060  0.00  0.00    +0.000 A 
ATOM     17  N   UNL     1      25.918  -9.285  21.232  0.00  0.00    +0.000 NA
ATOM     18  C   UNL     1      25.151  -7.934  23.053  0.00  0.00    +0.000 A 
ATOM     19  C   UNL     1      24.144  -7.474  23.901  0.00  0.00    +0.000 A 
ENDBRANCH   7  13
BRANCH   1  21
ATOM     20  C   UNL     1      24.293 -11.258  26.556  0.00  0.00    +0.000 C 
ATOM     21  O   UNL     1      23.008 -11.354  27.087  0.00  0.00    +0.000 OA
ENDBRANCH   1  21
TORSDOF 2
ENDMDL
MODEL 8
REMARK VINA RESULT:      -6.0     13.972     17.795
REMARK  Name = 
REMARK  2 active torsions:
REMARK  status: ('A' for Active; 'I' for Inactive)
REMARK    1  A    between atoms: O_2  and  C_3
REMARK    2  A    between atoms: C_9  and  C_10
REMARK                            x       y       z     vdW  Elec       q    Type
REMARK                         _______ _______ _______ _____ _____    ______ ____
ROOT
ATOM      1  C   UNL     1      34.208  20.453  10.434  0.00  0.00    +0.000 A 
ATOM      2  C   UNL     1      34.171  20.313  11.805  0.00  0.00    +0.000 A 
ATOM      3  C   UNL     1      33.058  20.643  12.544  0.00  0.00    +0.000 A 
ATOM      4  C   UNL     1      31.921  21.137  11.903  0.00  0.00    +0.000 A 
ATOM      5  C   UNL     1      31.942  21.283  10.531  0.00  0.00    +0.000 A 
ATOM      6  C   UNL     1      33.077  20.942   9.814  0.00  0.00    +0.000 A 
ATOM      7  C   UNL     1      30.866  21.780   9.660  0.00  0.00    +0.000 C 
ATOM      8  N   UNL     1      29.896  22.520  10.029  0.00  0.00    +0.000 NA
ATOM      9  N   UNL     1      29.592  23.045  11.298  0.00  0.00    +0.000 NA
ATOM     10  C   UNL     1      29.983  22.585  12.447  0.00  0.00    +0.000 C 
ATOM     11  C   UNL     1      29.485  23.375  13.625  0.00  0.00    +0.000 C 
ATOM     12  C   UNL     1      30.814  21.443  12.818  0.00  0.00    +0.000 C 
ENDROOT
BRANCH   7  13
ATOM     13  C   UNL     1      30.960  21.365   8.264  0.00  0.00    +0.000 A 
ATOM     14  C   UNL     1      31.559  22.144   7.300  0.00  0.00    +0.000 A 
ATOM     15  C   UNL     1      31.636  21.723   5.968  0.00  0.00    +0.000 A 
ATOM     16  C   UNL     1      31.119  20.525   5.587  0.00  0.00    +0.000 A 
ATOM     17  N   UNL     1      31.150  20.015   4.259  0.00  0.00    +0.000 NA
ATOM     18  C   UNL     1      30.508  19.721   6.545  0.00  0.00    +0.000 A 
ATOM     19  C   UNL     1      30.442  20.159   7.868  0.00  0.00    +0.000 A 
ENDBRANCH   7  13
BRANCH   1  21
ATOM     20  C   UNL     1      35.235  19.382   8.516  0.00  0.00    +0.000 C 
ATOM     21  O   UNL     1      35.338  20.117   9.696  0.00  0.00    +0.000 OA
ENDBRANCH   1  21
TORSDOF 2
ENDMDL
MODEL 9
REMARK VINA RESULT:      -6.0      3.527      5.941
REMARK  Name = 
REMARK  2 active torsions:
REMARK  status: ('A' for Active; 'I' for Inactive)
REMARK    1  A    between atoms: O_2  and  C_3
REMARK    2  A    between atoms: C_9  and  C_10
REMARK                            x       y       z     vdW  Elec       q    Type
REMARK                         _______ _______ _______ _____ _____    ______ ____
ROOT
ATOM      1  C   UNL     1      27.521  23.611  28.033  0.00  0.00    +0.000 A 
ATOM      2  C   UNL     1      26.497  23.445  27.125  0.00  0.00    +0.000 A 
ATOM      3  C   UNL     1      26.734  23.251  25.784  0.00  0.00    +0.000 A 
ATOM      4  C   UNL     1      28.046  23.217  25.308  0.00  0.00    +0.000 A 
ATOM      5  C   UNL     1      29.082  23.382  26.205  0.00  0.00    +0.000 A 
ATOM      6  C   UNL     1      28.811  23.575  27.550  0.00  0.00    +0.000 A 
ATOM      7  C   UNL     1      30.526  23.382  25.925  0.00  0.00    +0.000 C 
ATOM      8  N   UNL     1      31.062  23.626  24.795  0.00  0.00    +0.000 NA
ATOM      9  N   UNL     1      30.464  23.946  23.562  0.00  0.00    +0.000 NA
ATOM     10  C   UNL     1      29.250  23.680  23.190  0.00  0.00    +0.000 C 
ATOM     11  C   UNL     1      28.914  24.159  21.806  0.00  0.00    +0.000 C 
ATOM     12  C   UNL     1      28.143  23.002  23.859  0.00  0.00    +0.000 C 
ENDROOT
BRANCH   7  13
ATOM     13  C   UNL     1      31.377  23.071  27.069  0.00  0.00    +0.000 A 
ATOM     14  C   UNL     1      31.237  21.914  27.801  0.00  0.00    +0.000 A 
ATOM     15  C   UNL     1      32.066  21.639  28.894  0.00  0.00    +0.000 A 
ATOM     16  C   UNL     1      33.040  22.511  29.265  0.00  0.00    +0.000 A 
ATOM     17  N   UNL     1      33.929  22.318  30.359  0.00  0.00    +0.000 NA
ATOM     18  C   UNL     1      33.200  23.688  28.538  0.00  0.00    +0.000 A 
ATOM     19  C   UNL     1      32.363  23.944  27.452  0.00  0.00    +0.000 A 
ENDBRANCH   7  13
BRANCH   1  21
ATOM     20  C   UNL     1      26.618  22.838  30.147  0.00  0.00    +0.000 C 
ATOM     21  O   UNL     1      27.271  23.807  29.387  0.00  0.00    +0.000 OA
ENDBRANCH   1  21
TORSDOF 2
ENDMDL
MODEL 10
REMARK VINA RESULT:      -5.9     21.256     24.516
REMARK  Name = 
REMARK  2 active torsions:
REMARK  status: ('A' for Active; 'I' for Inactive)
REMARK    1  A    between atoms: O_2  and  C_3
REMARK    2  A    between atoms: C_9  and  C_10
REMARK                            x       y       z     vdW  Elec       q    Type
REMARK                         _______ _______ _______ _____ _____    ______ ____
ROOT
ATOM      1  C   UNL     1      33.936   3.383  39.093  0.00  0.00    +0.000 A 
ATOM      2  C   UNL     1      33.918   2.020  39.300  0.00  0.00    +0.000 A 
ATOM      3  C   UNL     1      33.992   1.122  38.260  0.00  0.00    +0.000 A 
ATOM      4  C   UNL     1      34.088   1.586  36.947  0.00  0.00    +0.000 A 
ATOM      5  C   UNL     1      34.106   2.948  36.723  0.00  0.00    +0.000 A 
ATOM      6  C   UNL     1      34.031   3.827  37.791  0.00  0.00    +0.000 A 
ATOM      7  C   UNL     1      34.200   3.648  35.434  0.00  0.00    +0.000 C 
ATOM      8  N   UNL     1      33.887   3.159  34.300  0.00  0.00    +0.000 NA
ATOM      9  N   UNL     1      33.391   1.884  33.971  0.00  0.00    +0.000 NA
ATOM     10  C   UNL     1      33.513   0.796  34.668  0.00  0.00    +0.000 C 
ATOM     11  C   UNL     1      32.866  -0.408  34.042  0.00  0.00    +0.000 C 
ATOM     12  C   UNL     1      34.160   0.514  35.946  0.00  0.00    +0.000 C 
ENDROOT
BRANCH   7  13
ATOM     13  C   UNL     1      34.700   5.018  35.510  0.00  0.00    +0.000 A 
ATOM     14  C   UNL     1      36.043   5.315  35.518  0.00  0.00    +0.000 A 
ATOM     15  C   UNL     1      36.498   6.636  35.591  0.00  0.00    +0.000 A 
ATOM     16  C   UNL     1      35.618   7.670  35.656  0.00  0.00    +0.000 A 
ATOM     17  N   UNL     1      35.984   9.043  35.733  0.00  0.00    +0.000 NA
ATOM     18  C   UNL     1      34.253   7.393  35.650  0.00  0.00    +0.000 A 
ATOM     19  C   UNL     1      33.821   6.069  35.576  0.00  0.00    +0.000 A 
ENDBRANCH   7  13
BRANCH   1  21
ATOM     20  C   UNL     1      32.644   4.843  40.535  0.00  0.00    +0.000 C 
ATOM     21  O   UNL     1      33.861   4.283  40.150  0.00  0.00    +0.000 OA
ENDBRANCH   1  21
TORSDOF 2
ENDMDL
