MODEL 1
REMARK VINA RESULT:      -7.8      0.000      0.000
REMARK  Name = 
REMARK  9 active torsions:
REMARK  status: ('A' for Active; 'I' for Inactive)
REMARK    1  A    between atoms: O_2  and  C_3
REMARK    2  A    between atoms: C_6  and  C_7
REMARK    3  A    between atoms: N_9  and  C_10
REMARK    4  A    between atoms: C_10  and  C_11
REMARK    5  A    between atoms: C_10  and  C_28
REMARK    6  A    between atoms: N_13  and  C_14
REMARK    7  A    between atoms: C_17  and  O_18
REMARK    8  A    between atoms: O_18  and  C_19
REMARK    9  A    between atoms: C_19  and  C_20
REMARK                            x       y       z     vdW  Elec       q    Type
REMARK                         _______ _______ _______ _____ _____    ______ ____
ROOT
ATOM      1  C   UNL     1      38.059   4.587  17.003  0.00  0.00    +0.000 C 
ATOM      2  O   UNL     1      38.308   3.801  17.925  0.00  0.00    +0.000 OA
ATOM      3  N   UNL     1      38.705   5.830  16.906  0.00  0.00    +0.000 NA
ENDROOT
BRANCH   3   4
ATOM      4  C   UNL     1      39.666   6.172  17.903  0.00  0.00    +0.000 A 
ATOM      5  C   UNL     1      39.354   6.463  19.211  0.00  0.00    +0.000 A 
ATOM      6  C   UNL     1      40.287   6.792  20.172  0.00  0.00    +0.000 A 
ATOM      7  C   UNL     1      41.611   6.829  19.789  0.00  0.00    +0.000 A 
ATOM      8  C   UNL     1      41.984   6.546  18.491  0.00  0.00    +0.000 A 
ATOM      9  C   UNL     1      40.999   6.218  17.553  0.00  0.00    +0.000 A 
BRANCH   7  10
ATOM     10  O   UNL     1      42.570   7.153  20.718  0.00  0.00    +0.000 OA
BRANCH  10  11
ATOM     11  C   UNL     1      43.102   6.307  21.700  0.00  0.00    +0.000 C 
BRANCH  11  12
ATOM     12  C   UNL     1      44.386   5.693  21.371  0.00  0.00    +0.000 A 
ATOM     13  C   UNL     1      44.815   4.568  22.031  0.00  0.00    +0.000 A 
ATOM     14  C   UNL     1      46.031   3.985  21.717  0.00  0.00    +0.000 A 
ATOM     15  C   UNL     1      46.790   4.554  20.739  0.00  0.00    +0.000 A 
ATOM     16  C   UNL     1      46.396   5.691  20.046  0.00  0.00    +0.000 A 
ATOM     17  C   UNL     1      45.184   6.222  20.401  0.00  0.00    +0.000 A 
ENDBRANCH  11  12
ENDBRANCH  10  11
ENDBRANCH   7  10
ENDBRANCH   3   4
BRANCH   1  18
ATOM     18  C   UNL     1      36.986   4.191  15.902  0.00  0.00    +0.000 C 
BRANCH  18  21
ATOM     19  C   UNL     1      35.896   1.924  16.184  0.00  0.00    +0.000 C 
ATOM     20  O   UNL     1      34.840   2.615  16.136  0.00  0.00    +0.000 OA
ATOM     21  N   UNL     1      37.092   2.650  16.071  0.00  0.00    +0.000 NA
BRANCH  19  25
ATOM     22  C   UNL     1      35.629  -2.331  16.598  0.00  0.00    +0.000 A 
ATOM     23  C   UNL     1      34.742  -1.499  17.240  0.00  0.00    +0.000 A 
ATOM     24  C   UNL     1      34.816  -0.119  17.116  0.00  0.00    +0.000 A 
ATOM     25  C   UNL     1      35.778   0.493  16.346  0.00  0.00    +0.000 A 
ATOM     26  C   UNL     1      36.660  -0.357  15.709  0.00  0.00    +0.000 A 
ATOM     27  C   UNL     1      36.594  -1.727  15.826  0.00  0.00    +0.000 A 
BRANCH  22  29
ATOM     28  C   UNL     1      36.257  -4.608  15.911  0.00  0.00    +0.000 C 
ATOM     29  O   UNL     1      35.553  -3.726  16.725  0.00  0.00    +0.000 OA
ENDBRANCH  22  29
ENDBRANCH  19  25
ENDBRANCH  18  21
BRANCH  18  30
ATOM     30  C   UNL     1      37.926   4.270  14.567  0.00  0.00    +0.000 C 
ATOM     31  C   UNL     1      36.894   4.054  13.481  0.00  0.00    +0.000 C 
ATOM     32  C   UNL     1      38.780   3.030  14.568  0.00  0.00    +0.000 C 
ENDBRANCH  18  30
ENDBRANCH   1  18
TORSDOF 9
ENDMDL
MODEL 2
REMARK VINA RESULT:      -7.5      1.520      2.057
REMARK  Name = 
REMARK  9 active torsions:
REMARK  status: ('A' for Active; 'I' for Inactive)
REMARK    1  A    between atoms: O_2  and  C_3
REMARK    2  A    between atoms: C_6  and  C_7
REMARK    3  A    between atoms: N_9  and  C_10
REMARK    4  A    between atoms: C_10  and  C_11
REMARK    5  A    between atoms: C_10  and  C_28
REMARK    6  A    between atoms: N_13  and  C_14
REMARK    7  A    between atoms: C_17  and  O_18
REMARK    8  A    between atoms: O_18  and  C_19
REMARK    9  A    between atoms: C_19  and  C_20
REMARK                            x       y       z     vdW  Elec       q    Type
REMARK                         _______ _______ _______ _____ _____    ______ ____
ROOT
ATOM      1  C   UNL     1      37.759   4.316  16.268  0.00  0.00    +0.000 C 
ATOM      2  O   UNL     1      38.579   3.413  16.470  0.00  0.00    +0.000 OA
ATOM      3  N   UNL     1      37.977   5.621  16.735  0.00  0.00    +0.000 NA
ENDROOT
BRANCH   3   4
ATOM      4  C   UNL     1      39.179   5.889  17.453  0.00  0.00    +0.000 A 
ATOM      5  C   UNL     1      40.393   6.150  16.861  0.00  0.00    +0.000 A 
ATOM      6  C   UNL     1      41.555   6.409  17.560  0.00  0.00    +0.000 A 
ATOM      7  C   UNL     1      41.483   6.405  18.937  0.00  0.00    +0.000 A 
ATOM      8  C   UNL     1      40.293   6.151  19.587  0.00  0.00    +0.000 A 
ATOM      9  C   UNL     1      39.144   5.893  18.832  0.00  0.00    +0.000 A 
BRANCH   7  10
ATOM     10  O   UNL     1      42.618   6.659  19.669  0.00  0.00    +0.000 OA
BRANCH  10  11
ATOM     11  C   UNL     1      42.995   6.037  20.867  0.00  0.00    +0.000 C 
BRANCH  11  12
ATOM     12  C   UNL     1      43.510   6.930  21.901  0.00  0.00    +0.000 A 
ATOM     13  C   UNL     1      43.939   6.432  23.108  0.00  0.00    +0.000 A 
ATOM     14  C   UNL     1      44.430   7.279  24.087  0.00  0.00    +0.000 A 
ATOM     15  C   UNL     1      44.478   8.616  23.825  0.00  0.00    +0.000 A 
ATOM     16  C   UNL     1      44.055   9.163  22.620  0.00  0.00    +0.000 A 
ATOM     17  C   UNL     1      43.580   8.275  21.691  0.00  0.00    +0.000 A 
ENDBRANCH  11  12
ENDBRANCH  10  11
ENDBRANCH   7  10
ENDBRANCH   3   4
BRANCH   1  18
ATOM     18  C   UNL     1      36.425   4.000  15.466  0.00  0.00    +0.000 C 
BRANCH  18  21
ATOM     19  C   UNL     1      35.528   1.694  16.000  0.00  0.00    +0.000 C 
ATOM     20  O   UNL     1      34.563   2.363  16.467  0.00  0.00    +0.000 OA
ATOM     21  N   UNL     1      36.571   2.453  15.446  0.00  0.00    +0.000 NA
BRANCH  19  25
ATOM     22  C   UNL     1      35.418  -2.585  16.149  0.00  0.00    +0.000 A 
ATOM     23  C   UNL     1      34.708  -1.826  17.050  0.00  0.00    +0.000 A 
ATOM     24  C   UNL     1      34.734  -0.439  17.015  0.00  0.00    +0.000 A 
ATOM     25  C   UNL     1      35.469   0.253  16.079  0.00  0.00    +0.000 A 
ATOM     26  C   UNL     1      36.174  -0.525  15.183  0.00  0.00    +0.000 A 
ATOM     27  C   UNL     1      36.155  -1.901  15.211  0.00  0.00    +0.000 A 
BRANCH  22  29
ATOM     28  C   UNL     1      36.525  -4.770  16.380  0.00  0.00    +0.000 C 
ATOM     29  O   UNL     1      35.391  -3.988  16.187  0.00  0.00    +0.000 OA
ENDBRANCH  22  29
ENDBRANCH  19  25
ENDBRANCH  18  21
BRANCH  18  30
ATOM     30  C   UNL     1      36.965   4.230  13.940  0.00  0.00    +0.000 C 
ATOM     31  C   UNL     1      35.785   4.954  13.329  0.00  0.00    +0.000 C 
ATOM     32  C   UNL     1      36.994   2.875  13.285  0.00  0.00    +0.000 C 
ENDBRANCH  18  30
ENDBRANCH   1  18
TORSDOF 9
ENDMDL
MODEL 3
REMARK VINA RESULT:      -7.5      2.320      3.163
REMARK  Name = 
REMARK  9 active torsions:
REMARK  status: ('A' for Active; 'I' for Inactive)
REMARK    1  A    between atoms: O_2  and  C_3
REMARK    2  A    between atoms: C_6  and  C_7
REMARK    3  A    between atoms: N_9  and  C_10
REMARK    4  A    between atoms: C_10  and  C_11
REMARK    5  A    between atoms: C_10  and  C_28
REMARK    6  A    between atoms: N_13  and  C_14
REMARK    7  A    between atoms: C_17  and  O_18
REMARK    8  A    between atoms: O_18  and  C_19
REMARK    9  A    between atoms: C_19  and  C_20
REMARK                            x       y       z     vdW  Elec       q    Type
REMARK                         _______ _______ _______ _____ _____    ______ ____
ROOT
ATOM      1  C   UNL     1      37.142   3.230  15.404  0.00  0.00    +0.000 C 
ATOM      2  O   UNL     1      36.610   4.299  15.085  0.00  0.00    +0.000 OA
ATOM      3  N   UNL     1      38.273   3.194  16.235  0.00  0.00    +0.000 NA
ENDROOT
BRANCH   3   4
ATOM      4  C   UNL     1      38.800   4.430  16.711  0.00  0.00    +0.000 A 
ATOM      5  C   UNL     1      39.613   5.260  15.974  0.00  0.00    +0.000 A 
ATOM      6  C   UNL     1      40.121   6.457  16.438  0.00  0.00    +0.000 A 
ATOM      7  C   UNL     1      39.788   6.835  17.721  0.00  0.00    +0.000 A 
ATOM      8  C   UNL     1      38.977   6.044  18.508  0.00  0.00    +0.000 A 
ATOM      9  C   UNL     1      38.487   4.840  17.991  0.00  0.00    +0.000 A 
BRANCH   7  10
ATOM     10  O   UNL     1      40.274   8.019  18.219  0.00  0.00    +0.000 OA
BRANCH  10  11
ATOM     11  C   UNL     1      40.680   8.266  19.537  0.00  0.00    +0.000 C 
BRANCH  11  12
ATOM     12  C   UNL     1      41.933   7.630  19.937  0.00  0.00    +0.000 A 
ATOM     13  C   UNL     1      41.928   6.484  20.695  0.00  0.00    +0.000 A 
ATOM     14  C   UNL     1      43.116   5.881  21.072  0.00  0.00    +0.000 A 
ATOM     15  C   UNL     1      44.288   6.450  20.672  0.00  0.00    +0.000 A 
ATOM     16  C   UNL     1      44.341   7.607  19.905  0.00  0.00    +0.000 A 
ATOM     17  C   UNL     1      43.133   8.158  19.565  0.00  0.00    +0.000 A 
ENDBRANCH  11  12
ENDBRANCH  10  11
ENDBRANCH   7  10
ENDBRANCH   3   4
BRANCH   1  18
ATOM     18  C   UNL     1      36.542   1.863  14.865  0.00  0.00    +0.000 C 
BRANCH  18  21
ATOM     19  C   UNL     1      36.627  -0.030  16.544  0.00  0.00    +0.000 C 
ATOM     20  O   UNL     1      35.375  -0.009  16.377  0.00  0.00    +0.000 OA
ATOM     21  N   UNL     1      37.348   0.915  15.797  0.00  0.00    +0.000 NA
BRANCH  19  25
ATOM     22  C   UNL     1      38.336  -2.936  19.187  0.00  0.00    +0.000 A 
ATOM     23  C   UNL     1      37.377  -2.054  19.628  0.00  0.00    +0.000 A 
ATOM     24  C   UNL     1      36.815  -1.107  18.783  0.00  0.00    +0.000 A 
ATOM     25  C   UNL     1      37.183  -0.997  17.463  0.00  0.00    +0.000 A 
ATOM     26  C   UNL     1      38.146  -1.890  17.037  0.00  0.00    +0.000 A 
ATOM     27  C   UNL     1      38.711  -2.832  17.867  0.00  0.00    +0.000 A 
BRANCH  22  29
ATOM     28  C   UNL     1      39.075  -5.227  19.690  0.00  0.00    +0.000 C 
ATOM     29  O   UNL     1      38.905  -3.892  20.042  0.00  0.00    +0.000 OA
ENDBRANCH  22  29
ENDBRANCH  19  25
ENDBRANCH  18  21
BRANCH  18  30
ATOM     30  C   UNL     1      37.496   1.645  13.555  0.00  0.00    +0.000 C 
ATOM     31  C   UNL     1      36.700   0.605  12.796  0.00  0.00    +0.000 C 
ATOM     32  C   UNL     1      38.733   0.937  14.037  0.00  0.00    +0.000 C 
ENDBRANCH  18  30
ENDBRANCH   1  18
TORSDOF 9
ENDMDL
MODEL 4
REMARK VINA RESULT:      -7.4      1.971      9.542
REMARK  Name = 
REMARK  9 active torsions:
REMARK  status: ('A' for Active; 'I' for Inactive)
REMARK    1  A    between atoms: O_2  and  C_3
REMARK    2  A    between atoms: C_6  and  C_7
REMARK    3  A    between atoms: N_9  and  C_10
REMARK    4  A    between atoms: C_10  and  C_11
REMARK    5  A    between atoms: C_10  and  C_28
REMARK    6  A    between atoms: N_13  and  C_14
REMARK    7  A    between atoms: C_17  and  O_18
REMARK    8  A    between atoms: O_18  and  C_19
REMARK    9  A    between atoms: C_19  and  C_20
REMARK                            x       y       z     vdW  Elec       q    Type
REMARK                         _______ _______ _______ _____ _____    ______ ____
ROOT
ATOM      1  C   UNL     1      38.718   5.332  17.460  0.00  0.00    +0.000 C 
ATOM      2  O   UNL     1      38.873   4.458  18.321  0.00  0.00    +0.000 OA
ATOM      3  N   UNL     1      38.057   5.062  16.252  0.00  0.00    +0.000 NA
ENDROOT
BRANCH   3   4
ATOM      4  C   UNL     1      37.561   3.743  16.034  0.00  0.00    +0.000 A 
ATOM      5  C   UNL     1      36.412   3.244  16.602  0.00  0.00    +0.000 A 
ATOM      6  C   UNL     1      35.935   1.967  16.388  0.00  0.00    +0.000 A 
ATOM      7  C   UNL     1      36.662   1.148  15.551  0.00  0.00    +0.000 A 
ATOM      8  C   UNL     1      37.822   1.593  14.952  0.00  0.00    +0.000 A 
ATOM      9  C   UNL     1      38.264   2.896  15.201  0.00  0.00    +0.000 A 
BRANCH   7  10
ATOM     10  O   UNL     1      36.220  -0.131  15.313  0.00  0.00    +0.000 OA
BRANCH  10  11
ATOM     11  C   UNL     1      35.698  -1.023  16.258  0.00  0.00    +0.000 C 
BRANCH  11  12
ATOM     12  C   UNL     1      36.668  -1.584  17.194  0.00  0.00    +0.000 A 
ATOM     13  C   UNL     1      36.541  -1.375  18.546  0.00  0.00    +0.000 A 
ATOM     14  C   UNL     1      37.460  -1.910  19.433  0.00  0.00    +0.000 A 
ATOM     15  C   UNL     1      38.492  -2.647  18.934  0.00  0.00    +0.000 A 
ATOM     16  C   UNL     1      38.659  -2.884  17.575  0.00  0.00    +0.000 A 
ATOM     17  C   UNL     1      37.718  -2.330  16.748  0.00  0.00    +0.000 A 
ENDBRANCH  11  12
ENDBRANCH  10  11
ENDBRANCH   7  10
ENDBRANCH   3   4
BRANCH   1  18
ATOM     18  C   UNL     1      39.276   6.796  17.719  0.00  0.00    +0.000 C 
BRANCH  18  21
ATOM     19  C   UNL     1      41.651   6.878  18.591  0.00  0.00    +0.000 C 
ATOM     20  O   UNL     1      41.829   7.572  17.550  0.00  0.00    +0.000 OA
ATOM     21  N   UNL     1      40.341   6.413  18.784  0.00  0.00    +0.000 NA
BRANCH  19  25
ATOM     22  C   UNL     1      44.931   6.132  21.243  0.00  0.00    +0.000 A 
ATOM     23  C   UNL     1      45.145   6.577  19.960  0.00  0.00    +0.000 A 
ATOM     24  C   UNL     1      44.092   6.822  19.089  0.00  0.00    +0.000 A 
ATOM     25  C   UNL     1      42.781   6.636  19.459  0.00  0.00    +0.000 A 
ATOM     26  C   UNL     1      42.585   6.190  20.751  0.00  0.00    +0.000 A 
ATOM     27  C   UNL     1      43.622   5.943  21.622  0.00  0.00    +0.000 A 
BRANCH  22  29
ATOM     28  C   UNL     1      45.828   5.675  23.488  0.00  0.00    +0.000 C 
ATOM     29  O   UNL     1      45.996   5.884  22.122  0.00  0.00    +0.000 OA
ENDBRANCH  22  29
ENDBRANCH  19  25
ENDBRANCH  18  21
BRANCH  18  30
ATOM     30  C   UNL     1      38.162   7.326  18.791  0.00  0.00    +0.000 C 
ATOM     31  C   UNL     1      37.778   8.651  18.169  0.00  0.00    +0.000 C 
ATOM     32  C   UNL     1      38.908   7.671  20.052  0.00  0.00    +0.000 C 
ENDBRANCH  18  30
ENDBRANCH   1  18
TORSDOF 9
ENDMDL
MODEL 5
REMARK VINA RESULT:      -7.3      4.107      6.815
REMARK  Name = 
REMARK  9 active torsions:
REMARK  status: ('A' for Active; 'I' for Inactive)
REMARK    1  A    between atoms: O_2  and  C_3
REMARK    2  A    between atoms: C_6  and  C_7
REMARK    3  A    between atoms: N_9  and  C_10
REMARK    4  A    between atoms: C_10  and  C_11
REMARK    5  A    between atoms: C_10  and  C_28
REMARK    6  A    between atoms: N_13  and  C_14
REMARK    7  A    between atoms: C_17  and  O_18
REMARK    8  A    between atoms: O_18  and  C_19
REMARK    9  A    between atoms: C_19  and  C_20
REMARK                            x       y       z     vdW  Elec       q    Type
REMARK                         _______ _______ _______ _____ _____    ______ ____
ROOT
ATOM      1  C   UNL     1      37.536  -0.992  15.941  0.00  0.00    +0.000 C 
ATOM      2  O   UNL     1      37.846  -0.649  17.088  0.00  0.00    +0.000 OA
ATOM      3  N   UNL     1      37.349  -0.048  14.919  0.00  0.00    +0.000 NA
ENDROOT
BRANCH   3   4
ATOM      4  C   UNL     1      37.528   1.331  15.234  0.00  0.00    +0.000 A 
ATOM      5  C   UNL     1      36.603   2.098  15.904  0.00  0.00    +0.000 A 
ATOM      6  C   UNL     1      36.780   3.433  16.207  0.00  0.00    +0.000 A 
ATOM      7  C   UNL     1      37.959   4.025  15.810  0.00  0.00    +0.000 A 
ATOM      8  C   UNL     1      38.924   3.307  15.134  0.00  0.00    +0.000 A 
ATOM      9  C   UNL     1      38.697   1.956  14.851  0.00  0.00    +0.000 A 
BRANCH   7  10
ATOM     10  O   UNL     1      38.173   5.353  16.092  0.00  0.00    +0.000 OA
BRANCH  10  11
ATOM     11  C   UNL     1      38.168   5.948  17.361  0.00  0.00    +0.000 C 
BRANCH  11  12
ATOM     12  C   UNL     1      39.482   6.129  17.973  0.00  0.00    +0.000 A 
ATOM     13  C   UNL     1      40.606   6.262  17.195  0.00  0.00    +0.000 A 
ATOM     14  C   UNL     1      41.851   6.437  17.776  0.00  0.00    +0.000 A 
ATOM     15  C   UNL     1      41.933   6.475  19.136  0.00  0.00    +0.000 A 
ATOM     16  C   UNL     1      40.823   6.345  19.961  0.00  0.00    +0.000 A 
ATOM     17  C   UNL     1      39.620   6.175  19.328  0.00  0.00    +0.000 A 
ENDBRANCH  11  12
ENDBRANCH  10  11
ENDBRANCH   7  10
ENDBRANCH   3   4
BRANCH   1  18
ATOM     18  C   UNL     1      37.341  -2.532  15.608  0.00  0.00    +0.000 C 
BRANCH  18  21
ATOM     19  C   UNL     1      39.357  -2.817  14.103  0.00  0.00    +0.000 C 
ATOM     20  O   UNL     1      39.926  -3.081  15.200  0.00  0.00    +0.000 OA
ATOM     21  N   UNL     1      37.990  -2.511  14.196  0.00  0.00    +0.000 NA
BRANCH  19  25
ATOM     22  C   UNL     1      41.775  -2.952  10.570  0.00  0.00    +0.000 A 
ATOM     23  C   UNL     1      40.453  -2.579  10.510  0.00  0.00    +0.000 A 
ATOM     24  C   UNL     1      39.657  -2.530  11.646  0.00  0.00    +0.000 A 
ATOM     25  C   UNL     1      40.144  -2.852  12.892  0.00  0.00    +0.000 A 
ATOM     26  C   UNL     1      41.472  -3.225  12.934  0.00  0.00    +0.000 A 
ATOM     27  C   UNL     1      42.270  -3.276  11.812  0.00  0.00    +0.000 A 
BRANCH  22  29
ATOM     28  C   UNL     1      42.066  -2.964   8.128  0.00  0.00    +0.000 C 
ATOM     29  O   UNL     1      42.578  -3.001   9.421  0.00  0.00    +0.000 OA
ENDBRANCH  22  29
ENDBRANCH  19  25
ENDBRANCH  18  21
BRANCH  18  30
ATOM     30  C   UNL     1      35.797  -2.501  15.074  0.00  0.00    +0.000 C 
ATOM     31  C   UNL     1      35.044  -2.456  16.386  0.00  0.00    +0.000 C 
ATOM     32  C   UNL     1      35.515  -3.860  14.492  0.00  0.00    +0.000 C 
ENDBRANCH  18  30
ENDBRANCH   1  18
TORSDOF 9
ENDMDL
MODEL 6
REMARK VINA RESULT:      -7.3      2.739      3.984
REMARK  Name = 
REMARK  9 active torsions:
REMARK  status: ('A' for Active; 'I' for Inactive)
REMARK    1  A    between atoms: O_2  and  C_3
REMARK    2  A    between atoms: C_6  and  C_7
REMARK    3  A    between atoms: N_9  and  C_10
REMARK    4  A    between atoms: C_10  and  C_11
REMARK    5  A    between atoms: C_10  and  C_28
REMARK    6  A    between atoms: N_13  and  C_14
REMARK    7  A    between atoms: C_17  and  O_18
REMARK    8  A    between atoms: O_18  and  C_19
REMARK    9  A    between atoms: C_19  and  C_20
REMARK                            x       y       z     vdW  Elec       q    Type
REMARK                         _______ _______ _______ _____ _____    ______ ____
ROOT
ATOM      1  C   UNL     1      37.192   5.085  14.966  0.00  0.00    +0.000 C 
ATOM      2  O   UNL     1      37.010   6.272  15.258  0.00  0.00    +0.000 OA
ATOM      3  N   UNL     1      38.203   4.327  15.577  0.00  0.00    +0.000 NA
ENDROOT
BRANCH   3   4
ATOM      4  C   UNL     1      39.025   4.961  16.554  0.00  0.00    +0.000 A 
ATOM      5  C   UNL     1      38.806   4.894  17.911  0.00  0.00    +0.000 A 
ATOM      6  C   UNL     1      39.604   5.509  18.854  0.00  0.00    +0.000 A 
ATOM      7  C   UNL     1      40.686   6.231  18.398  0.00  0.00    +0.000 A 
ATOM      8  C   UNL     1      40.956   6.334  17.049  0.00  0.00    +0.000 A 
ATOM      9  C   UNL     1      40.116   5.693  16.133  0.00  0.00    +0.000 A 
BRANCH   7  10
ATOM     10  O   UNL     1      41.505   6.858  19.306  0.00  0.00    +0.000 OA
BRANCH  10  11
ATOM     11  C   UNL     1      41.122   7.820  20.250  0.00  0.00    +0.000 C 
BRANCH  11  12
ATOM     12  C   UNL     1      39.904   8.561  19.933  0.00  0.00    +0.000 A 
ATOM     13  C   UNL     1      38.737   8.319  20.618  0.00  0.00    +0.000 A 
ATOM     14  C   UNL     1      37.583   9.023  20.318  0.00  0.00    +0.000 A 
ATOM     15  C   UNL     1      37.633   9.960  19.330  0.00  0.00    +0.000 A 
ATOM     16  C   UNL     1      38.790  10.238  18.613  0.00  0.00    +0.000 A 
ATOM     17  C   UNL     1      39.898   9.509  18.955  0.00  0.00    +0.000 A 
ENDBRANCH  11  12
ENDBRANCH  10  11
ENDBRANCH   7  10
ENDBRANCH   3   4
BRANCH   1  18
ATOM     18  C   UNL     1      36.267   4.394  13.875  0.00  0.00    +0.000 C 
BRANCH  18  21
ATOM     19  C   UNL     1      35.475   2.336  15.119  0.00  0.00    +0.000 C 
ATOM     20  O   UNL     1      34.483   3.077  15.367  0.00  0.00    +0.000 OA
ATOM     21  N   UNL     1      36.482   2.926  14.338  0.00  0.00    +0.000 NA
BRANCH  19  25
ATOM     22  C   UNL     1      35.555  -1.682  16.599  0.00  0.00    +0.000 A 
ATOM     23  C   UNL     1      34.849  -0.700  17.253  0.00  0.00    +0.000 A 
ATOM     24  C   UNL     1      34.814   0.606  16.786  0.00  0.00    +0.000 A 
ATOM     25  C   UNL     1      35.482   0.991  15.646  0.00  0.00    +0.000 A 
ATOM     26  C   UNL     1      36.184  -0.008  15.002  0.00  0.00    +0.000 A 
ATOM     27  C   UNL     1      36.225  -1.306  15.458  0.00  0.00    +0.000 A 
BRANCH  22  29
ATOM     28  C   UNL     1      35.852  -4.101  16.260  0.00  0.00    +0.000 C 
ATOM     29  O   UNL     1      35.589  -3.003  17.073  0.00  0.00    +0.000 OA
ENDBRANCH  22  29
ENDBRANCH  19  25
ENDBRANCH  18  21
BRANCH  18  30
ATOM     30  C   UNL     1      37.324   4.324  12.629  0.00  0.00    +0.000 C 
ATOM     31  C   UNL     1      36.541   5.045  11.553  0.00  0.00    +0.000 C 
ATOM     32  C   UNL     1      37.380   2.884  12.194  0.00  0.00    +0.000 C 
ENDBRANCH  18  30
ENDBRANCH   1  18
TORSDOF 9
ENDMDL
MODEL 7
REMARK VINA RESULT:      -7.2      1.967      9.087
REMARK  Name = 
REMARK  9 active torsions:
REMARK  status: ('A' for Active; 'I' for Inactive)
REMARK    1  A    between atoms: O_2  and  C_3
REMARK    2  A    between atoms: C_6  and  C_7
REMARK    3  A    between atoms: N_9  and  C_10
REMARK    4  A    between atoms: C_10  and  C_11
REMARK    5  A    between atoms: C_10  and  C_28
REMARK    6  A    between atoms: N_13  and  C_14
REMARK    7  A    between atoms: C_17  and  O_18
REMARK    8  A    between atoms: O_18  and  C_19
REMARK    9  A    between atoms: C_19  and  C_20
REMARK                            x       y       z     vdW  Elec       q    Type
REMARK                         _______ _______ _______ _____ _____    ______ ____
ROOT
ATOM      1  C   UNL     1      37.019   4.593  14.912  0.00  0.00    +0.000 C 
ATOM      2  O   UNL     1      35.801   4.598  14.697  0.00  0.00    +0.000 OA
ATOM      3  N   UNL     1      37.661   3.473  15.462  0.00  0.00    +0.000 NA
ENDROOT
BRANCH   3   4
ATOM      4  C   UNL     1      36.872   2.326  15.770  0.00  0.00    +0.000 A 
ATOM      5  C   UNL     1      36.679   1.267  14.913  0.00  0.00    +0.000 A 
ATOM      6  C   UNL     1      35.915   0.158  15.215  0.00  0.00    +0.000 A 
ATOM      7  C   UNL     1      35.313   0.118  16.454  0.00  0.00    +0.000 A 
ATOM      8  C   UNL     1      35.471   1.150  17.356  0.00  0.00    +0.000 A 
ATOM      9  C   UNL     1      36.255   2.253  17.001  0.00  0.00    +0.000 A 
BRANCH   7  10
ATOM     10  O   UNL     1      34.544  -0.970  16.792  0.00  0.00    +0.000 OA
BRANCH  10  11
ATOM     11  C   UNL     1      34.917  -2.317  16.701  0.00  0.00    +0.000 C 
BRANCH  11  12
ATOM     12  C   UNL     1      36.286  -2.618  17.113  0.00  0.00    +0.000 A 
ATOM     13  C   UNL     1      37.148  -3.266  16.261  0.00  0.00    +0.000 A 
ATOM     14  C   UNL     1      38.447  -3.549  16.651  0.00  0.00    +0.000 A 
ATOM     15  C   UNL     1      38.847  -3.169  17.897  0.00  0.00    +0.000 A 
ATOM     16  C   UNL     1      38.010  -2.512  18.790  0.00  0.00    +0.000 A 
ATOM     17  C   UNL     1      36.738  -2.260  18.347  0.00  0.00    +0.000 A 
ENDBRANCH  11  12
ENDBRANCH  10  11
ENDBRANCH   7  10
ENDBRANCH   3   4
BRANCH   1  18
ATOM     18  C   UNL     1      37.882   5.879  14.564  0.00  0.00    +0.000 C 
BRANCH  18  21
ATOM     19  C   UNL     1      39.771   5.964  16.247  0.00  0.00    +0.000 C 
ATOM     20  O   UNL     1      40.446   5.572  15.254  0.00  0.00    +0.000 OA
ATOM     21  N   UNL     1      38.403   6.160  16.001  0.00  0.00    +0.000 NA
BRANCH  19  25
ATOM     22  C   UNL     1      41.876   6.587  19.926  0.00  0.00    +0.000 A 
ATOM     23  C   UNL     1      40.539   6.263  19.920  0.00  0.00    +0.000 A 
ATOM     24  C   UNL     1      39.844   6.059  18.736  0.00  0.00    +0.000 A 
ATOM     25  C   UNL     1      40.450   6.168  17.506  0.00  0.00    +0.000 A 
ATOM     26  C   UNL     1      41.791   6.494  17.531  0.00  0.00    +0.000 A 
ATOM     27  C   UNL     1      42.489   6.699  18.699  0.00  0.00    +0.000 A 
BRANCH  22  29
ATOM     28  C   UNL     1      43.513   5.896  21.626  0.00  0.00    +0.000 C 
ATOM     29  O   UNL     1      42.577   6.794  21.123  0.00  0.00    +0.000 OA
ENDBRANCH  22  29
ENDBRANCH  19  25
ENDBRANCH  18  21
BRANCH  18  30
ATOM     30  C   UNL     1      36.705   7.014  14.597  0.00  0.00    +0.000 C 
ATOM     31  C   UNL     1      36.861   7.624  13.221  0.00  0.00    +0.000 C 
ATOM     32  C   UNL     1      37.157   8.074  15.565  0.00  0.00    +0.000 C 
ENDBRANCH  18  30
ENDBRANCH   1  18
TORSDOF 9
ENDMDL
MODEL 8
REMARK VINA RESULT:      -7.2      4.509      8.069
REMARK  Name = 
REMARK  9 active torsions:
REMARK  status: ('A' for Active; 'I' for Inactive)
REMARK    1  A    between atoms: O_2  and  C_3
REMARK    2  A    between atoms: C_6  and  C_7
REMARK    3  A    between atoms: N_9  and  C_10
REMARK    4  A    between atoms: C_10  and  C_11
REMARK    5  A    between atoms: C_10  and  C_28
REMARK    6  A    between atoms: N_13  and  C_14
REMARK    7  A    between atoms: C_17  and  O_18
REMARK    8  A    between atoms: O_18  and  C_19
REMARK    9  A    between atoms: C_19  and  C_20
REMARK                            x       y       z     vdW  Elec       q    Type
REMARK                         _______ _______ _______ _____ _____    ______ ____
ROOT
ATOM      1  C   UNL     1      37.270  -0.324  15.157  0.00  0.00    +0.000 C 
ATOM      2  O   UNL     1      37.190  -0.793  14.015  0.00  0.00    +0.000 OA
ATOM      3  N   UNL     1      38.479  -0.332  15.870  0.00  0.00    +0.000 NA
ENDROOT
BRANCH   3   4
ATOM      4  C   UNL     1      39.628  -0.898  15.244  0.00  0.00    +0.000 A 
ATOM      5  C   UNL     1      40.022  -2.208  15.387  0.00  0.00    +0.000 A 
ATOM      6  C   UNL     1      41.135  -2.752  14.779  0.00  0.00    +0.000 A 
ATOM      7  C   UNL     1      41.892  -1.923  13.979  0.00  0.00    +0.000 A 
ATOM      8  C   UNL     1      41.547  -0.599  13.797  0.00  0.00    +0.000 A 
ATOM      9  C   UNL     1      40.409  -0.096  14.437  0.00  0.00    +0.000 A 
BRANCH   7  10
ATOM     10  O   UNL     1      43.008  -2.426  13.356  0.00  0.00    +0.000 OA
BRANCH  10  11
ATOM     11  C   UNL     1      44.295  -1.873  13.373  0.00  0.00    +0.000 C 
BRANCH  11  12
ATOM     12  C   UNL     1      44.855  -1.627  14.700  0.00  0.00    +0.000 A 
ATOM     13  C   UNL     1      44.860  -0.362  15.236  0.00  0.00    +0.000 A 
ATOM     14  C   UNL     1      45.388  -0.130  16.495  0.00  0.00    +0.000 A 
ATOM     15  C   UNL     1      45.901  -1.185  17.187  0.00  0.00    +0.000 A 
ATOM     16  C   UNL     1      45.917  -2.480  16.685  0.00  0.00    +0.000 A 
ATOM     17  C   UNL     1      45.380  -2.646  15.435  0.00  0.00    +0.000 A 
ENDBRANCH  11  12
ENDBRANCH  10  11
ENDBRANCH   7  10
ENDBRANCH   3   4
BRANCH   1  18
ATOM     18  C   UNL     1      35.980   0.302  15.839  0.00  0.00    +0.000 C 
BRANCH  18  21
ATOM     19  C   UNL     1      36.727   2.718  15.726  0.00  0.00    +0.000 C 
ATOM     20  O   UNL     1      36.190   2.653  14.584  0.00  0.00    +0.000 OA
ATOM     21  N   UNL     1      36.676   1.535  16.480  0.00  0.00    +0.000 NA
BRANCH  19  25
ATOM     22  C   UNL     1      38.475   6.464  16.849  0.00  0.00    +0.000 A 
ATOM     23  C   UNL     1      38.471   5.396  17.715  0.00  0.00    +0.000 A 
ATOM     24  C   UNL     1      37.908   4.176  17.365  0.00  0.00    +0.000 A 
ATOM     25  C   UNL     1      37.324   3.968  16.137  0.00  0.00    +0.000 A 
ATOM     26  C   UNL     1      37.337   5.050  15.281  0.00  0.00    +0.000 A 
ATOM     27  C   UNL     1      37.892   6.264  15.619  0.00  0.00    +0.000 A 
BRANCH  22  29
ATOM     28  C   UNL     1      38.292   8.829  17.501  0.00  0.00    +0.000 C 
ATOM     29  O   UNL     1      39.044   7.696  17.204  0.00  0.00    +0.000 OA
ENDBRANCH  22  29
ENDBRANCH  19  25
ENDBRANCH  18  21
BRANCH  18  30
ATOM     30  C   UNL     1      35.940  -0.588  17.210  0.00  0.00    +0.000 C 
ATOM     31  C   UNL     1      34.690  -1.409  16.978  0.00  0.00    +0.000 C 
ATOM     32  C   UNL     1      35.601   0.360  18.329  0.00  0.00    +0.000 C 
ENDBRANCH  18  30
ENDBRANCH   1  18
TORSDOF 9
ENDMDL
MODEL 9
REMARK VINA RESULT:      -7.2      1.942      9.327
REMARK  Name = 
REMARK  9 active torsions:
REMARK  status: ('A' for Active; 'I' for Inactive)
REMARK    1  A    between atoms: O_2  and  C_3
REMARK    2  A    between atoms: C_6  and  C_7
REMARK    3  A    between atoms: N_9  and  C_10
REMARK    4  A    between atoms: C_10  and  C_11
REMARK    5  A    between atoms: C_10  and  C_28
REMARK    6  A    between atoms: N_13  and  C_14
REMARK    7  A    between atoms: C_17  and  O_18
REMARK    8  A    between atoms: O_18  and  C_19
REMARK    9  A    between atoms: C_19  and  C_20
REMARK                            x       y       z     vdW  Elec       q    Type
REMARK                         _______ _______ _______ _____ _____    ______ ____
ROOT
ATOM      1  C   UNL     1      38.393   3.677  15.012  0.00  0.00    +0.000 C 
ATOM      2  O   UNL     1      37.936   3.289  16.093  0.00  0.00    +0.000 OA
ATOM      3  N   UNL     1      38.693   2.777  13.977  0.00  0.00    +0.000 NA
ENDROOT
BRANCH   3   4
ATOM      4  C   UNL     1      38.455   1.389  14.200  0.00  0.00    +0.000 A 
ATOM      5  C   UNL     1      39.369   0.528  14.762  0.00  0.00    +0.000 A 
ATOM      6  C   UNL     1      39.134  -0.815  14.977  0.00  0.00    +0.000 A 
ATOM      7  C   UNL     1      37.905  -1.315  14.603  0.00  0.00    +0.000 A 
ATOM      8  C   UNL     1      36.948  -0.499  14.035  0.00  0.00    +0.000 A 
ATOM      9  C   UNL     1      37.235   0.856  13.838  0.00  0.00    +0.000 A 
BRANCH   7  10
ATOM     10  O   UNL     1      37.633  -2.647  14.800  0.00  0.00    +0.000 OA
BRANCH  10  11
ATOM     11  C   UNL     1      36.808  -3.193  15.792  0.00  0.00    +0.000 C 
BRANCH  11  12
ATOM     12  C   UNL     1      36.606  -2.355  16.971  0.00  0.00    +0.000 A 
ATOM     13  C   UNL     1      35.454  -1.622  17.122  0.00  0.00    +0.000 A 
ATOM     14  C   UNL     1      35.262  -0.830  18.242  0.00  0.00    +0.000 A 
ATOM     15  C   UNL     1      36.242  -0.796  19.188  0.00  0.00    +0.000 A 
ATOM     16  C   UNL     1      37.422  -1.521  19.077  0.00  0.00    +0.000 A 
ATOM     17  C   UNL     1      37.554  -2.285  17.948  0.00  0.00    +0.000 A 
ENDBRANCH  11  12
ENDBRANCH  10  11
ENDBRANCH   7  10
ENDBRANCH   3   4
BRANCH   1  18
ATOM     18  C   UNL     1      38.653   5.227  14.780  0.00  0.00    +0.000 C 
BRANCH  18  21
ATOM     19  C   UNL     1      40.427   5.859  16.471  0.00  0.00    +0.000 C 
ATOM     20  O   UNL     1      41.175   5.801  15.454  0.00  0.00    +0.000 OA
ATOM     21  N   UNL     1      39.073   5.574  16.236  0.00  0.00    +0.000 NA
BRANCH  19  25
ATOM     22  C   UNL     1      42.275   6.895  20.194  0.00  0.00    +0.000 A 
ATOM     23  C   UNL     1      40.947   6.544  20.136  0.00  0.00    +0.000 A 
ATOM     24  C   UNL     1      40.335   6.206  18.937  0.00  0.00    +0.000 A 
ATOM     25  C   UNL     1      41.019   6.204  17.744  0.00  0.00    +0.000 A 
ATOM     26  C   UNL     1      42.350   6.559  17.821  0.00  0.00    +0.000 A 
ATOM     27  C   UNL     1      42.967   6.896  19.005  0.00  0.00    +0.000 A 
BRANCH  22  29
ATOM     28  C   UNL     1      43.724   6.372  22.112  0.00  0.00    +0.000 C 
ATOM     29  O   UNL     1      42.893   7.237  21.407  0.00  0.00    +0.000 OA
ENDBRANCH  22  29
ENDBRANCH  19  25
ENDBRANCH  18  21
BRANCH  18  30
ATOM     30  C   UNL     1      37.121   5.782  14.920  0.00  0.00    +0.000 C 
ATOM     31  C   UNL     1      36.635   5.633  13.495  0.00  0.00    +0.000 C 
ATOM     32  C   UNL     1      37.222   7.264  15.162  0.00  0.00    +0.000 C 
ENDBRANCH  18  30
ENDBRANCH   1  18
TORSDOF 9
ENDMDL
MODEL 10
REMARK VINA RESULT:      -7.1      6.509      8.855
REMARK  Name = 
REMARK  9 active torsions:
REMARK  status: ('A' for Active; 'I' for Inactive)
REMARK    1  A    between atoms: O_2  and  C_3
REMARK    2  A    between atoms: C_6  and  C_7
REMARK    3  A    between atoms: N_9  and  C_10
REMARK    4  A    between atoms: C_10  and  C_11
REMARK    5  A    between atoms: C_10  and  C_28
REMARK    6  A    between atoms: N_13  and  C_14
REMARK    7  A    between atoms: C_17  and  O_18
REMARK    8  A    between atoms: O_18  and  C_19
REMARK    9  A    between atoms: C_19  and  C_20
REMARK                            x       y       z     vdW  Elec       q    Type
REMARK                         _______ _______ _______ _____ _____    ______ ____
ROOT
ATOM      1  C   UNL     1      36.400   0.488  16.351  0.00  0.00    +0.000 C 
ATOM      2  O   UNL     1      36.714   1.382  17.145  0.00  0.00    +0.000 OA
ATOM      3  N   UNL     1      35.865   0.785  15.088  0.00  0.00    +0.000 NA
ENDROOT
BRANCH   3   4
ATOM      4  C   UNL     1      35.690   2.155  14.734  0.00  0.00    +0.000 A 
ATOM      5  C   UNL     1      36.550   2.862  13.926  0.00  0.00    +0.000 A 
ATOM      6  C   UNL     1      36.375   4.188  13.585  0.00  0.00    +0.000 A 
ATOM      7  C   UNL     1      35.268   4.835  14.090  0.00  0.00    +0.000 A 
ATOM      8  C   UNL     1      34.371   4.178  14.906  0.00  0.00    +0.000 A 
ATOM      9  C   UNL     1      34.592   2.833  15.223  0.00  0.00    +0.000 A 
BRANCH   7  10
ATOM     10  O   UNL     1      35.060   6.156  13.775  0.00  0.00    +0.000 OA
BRANCH  10  11
ATOM     11  C   UNL     1      33.864   6.871  13.920  0.00  0.00    +0.000 C 
BRANCH  11  12
ATOM     12  C   UNL     1      34.015   8.288  14.241  0.00  0.00    +0.000 A 
ATOM     13  C   UNL     1      34.464   9.177  13.295  0.00  0.00    +0.000 A 
ATOM     14  C   UNL     1      34.604  10.521  13.599  0.00  0.00    +0.000 A 
ATOM     15  C   UNL     1      34.288  10.938  14.858  0.00  0.00    +0.000 A 
ATOM     16  C   UNL     1      33.831  10.074  15.845  0.00  0.00    +0.000 A 
ATOM     17  C   UNL     1      33.712   8.758  15.484  0.00  0.00    +0.000 A 
ENDBRANCH  11  12
ENDBRANCH  10  11
ENDBRANCH   7  10
ENDBRANCH   3   4
BRANCH   1  18
ATOM     18  C   UNL     1      36.602  -1.033  16.761  0.00  0.00    +0.000 C 
BRANCH  18  21
ATOM     19  C   UNL     1      38.673  -1.743  15.489  0.00  0.00    +0.000 C 
ATOM     20  O   UNL     1      39.221  -1.551  16.611  0.00  0.00    +0.000 OA
ATOM     21  N   UNL     1      37.291  -1.499  15.448  0.00  0.00    +0.000 NA
BRANCH  19  25
ATOM     22  C   UNL     1      41.197  -3.044  12.283  0.00  0.00    +0.000 A 
ATOM     23  C   UNL     1      39.864  -2.781  12.073  0.00  0.00    +0.000 A 
ATOM     24  C   UNL     1      39.033  -2.359  13.102  0.00  0.00    +0.000 A 
ATOM     25  C   UNL     1      39.496  -2.181  14.385  0.00  0.00    +0.000 A 
ATOM     26  C   UNL     1      40.836  -2.449  14.578  0.00  0.00    +0.000 A 
ATOM     27  C   UNL     1      41.667  -2.868  13.564  0.00  0.00    +0.000 A 
BRANCH  22  29
ATOM     28  C   UNL     1      43.420  -3.338  11.271  0.00  0.00    +0.000 C 
ATOM     29  O   UNL     1      42.035  -3.471  11.242  0.00  0.00    +0.000 OA
ENDBRANCH  22  29
ENDBRANCH  19  25
ENDBRANCH  18  21
BRANCH  18  30
ATOM     30  C   UNL     1      35.123  -1.615  16.381  0.00  0.00    +0.000 C 
ATOM     31  C   UNL     1      34.379  -1.363  17.674  0.00  0.00    +0.000 C 
ATOM     32  C   UNL     1      35.263  -3.111  16.278  0.00  0.00    +0.000 C 
ENDBRANCH  18  30
ENDBRANCH   1  18
TORSDOF 9
ENDMDL
