MODEL 1
REMARK VINA RESULT:      -6.9      0.000      0.000
REMARK  Name = 
REMARK  4 active torsions:
REMARK  status: ('A' for Active; 'I' for Inactive)
REMARK    1  A    between atoms: C_2  and  C_4
REMARK    2  A    between atoms: C_4  and  C_5
REMARK    3  A    between atoms: N_7  and  C_8
REMARK    4  A    between atoms: C_11  and  N_12
REMARK                            x       y       z     vdW  Elec       q    Type
REMARK                         _______ _______ _______ _____ _____    ______ ____
ROOT
ATOM      1  C   UNL     1      17.901   9.774  39.230  0.00  0.00    +0.000 A 
ATOM      2  N   UNL     1      17.063  10.082  38.241  0.00  0.00    +0.000 NA
ATOM      3  N   UNL     1      17.761  10.186  37.123  0.00  0.00    +0.000 N 
ATOM      4  C   UNL     1      19.061   9.949  37.357  0.00  0.00    +0.000 A 
ATOM      5  C   UNL     1      19.172   9.682  38.711  0.00  0.00    +0.000 A 
ATOM      6  C   UNL     1      20.578   9.408  39.060  0.00  0.00    +0.000 C 
ATOM      7  C   UNL     1      21.354   9.870  37.850  0.00  0.00    +0.000 C 
ATOM      8  N   UNL     1      20.366   9.861  36.782  0.00  0.00    +0.000 NA
ENDROOT
BRANCH   3   9
ATOM      9  C   UNL     1      17.224  10.501  35.837  0.00  0.00    +0.000 A 
ATOM     10  C   UNL     1      16.177  11.391  35.694  0.00  0.00    +0.000 A 
ATOM     11  C   UNL     1      15.646  11.704  34.464  0.00  0.00    +0.000 A 
ATOM     12  C   UNL     1      16.147  11.133  33.310  0.00  0.00    +0.000 A 
ATOM     13  C   UNL     1      17.184  10.252  33.449  0.00  0.00    +0.000 A 
ATOM     14  C   UNL     1      17.719   9.936  34.678  0.00  0.00    +0.000 A 
BRANCH  12  15
ATOM     15  N   UNL     1      15.628  11.439  32.011  0.00  0.00    +0.000 N 
ATOM     16  O   UNL     1      14.606  10.866  31.607  0.00  0.00    +0.000 OA
ATOM     17  O   UNL     1      16.268  12.355  31.246  0.00  0.00    +0.000 OA
ENDBRANCH  12  15
ENDBRANCH   3   9
BRANCH   1  18
ATOM     18  C   UNL     1      17.552   9.567  40.678  0.00  0.00    +0.000 C 
BRANCH  18  20
ATOM     19  C   UNL     1      17.687   7.050  40.891  0.00  0.00    +0.000 C 
ATOM     20  C   UNL     1      16.850   8.268  40.780  0.00  0.00    +0.000 C 
ATOM     21  C   UNL     1      15.533   8.245  41.450  0.00  0.00    +0.000 C 
ENDBRANCH  18  20
ENDBRANCH   1  18
TORSDOF 4
ENDMDL
MODEL 2
REMARK VINA RESULT:      -6.3      3.707      5.597
REMARK  Name = 
REMARK  4 active torsions:
REMARK  status: ('A' for Active; 'I' for Inactive)
REMARK    1  A    between atoms: C_2  and  C_4
REMARK    2  A    between atoms: C_4  and  C_5
REMARK    3  A    between atoms: N_7  and  C_8
REMARK    4  A    between atoms: C_11  and  N_12
REMARK                            x       y       z     vdW  Elec       q    Type
REMARK                         _______ _______ _______ _____ _____    ______ ____
ROOT
ATOM      1  C   UNL     1      16.807  10.125  39.236  0.00  0.00    +0.000 A 
ATOM      2  N   UNL     1      18.136  10.025  39.257  0.00  0.00    +0.000 NA
ATOM      3  N   UNL     1      18.610  10.565  38.147  0.00  0.00    +0.000 N 
ATOM      4  C   UNL     1      17.607  11.025  37.382  0.00  0.00    +0.000 A 
ATOM      5  C   UNL     1      16.436  10.751  38.067  0.00  0.00    +0.000 A 
ATOM      6  C   UNL     1      15.273  11.226  37.295  0.00  0.00    +0.000 C 
ATOM      7  C   UNL     1      15.835  11.508  35.923  0.00  0.00    +0.000 C 
ATOM      8  N   UNL     1      17.260  11.678  36.160  0.00  0.00    +0.000 NA
ENDROOT
BRANCH   3   9
ATOM      9  C   UNL     1      19.991  10.655  37.794  0.00  0.00    +0.000 A 
ATOM     10  C   UNL     1      20.565   9.773  36.900  0.00  0.00    +0.000 A 
ATOM     11  C   UNL     1      21.894   9.844  36.552  0.00  0.00    +0.000 A 
ATOM     12  C   UNL     1      22.717  10.814  37.091  0.00  0.00    +0.000 A 
ATOM     13  C   UNL     1      22.151  11.689  37.976  0.00  0.00    +0.000 A 
ATOM     14  C   UNL     1      20.821  11.622  38.328  0.00  0.00    +0.000 A 
BRANCH  12  15
ATOM     15  N   UNL     1      24.102  10.926  36.748  0.00  0.00    +0.000 N 
ATOM     16  O   UNL     1      24.808  11.773  37.313  0.00  0.00    +0.000 OA
ATOM     17  O   UNL     1      24.615  10.100  35.805  0.00  0.00    +0.000 OA
ENDBRANCH  12  15
ENDBRANCH   3   9
BRANCH   1  18
ATOM     18  C   UNL     1      15.848   9.639  40.287  0.00  0.00    +0.000 C 
BRANCH  18  20
ATOM     19  C   UNL     1      16.829   9.545  42.617  0.00  0.00    +0.000 C 
ATOM     20  C   UNL     1      16.639   8.900  41.296  0.00  0.00    +0.000 C 
ATOM     21  C   UNL     1      16.587   7.423  41.269  0.00  0.00    +0.000 C 
ENDBRANCH  18  20
ENDBRANCH   1  18
TORSDOF 4
ENDMDL
MODEL 3
REMARK VINA RESULT:      -6.1     18.856     21.328
REMARK  Name = 
REMARK  4 active torsions:
REMARK  status: ('A' for Active; 'I' for Inactive)
REMARK    1  A    between atoms: C_2  and  C_4
REMARK    2  A    between atoms: C_4  and  C_5
REMARK    3  A    between atoms: N_7  and  C_8
REMARK    4  A    between atoms: C_11  and  N_12
REMARK                            x       y       z     vdW  Elec       q    Type
REMARK                         _______ _______ _______ _____ _____    ______ ____
ROOT
ATOM      1  C   UNL     1      33.670  -4.688  33.330  0.00  0.00    +0.000 A 
ATOM      2  N   UNL     1      33.442  -3.422  32.980  0.00  0.00    +0.000 NA
ATOM      3  N   UNL     1      33.898  -2.637  33.941  0.00  0.00    +0.000 N 
ATOM      4  C   UNL     1      34.429  -3.369  34.933  0.00  0.00    +0.000 A 
ATOM      5  C   UNL     1      34.291  -4.694  34.559  0.00  0.00    +0.000 A 
ATOM      6  C   UNL     1      34.852  -5.577  35.598  0.00  0.00    +0.000 C 
ATOM      7  C   UNL     1      35.035  -4.670  36.791  0.00  0.00    +0.000 C 
ATOM      8  N   UNL     1      35.073  -3.336  36.208  0.00  0.00    +0.000 NA
ENDROOT
BRANCH   3   9
ATOM      9  C   UNL     1      33.844  -1.210  33.941  0.00  0.00    +0.000 A 
ATOM     10  C   UNL     1      34.077  -0.481  32.791  0.00  0.00    +0.000 A 
ATOM     11  C   UNL     1      34.031   0.893  32.773  0.00  0.00    +0.000 A 
ATOM     12  C   UNL     1      33.747   1.607  33.921  0.00  0.00    +0.000 A 
ATOM     13  C   UNL     1      33.515   0.889  35.061  0.00  0.00    +0.000 A 
ATOM     14  C   UNL     1      33.559  -0.488  35.084  0.00  0.00    +0.000 A 
BRANCH  12  15
ATOM     15  N   UNL     1      33.682   3.037  33.942  0.00  0.00    +0.000 N 
ATOM     16  O   UNL     1      33.427   3.656  32.899  0.00  0.00    +0.000 OA
ATOM     17  O   UNL     1      33.903   3.689  35.109  0.00  0.00    +0.000 OA
ENDBRANCH  12  15
ENDBRANCH   3   9
BRANCH   1  18
ATOM     18  C   UNL     1      33.312  -5.921  32.547  0.00  0.00    +0.000 C 
BRANCH  18  20
ATOM     19  C   UNL     1      33.670  -5.288  30.124  0.00  0.00    +0.000 C 
ATOM     20  C   UNL     1      34.181  -5.948  31.349  0.00  0.00    +0.000 C 
ATOM     21  C   UNL     1      35.644  -5.945  31.556  0.00  0.00    +0.000 C 
ENDBRANCH  18  20
ENDBRANCH   1  18
TORSDOF 4
ENDMDL
MODEL 4
REMARK VINA RESULT:      -6.0     18.370     20.132
REMARK  Name = 
REMARK  4 active torsions:
REMARK  status: ('A' for Active; 'I' for Inactive)
REMARK    1  A    between atoms: C_2  and  C_4
REMARK    2  A    between atoms: C_4  and  C_5
REMARK    3  A    between atoms: N_7  and  C_8
REMARK    4  A    between atoms: C_11  and  N_12
REMARK                            x       y       z     vdW  Elec       q    Type
REMARK                         _______ _______ _______ _____ _____    ______ ____
ROOT
ATOM      1  C   UNL     1      30.447  23.139  29.635  0.00  0.00    +0.000 A 
ATOM      2  N   UNL     1      30.618  23.362  28.333  0.00  0.00    +0.000 NA
ATOM      3  N   UNL     1      29.465  23.156  27.721  0.00  0.00    +0.000 N 
ATOM      4  C   UNL     1      28.522  22.795  28.605  0.00  0.00    +0.000 A 
ATOM      5  C   UNL     1      29.135  22.777  29.846  0.00  0.00    +0.000 A 
ATOM      6  C   UNL     1      28.166  22.388  30.886  0.00  0.00    +0.000 C 
ATOM      7  C   UNL     1      26.992  21.843  30.109  0.00  0.00    +0.000 C 
ATOM      8  N   UNL     1      27.153  22.425  28.785  0.00  0.00    +0.000 NA
ENDROOT
BRANCH   3   9
ATOM      9  C   UNL     1      29.235  23.295  26.318  0.00  0.00    +0.000 A 
ATOM     10  C   UNL     1      29.990  22.600  25.393  0.00  0.00    +0.000 A 
ATOM     11  C   UNL     1      29.783  22.724  24.039  0.00  0.00    +0.000 A 
ATOM     12  C   UNL     1      28.800  23.559  23.545  0.00  0.00    +0.000 A 
ATOM     13  C   UNL     1      28.051  24.248  24.458  0.00  0.00    +0.000 A 
ATOM     14  C   UNL     1      28.253  24.127  25.816  0.00  0.00    +0.000 A 
BRANCH  12  15
ATOM     15  N   UNL     1      28.549  23.709  22.144  0.00  0.00    +0.000 N 
ATOM     16  O   UNL     1      29.461  24.084  21.393  0.00  0.00    +0.000 OA
ATOM     17  O   UNL     1      27.312  23.437  21.664  0.00  0.00    +0.000 OA
ENDBRANCH  12  15
ENDBRANCH   3   9
BRANCH   1  18
ATOM     18  C   UNL     1      31.489  23.242  30.715  0.00  0.00    +0.000 C 
BRANCH  18  20
ATOM     19  C   UNL     1      33.175  21.388  30.375  0.00  0.00    +0.000 C 
ATOM     20  C   UNL     1      31.935  21.866  31.029  0.00  0.00    +0.000 C 
ATOM     21  C   UNL     1      31.631  21.330  32.372  0.00  0.00    +0.000 C 
ENDBRANCH  18  20
ENDBRANCH   1  18
TORSDOF 4
ENDMDL
MODEL 5
REMARK VINA RESULT:      -5.9     19.089     20.751
REMARK  Name = 
REMARK  4 active torsions:
REMARK  status: ('A' for Active; 'I' for Inactive)
REMARK    1  A    between atoms: C_2  and  C_4
REMARK    2  A    between atoms: C_4  and  C_5
REMARK    3  A    between atoms: N_7  and  C_8
REMARK    4  A    between atoms: C_11  and  N_12
REMARK                            x       y       z     vdW  Elec       q    Type
REMARK                         _______ _______ _______ _____ _____    ______ ____
ROOT
ATOM      1  C   UNL     1      31.744  21.912  29.327  0.00  0.00    +0.000 A 
ATOM      2  N   UNL     1      31.629  21.922  28.000  0.00  0.00    +0.000 NA
ATOM      3  N   UNL     1      30.533  22.591  27.684  0.00  0.00    +0.000 N 
ATOM      4  C   UNL     1      29.913  23.029  28.791  0.00  0.00    +0.000 A 
ATOM      5  C   UNL     1      30.679  22.601  29.862  0.00  0.00    +0.000 A 
ATOM      6  C   UNL     1      30.069  23.041  31.130  0.00  0.00    +0.000 C 
ATOM      7  C   UNL     1      28.680  23.484  30.735  0.00  0.00    +0.000 C 
ATOM      8  N   UNL     1      28.795  23.751  29.310  0.00  0.00    +0.000 NA
ENDROOT
BRANCH   3   9
ATOM      9  C   UNL     1      30.060  22.826  26.357  0.00  0.00    +0.000 A 
ATOM     10  C   UNL     1      28.713  22.778  26.054  0.00  0.00    +0.000 A 
ATOM     11  C   UNL     1      28.241  22.999  24.781  0.00  0.00    +0.000 A 
ATOM     12  C   UNL     1      29.108  23.281  23.743  0.00  0.00    +0.000 A 
ATOM     13  C   UNL     1      30.442  23.329  24.039  0.00  0.00    +0.000 A 
ATOM     14  C   UNL     1      30.919  23.109  25.313  0.00  0.00    +0.000 A 
BRANCH  12  15
ATOM     15  N   UNL     1      28.655  23.525  22.407  0.00  0.00    +0.000 N 
ATOM     16  O   UNL     1      27.500  23.214  22.083  0.00  0.00    +0.000 OA
ATOM     17  O   UNL     1      29.505  24.094  21.518  0.00  0.00    +0.000 OA
ENDBRANCH  12  15
ENDBRANCH   3   9
BRANCH   1  18
ATOM     18  C   UNL     1      32.833  21.261  30.135  0.00  0.00    +0.000 C 
BRANCH  18  20
ATOM     19  C   UNL     1      34.650  22.038  31.715  0.00  0.00    +0.000 C 
ATOM     20  C   UNL     1      33.761  22.331  30.566  0.00  0.00    +0.000 C 
ATOM     21  C   UNL     1      34.275  23.256  29.534  0.00  0.00    +0.000 C 
ENDBRANCH  18  20
ENDBRANCH   1  18
TORSDOF 4
ENDMDL
MODEL 6
REMARK VINA RESULT:      -5.8     20.135     22.749
REMARK  Name = 
REMARK  4 active torsions:
REMARK  status: ('A' for Active; 'I' for Inactive)
REMARK    1  A    between atoms: C_2  and  C_4
REMARK    2  A    between atoms: C_4  and  C_5
REMARK    3  A    between atoms: N_7  and  C_8
REMARK    4  A    between atoms: C_11  and  N_12
REMARK                            x       y       z     vdW  Elec       q    Type
REMARK                         _______ _______ _______ _____ _____    ______ ____
ROOT
ATOM      1  C   UNL     1      28.827  23.840  22.960  0.00  0.00    +0.000 A 
ATOM      2  N   UNL     1      29.905  23.838  23.743  0.00  0.00    +0.000 NA
ATOM      3  N   UNL     1      29.546  23.418  24.944  0.00  0.00    +0.000 N 
ATOM      4  C   UNL     1      28.234  23.139  24.971  0.00  0.00    +0.000 A 
ATOM      5  C   UNL     1      27.751  23.405  23.701  0.00  0.00    +0.000 A 
ATOM      6  C   UNL     1      26.305  23.124  23.638  0.00  0.00    +0.000 C 
ATOM      7  C   UNL     1      25.895  22.987  25.084  0.00  0.00    +0.000 C 
ATOM      8  N   UNL     1      27.141  22.683  25.770  0.00  0.00    +0.000 NA
ENDROOT
BRANCH   3   9
ATOM      9  C   UNL     1      30.418  23.273  26.066  0.00  0.00    +0.000 A 
ATOM     10  C   UNL     1      31.363  24.233  26.371  0.00  0.00    +0.000 A 
ATOM     11  C   UNL     1      32.212  24.109  27.446  0.00  0.00    +0.000 A 
ATOM     12  C   UNL     1      32.152  23.003  28.272  0.00  0.00    +0.000 A 
ATOM     13  C   UNL     1      31.218  22.051  27.972  0.00  0.00    +0.000 A 
ATOM     14  C   UNL     1      30.364  22.172  26.897  0.00  0.00    +0.000 A 
BRANCH  12  15
ATOM     15  N   UNL     1      33.012  22.840  29.405  0.00  0.00    +0.000 N 
ATOM     16  O   UNL     1      32.926  23.626  30.359  0.00  0.00    +0.000 OA
ATOM     17  O   UNL     1      33.909  21.825  29.409  0.00  0.00    +0.000 OA
ENDBRANCH  12  15
ENDBRANCH   3   9
BRANCH   1  18
ATOM     18  C   UNL     1      28.759  24.252  21.515  0.00  0.00    +0.000 C 
BRANCH  18  20
ATOM     19  C   UNL     1      29.572  26.370  20.397  0.00  0.00    +0.000 C 
ATOM     20  C   UNL     1      28.785  25.732  21.478  0.00  0.00    +0.000 C 
ATOM     21  C   UNL     1      27.591  26.457  21.962  0.00  0.00    +0.000 C 
ENDBRANCH  18  20
ENDBRANCH   1  18
TORSDOF 4
ENDMDL
MODEL 7
REMARK VINA RESULT:      -5.7     17.896     19.692
REMARK  Name = 
REMARK  4 active torsions:
REMARK  status: ('A' for Active; 'I' for Inactive)
REMARK    1  A    between atoms: C_2  and  C_4
REMARK    2  A    between atoms: C_4  and  C_5
REMARK    3  A    between atoms: N_7  and  C_8
REMARK    4  A    between atoms: C_11  and  N_12
REMARK                            x       y       z     vdW  Elec       q    Type
REMARK                         _______ _______ _______ _____ _____    ______ ____
ROOT
ATOM      1  C   UNL     1      25.254  25.149  29.378  0.00  0.00    +0.000 A 
ATOM      2  N   UNL     1      25.222  25.365  28.064  0.00  0.00    +0.000 NA
ATOM      3  N   UNL     1      25.955  24.438  27.471  0.00  0.00    +0.000 N 
ATOM      4  C   UNL     1      26.479  23.602  28.381  0.00  0.00    +0.000 A 
ATOM      5  C   UNL     1      26.039  24.043  29.617  0.00  0.00    +0.000 A 
ATOM      6  C   UNL     1      26.571  23.176  30.685  0.00  0.00    +0.000 C 
ATOM      7  C   UNL     1      27.650  22.372  30.001  0.00  0.00    +0.000 C 
ATOM      8  N   UNL     1      27.299  22.451  28.591  0.00  0.00    +0.000 NA
ENDROOT
BRANCH   3   9
ATOM      9  C   UNL     1      26.169  24.325  26.064  0.00  0.00    +0.000 A 
ATOM     10  C   UNL     1      26.691  25.372  25.329  0.00  0.00    +0.000 A 
ATOM     11  C   UNL     1      26.901  25.282  23.973  0.00  0.00    +0.000 A 
ATOM     12  C   UNL     1      26.594  24.124  23.284  0.00  0.00    +0.000 A 
ATOM     13  C   UNL     1      26.077  23.086  24.009  0.00  0.00    +0.000 A 
ATOM     14  C   UNL     1      25.866  23.171  25.368  0.00  0.00    +0.000 A 
BRANCH  12  15
ATOM     15  N   UNL     1      26.805  23.987  21.875  0.00  0.00    +0.000 N 
ATOM     16  O   UNL     1      27.857  24.403  21.369  0.00  0.00    +0.000 OA
ATOM     17  O   UNL     1      25.844  23.404  21.119  0.00  0.00    +0.000 OA
ENDBRANCH  12  15
ENDBRANCH   3   9
BRANCH   1  18
ATOM     18  C   UNL     1      24.572  25.959  30.445  0.00  0.00    +0.000 C 
BRANCH  18  20
ATOM     19  C   UNL     1      22.303  26.811  29.721  0.00  0.00    +0.000 C 
ATOM     20  C   UNL     1      23.772  27.001  29.762  0.00  0.00    +0.000 C 
ATOM     21  C   UNL     1      24.271  28.391  29.798  0.00  0.00    +0.000 C 
ENDBRANCH  18  20
ENDBRANCH   1  18
TORSDOF 4
ENDMDL
MODEL 8
REMARK VINA RESULT:      -5.7     21.741     23.016
REMARK  Name = 
REMARK  4 active torsions:
REMARK  status: ('A' for Active; 'I' for Inactive)
REMARK    1  A    between atoms: C_2  and  C_4
REMARK    2  A    between atoms: C_4  and  C_5
REMARK    3  A    between atoms: N_7  and  C_8
REMARK    4  A    between atoms: C_11  and  N_12
REMARK                            x       y       z     vdW  Elec       q    Type
REMARK                         _______ _______ _______ _____ _____    ______ ____
ROOT
ATOM      1  C   UNL     1      20.435  -8.275  25.466  0.00  0.00    +0.000 A 
ATOM      2  N   UNL     1      21.391  -7.883  24.626  0.00  0.00    +0.000 NA
ATOM      3  N   UNL     1      22.507  -8.521  24.939  0.00  0.00    +0.000 N 
ATOM      4  C   UNL     1      22.303  -9.337  25.985  0.00  0.00    +0.000 A 
ATOM      5  C   UNL     1      20.973  -9.193  26.340  0.00  0.00    +0.000 A 
ATOM      6  C   UNL     1      20.657 -10.061  27.490  0.00  0.00    +0.000 C 
ATOM      7  C   UNL     1      22.009 -10.488  28.009  0.00  0.00    +0.000 C 
ATOM      8  N   UNL     1      22.896 -10.287  26.872  0.00  0.00    +0.000 NA
ENDROOT
BRANCH   3   9
ATOM      9  C   UNL     1      23.760  -8.376  24.269  0.00  0.00    +0.000 A 
ATOM     10  C   UNL     1      24.532  -9.473  23.941  0.00  0.00    +0.000 A 
ATOM     11  C   UNL     1      25.742  -9.351  23.299  0.00  0.00    +0.000 A 
ATOM     12  C   UNL     1      26.239  -8.109  22.953  0.00  0.00    +0.000 A 
ATOM     13  C   UNL     1      25.477  -7.021  23.277  0.00  0.00    +0.000 A 
ATOM     14  C   UNL     1      24.264  -7.138  23.920  0.00  0.00    +0.000 A 
BRANCH  12  15
ATOM     15  N   UNL     1      27.489  -7.941  22.278  0.00  0.00    +0.000 N 
ATOM     16  O   UNL     1      27.951  -6.803  22.114  0.00  0.00    +0.000 OA
ATOM     17  O   UNL     1      28.146  -9.037  21.828  0.00  0.00    +0.000 OA
ENDBRANCH  12  15
ENDBRANCH   3   9
BRANCH   1  18
ATOM     18  C   UNL     1      19.006  -7.806  25.492  0.00  0.00    +0.000 C 
BRANCH  18  20
ATOM     19  C   UNL     1      19.501  -5.397  26.084  0.00  0.00    +0.000 C 
ATOM     20  C   UNL     1      18.923  -6.704  26.476  0.00  0.00    +0.000 C 
ATOM     21  C   UNL     1      17.762  -6.680  27.391  0.00  0.00    +0.000 C 
ENDBRANCH  18  20
ENDBRANCH   1  18
TORSDOF 4
ENDMDL
MODEL 9
REMARK VINA RESULT:      -5.7     17.503     18.902
REMARK  Name = 
REMARK  4 active torsions:
REMARK  status: ('A' for Active; 'I' for Inactive)
REMARK    1  A    between atoms: C_2  and  C_4
REMARK    2  A    between atoms: C_4  and  C_5
REMARK    3  A    between atoms: N_7  and  C_8
REMARK    4  A    between atoms: C_11  and  N_12
REMARK                            x       y       z     vdW  Elec       q    Type
REMARK                         _______ _______ _______ _____ _____    ______ ____
ROOT
ATOM      1  C   UNL     1      34.008   1.623  36.326  0.00  0.00    +0.000 A 
ATOM      2  N   UNL     1      34.337   2.836  36.767  0.00  0.00    +0.000 NA
ATOM      3  N   UNL     1      34.376   3.658  35.733  0.00  0.00    +0.000 N 
ATOM      4  C   UNL     1      34.075   3.003  34.601  0.00  0.00    +0.000 A 
ATOM      5  C   UNL     1      33.835   1.688  34.961  0.00  0.00    +0.000 A 
ATOM      6  C   UNL     1      33.495   0.889  33.770  0.00  0.00    +0.000 C 
ATOM      7  C   UNL     1      33.885   1.774  32.611  0.00  0.00    +0.000 C 
ATOM      8  N   UNL     1      33.904   3.110  33.186  0.00  0.00    +0.000 NA
ENDROOT
BRANCH   3   9
ATOM      9  C   UNL     1      34.689   5.051  35.793  0.00  0.00    +0.000 A 
ATOM     10  C   UNL     1      35.788   5.569  35.136  0.00  0.00    +0.000 A 
ATOM     11  C   UNL     1      36.106   6.907  35.186  0.00  0.00    +0.000 A 
ATOM     12  C   UNL     1      35.327   7.794  35.904  0.00  0.00    +0.000 A 
ATOM     13  C   UNL     1      34.239   7.283  36.555  0.00  0.00    +0.000 A 
ATOM     14  C   UNL     1      33.916   5.945  36.508  0.00  0.00    +0.000 A 
BRANCH  12  15
ATOM     15  N   UNL     1      35.620   9.194  35.973  0.00  0.00    +0.000 N 
ATOM     16  O   UNL     1      36.690   9.574  36.469  0.00  0.00    +0.000 OA
ATOM     17  O   UNL     1      34.715  10.079  35.492  0.00  0.00    +0.000 OA
ENDBRANCH  12  15
ENDBRANCH   3   9
BRANCH   1  18
ATOM     18  C   UNL     1      33.854   0.372  37.147  0.00  0.00    +0.000 C 
BRANCH  18  20
ATOM     19  C   UNL     1      36.270  -0.179  37.659  0.00  0.00    +0.000 C 
ATOM     20  C   UNL     1      35.041  -0.474  36.885  0.00  0.00    +0.000 C 
ATOM     21  C   UNL     1      34.814  -1.880  36.489  0.00  0.00    +0.000 C 
ENDBRANCH  18  20
ENDBRANCH   1  18
TORSDOF 4
ENDMDL
MODEL 10
REMARK VINA RESULT:      -5.6     21.654     23.773
REMARK  Name = 
REMARK  4 active torsions:
REMARK  status: ('A' for Active; 'I' for Inactive)
REMARK    1  A    between atoms: C_2  and  C_4
REMARK    2  A    between atoms: C_4  and  C_5
REMARK    3  A    between atoms: N_7  and  C_8
REMARK    4  A    between atoms: C_11  and  N_12
REMARK                            x       y       z     vdW  Elec       q    Type
REMARK                         _______ _______ _______ _____ _____    ______ ____
ROOT
ATOM      1  C   UNL     1      29.576  23.305  24.028  0.00  0.00    +0.000 A 
ATOM      2  N   UNL     1      29.849  24.204  23.084  0.00  0.00    +0.000 NA
ATOM      3  N   UNL     1      28.725  24.824  22.763  0.00  0.00    +0.000 N 
ATOM      4  C   UNL     1      27.702  24.344  23.487  0.00  0.00    +0.000 A 
ATOM      5  C   UNL     1      28.230  23.363  24.309  0.00  0.00    +0.000 A 
ATOM      6  C   UNL     1      27.167  22.777  25.146  0.00  0.00    +0.000 C 
ATOM      7  C   UNL     1      25.887  23.262  24.509  0.00  0.00    +0.000 C 
ATOM      8  N   UNL     1      26.301  24.434  23.752  0.00  0.00    +0.000 NA
ENDROOT
BRANCH   3   9
ATOM      9  C   UNL     1      28.600  25.860  21.788  0.00  0.00    +0.000 A 
ATOM     10  C   UNL     1      29.561  26.053  20.815  0.00  0.00    +0.000 A 
ATOM     11  C   UNL     1      29.457  27.048  19.871  0.00  0.00    +0.000 A 
ATOM     12  C   UNL     1      28.373  27.904  19.860  0.00  0.00    +0.000 A 
ATOM     13  C   UNL     1      27.420  27.715  20.822  0.00  0.00    +0.000 A 
ATOM     14  C   UNL     1      27.519  26.720  21.770  0.00  0.00    +0.000 A 
BRANCH  12  15
ATOM     15  N   UNL     1      28.224  28.945  18.889  0.00  0.00    +0.000 N 
ATOM     16  O   UNL     1      27.297  29.760  18.999  0.00  0.00    +0.000 OA
ATOM     17  O   UNL     1      29.106  29.020  17.864  0.00  0.00    +0.000 OA
ENDBRANCH  12  15
ENDBRANCH   3   9
BRANCH   1  18
ATOM     18  C   UNL     1      30.546  22.364  24.688  0.00  0.00    +0.000 C 
BRANCH  18  20
ATOM     19  C   UNL     1      30.603  22.035  27.195  0.00  0.00    +0.000 C 
ATOM     20  C   UNL     1      30.850  22.914  26.028  0.00  0.00    +0.000 C 
ATOM     21  C   UNL     1      31.953  23.891  26.141  0.00  0.00    +0.000 C 
ENDBRANCH  18  20
ENDBRANCH   1  18
TORSDOF 4
ENDMDL
