MODEL 1
REMARK VINA RESULT:      -8.0      0.000      0.000
REMARK  Name = 
REMARK  7 active torsions:
REMARK  status: ('A' for Active; 'I' for Inactive)
REMARK    1  A    between atoms: C_2  and  C_4
REMARK    2  A    between atoms: C_4  and  C_5
REMARK    3  A    between atoms: C_5  and  N_6
REMARK    4  A    between atoms: C_7  and  C_9
REMARK    5  A    between atoms: N_12  and  C_13
REMARK    6  A    between atoms: C_13  and  C_14
REMARK    7  A    between atoms: C_14  and  C_15
REMARK                            x       y       z     vdW  Elec       q    Type
REMARK                         _______ _______ _______ _____ _____    ______ ____
ROOT
ATOM      1  C   UNL     1      37.050   1.946  15.877  0.00  0.00    +0.000 A 
ATOM      2  C   UNL     1      35.914   1.216  16.182  0.00  0.00    +0.000 A 
ATOM      3  N   UNL     1      34.704   1.719  16.741  0.00  0.00    +0.000 NA
ATOM      4  N   UNL     1      36.133  -0.066  15.863  0.00  0.00    +0.000 N 
ATOM      5  C   UNL     1      37.373  -0.182  15.363  0.00  0.00    +0.000 A 
ATOM      6  N   UNL     1      38.092  -1.244  14.892  0.00  0.00    +0.000 NA
ATOM      7  C   UNL     1      39.343  -1.061  14.442  0.00  0.00    +0.000 A 
ATOM      8  C   UNL     1      40.094  -2.129  13.957  0.00  0.00    +0.000 A 
ATOM      9  C   UNL     1      41.380  -1.913  13.500  0.00  0.00    +0.000 A 
ATOM     10  C   UNL     1      41.957  -0.659  13.507  0.00  0.00    +0.000 A 
ATOM     11  C   UNL     1      41.215   0.396  13.986  0.00  0.00    +0.000 A 
ATOM     12  C   UNL     1      39.927   0.187  14.445  0.00  0.00    +0.000 A 
ATOM     13  N   UNL     1      39.253   1.242  14.898  0.00  0.00    +0.000 NA
ATOM     14  C   UNL     1      37.978   1.049  15.355  0.00  0.00    +0.000 A 
ENDROOT
BRANCH   1  16
ATOM     15  N   UNL     1      38.152   3.818  17.051  0.00  0.00    +0.000 NA
ATOM     16  C   UNL     1      37.266   3.373  16.055  0.00  0.00    +0.000 C 
ATOM     17  O   UNL     1      36.653   4.178  15.311  0.00  0.00    +0.000 OA
BRANCH  15  18
ATOM     18  C   UNL     1      38.407   5.223  17.277  0.00  0.00    +0.000 C 
BRANCH  18  19
ATOM     19  C   UNL     1      39.011   5.335  18.673  0.00  0.00    +0.000 C 
BRANCH  19  21
ATOM     20  C   UNL     1      40.815   6.458  19.895  0.00  0.00    +0.000 C 
ATOM     21  C   UNL     1      39.984   6.504  18.620  0.00  0.00    +0.000 C 
ATOM     22  C   UNL     1      40.907   6.218  17.431  0.00  0.00    +0.000 C 
ENDBRANCH  19  21
ENDBRANCH  18  19
ENDBRANCH  15  18
ENDBRANCH   1  16
BRANCH   4  23
ATOM     23  C   UNL     1      35.193  -1.152  16.027  0.00  0.00    +0.000 C 
BRANCH  23  24
ATOM     24  C   UNL     1      35.301  -1.706  17.431  0.00  0.00    +0.000 C 
BRANCH  24  25
ATOM     25  C   UNL     1      36.387  -2.727  17.438  0.00  0.00    +0.000 A 
ATOM     26  C   UNL     1      37.491  -2.575  18.236  0.00  0.00    +0.000 A 
ATOM     27  C   UNL     1      38.469  -3.537  18.213  0.00  0.00    +0.000 A 
ATOM     28  C   UNL     1      38.381  -4.659  17.410  0.00  0.00    +0.000 A 
ATOM     29  C   UNL     1      37.258  -4.783  16.619  0.00  0.00    +0.000 A 
ATOM     30  C   UNL     1      36.274  -3.827  16.634  0.00  0.00    +0.000 A 
ENDBRANCH  24  25
ENDBRANCH  23  24
ENDBRANCH   4  23
TORSDOF 7
ENDMDL
MODEL 2
REMARK VINA RESULT:      -7.6      2.120      7.450
REMARK  Name = 
REMARK  7 active torsions:
REMARK  status: ('A' for Active; 'I' for Inactive)
REMARK    1  A    between atoms: C_2  and  C_4
REMARK    2  A    between atoms: C_4  and  C_5
REMARK    3  A    between atoms: C_5  and  N_6
REMARK    4  A    between atoms: C_7  and  C_9
REMARK    5  A    between atoms: N_12  and  C_13
REMARK    6  A    between atoms: C_13  and  C_14
REMARK    7  A    between atoms: C_14  and  C_15
REMARK                            x       y       z     vdW  Elec       q    Type
REMARK                         _______ _______ _______ _____ _____    ______ ____
ROOT
ATOM      1  C   UNL     1      36.144  -0.541  16.092  0.00  0.00    +0.000 A 
ATOM      2  C   UNL     1      35.772   0.792  16.157  0.00  0.00    +0.000 A 
ATOM      3  N   UNL     1      34.514   1.303  16.587  0.00  0.00    +0.000 NA
ATOM      4  N   UNL     1      36.802   1.543  15.746  0.00  0.00    +0.000 N 
ATOM      5  C   UNL     1      37.823   0.734  15.419  0.00  0.00    +0.000 A 
ATOM      6  N   UNL     1      39.084   0.970  14.951  0.00  0.00    +0.000 NA
ATOM      7  C   UNL     1      39.912  -0.057  14.705  0.00  0.00    +0.000 A 
ATOM      8  C   UNL     1      41.202   0.160  14.227  0.00  0.00    +0.000 A 
ATOM      9  C   UNL     1      42.033  -0.915  13.982  0.00  0.00    +0.000 A 
ATOM     10  C   UNL     1      41.627  -2.218  14.196  0.00  0.00    +0.000 A 
ATOM     11  C   UNL     1      40.353  -2.431  14.667  0.00  0.00    +0.000 A 
ATOM     12  C   UNL     1      39.515  -1.360  14.915  0.00  0.00    +0.000 A 
ATOM     13  N   UNL     1      38.292  -1.622  15.371  0.00  0.00    +0.000 NA
ATOM     14  C   UNL     1      37.453  -0.571  15.620  0.00  0.00    +0.000 A 
ENDROOT
BRANCH   1  16
ATOM     15  N   UNL     1      35.100  -2.689  15.467  0.00  0.00    +0.000 NA
ATOM     16  C   UNL     1      35.346  -1.705  16.440  0.00  0.00    +0.000 C 
ATOM     17  O   UNL     1      34.893  -1.806  17.607  0.00  0.00    +0.000 OA
BRANCH  15  18
ATOM     18  C   UNL     1      34.314  -3.869  15.752  0.00  0.00    +0.000 C 
BRANCH  18  19
ATOM     19  C   UNL     1      34.158  -4.615  14.431  0.00  0.00    +0.000 C 
BRANCH  19  21
ATOM     20  C   UNL     1      34.013  -6.900  13.554  0.00  0.00    +0.000 C 
ATOM     21  C   UNL     1      33.791  -6.047  14.796  0.00  0.00    +0.000 C 
ATOM     22  C   UNL     1      34.805  -6.472  15.862  0.00  0.00    +0.000 C 
ENDBRANCH  19  21
ENDBRANCH  18  19
ENDBRANCH  15  18
ENDBRANCH   1  16
BRANCH   4  23
ATOM     23  C   UNL     1      36.819   2.985  15.666  0.00  0.00    +0.000 C 
BRANCH  23  24
ATOM     24  C   UNL     1      37.061   3.565  17.043  0.00  0.00    +0.000 C 
BRANCH  24  25
ATOM     25  C   UNL     1      38.278   4.422  16.971  0.00  0.00    +0.000 A 
ATOM     26  C   UNL     1      38.825   4.964  18.105  0.00  0.00    +0.000 A 
ATOM     27  C   UNL     1      39.945   5.747  17.998  0.00  0.00    +0.000 A 
ATOM     28  C   UNL     1      40.547   6.011  16.781  0.00  0.00    +0.000 A 
ATOM     29  C   UNL     1      39.973   5.452  15.659  0.00  0.00    +0.000 A 
ATOM     30  C   UNL     1      38.852   4.667  15.755  0.00  0.00    +0.000 A 
ENDBRANCH  24  25
ENDBRANCH  23  24
ENDBRANCH   4  23
TORSDOF 7
ENDMDL
MODEL 3
REMARK VINA RESULT:      -7.5      1.837      4.559
REMARK  Name = 
REMARK  7 active torsions:
REMARK  status: ('A' for Active; 'I' for Inactive)
REMARK    1  A    between atoms: C_2  and  C_4
REMARK    2  A    between atoms: C_4  and  C_5
REMARK    3  A    between atoms: C_5  and  N_6
REMARK    4  A    between atoms: C_7  and  C_9
REMARK    5  A    between atoms: N_12  and  C_13
REMARK    6  A    between atoms: C_13  and  C_14
REMARK    7  A    between atoms: C_14  and  C_15
REMARK                            x       y       z     vdW  Elec       q    Type
REMARK                         _______ _______ _______ _____ _____    ______ ____
ROOT
ATOM      1  C   UNL     1      38.075   3.277  15.287  0.00  0.00    +0.000 A 
ATOM      2  C   UNL     1      38.714   3.168  14.064  0.00  0.00    +0.000 A 
ATOM      3  N   UNL     1      39.513   4.163  13.431  0.00  0.00    +0.000 NA
ATOM      4  N   UNL     1      38.460   1.955  13.556  0.00  0.00    +0.000 N 
ATOM      5  C   UNL     1      37.679   1.282  14.415  0.00  0.00    +0.000 A 
ATOM      6  N   UNL     1      37.134   0.029  14.393  0.00  0.00    +0.000 NA
ATOM      7  C   UNL     1      36.373  -0.390  15.416  0.00  0.00    +0.000 A 
ATOM      8  C   UNL     1      35.808  -1.663  15.415  0.00  0.00    +0.000 A 
ATOM      9  C   UNL     1      35.028  -2.069  16.480  0.00  0.00    +0.000 A 
ATOM     10  C   UNL     1      34.784  -1.248  17.563  0.00  0.00    +0.000 A 
ATOM     11  C   UNL     1      35.343   0.009  17.563  0.00  0.00    +0.000 A 
ATOM     12  C   UNL     1      36.124   0.422  16.500  0.00  0.00    +0.000 A 
ATOM     13  N   UNL     1      36.641   1.649  16.551  0.00  0.00    +0.000 NA
ATOM     14  C   UNL     1      37.416   2.070  15.506  0.00  0.00    +0.000 A 
ENDROOT
BRANCH   1  16
ATOM     15  N   UNL     1      38.664   4.288  17.461  0.00  0.00    +0.000 NA
ATOM     16  C   UNL     1      38.072   4.415  16.192  0.00  0.00    +0.000 C 
ATOM     17  O   UNL     1      37.540   5.488  15.817  0.00  0.00    +0.000 OA
BRANCH  15  18
ATOM     18  C   UNL     1      38.692   5.383  18.405  0.00  0.00    +0.000 C 
BRANCH  18  19
ATOM     19  C   UNL     1      40.123   5.911  18.413  0.00  0.00    +0.000 C 
BRANCH  19  21
ATOM     20  C   UNL     1      41.945   6.493  19.947  0.00  0.00    +0.000 C 
ATOM     21  C   UNL     1      40.448   6.224  19.867  0.00  0.00    +0.000 C 
ATOM     22  C   UNL     1      39.706   7.526  20.184  0.00  0.00    +0.000 C 
ENDBRANCH  19  21
ENDBRANCH  18  19
ENDBRANCH  15  18
ENDBRANCH   1  16
BRANCH   4  23
ATOM     23  C   UNL     1      38.945   1.447  12.293  0.00  0.00    +0.000 C 
BRANCH  23  24
ATOM     24  C   UNL     1      40.402   1.062  12.429  0.00  0.00    +0.000 C 
BRANCH  24  25
ATOM     25  C   UNL     1      40.460  -0.312  13.003  0.00  0.00    +0.000 A 
ATOM     26  C   UNL     1      39.851  -1.365  12.371  0.00  0.00    +0.000 A 
ATOM     27  C   UNL     1      39.927  -2.615  12.932  0.00  0.00    +0.000 A 
ATOM     28  C   UNL     1      40.598  -2.852  14.117  0.00  0.00    +0.000 A 
ATOM     29  C   UNL     1      41.200  -1.772  14.729  0.00  0.00    +0.000 A 
ATOM     30  C   UNL     1      41.130  -0.518  14.177  0.00  0.00    +0.000 A 
ENDBRANCH  24  25
ENDBRANCH  23  24
ENDBRANCH   4  23
TORSDOF 7
ENDMDL
MODEL 4
REMARK VINA RESULT:      -7.5      1.431      2.267
REMARK  Name = 
REMARK  7 active torsions:
REMARK  status: ('A' for Active; 'I' for Inactive)
REMARK    1  A    between atoms: C_2  and  C_4
REMARK    2  A    between atoms: C_4  and  C_5
REMARK    3  A    between atoms: C_5  and  N_6
REMARK    4  A    between atoms: C_7  and  C_9
REMARK    5  A    between atoms: N_12  and  C_13
REMARK    6  A    between atoms: C_13  and  C_14
REMARK    7  A    between atoms: C_14  and  C_15
REMARK                            x       y       z     vdW  Elec       q    Type
REMARK                         _______ _______ _______ _____ _____    ______ ____
ROOT
ATOM      1  C   UNL     1      38.356   1.488  14.759  0.00  0.00    +0.000 A 
ATOM      2  C   UNL     1      37.198   0.729  14.792  0.00  0.00    +0.000 A 
ATOM      3  N   UNL     1      35.880   1.200  15.054  0.00  0.00    +0.000 NA
ATOM      4  N   UNL     1      37.517  -0.546  14.534  0.00  0.00    +0.000 N 
ATOM      5  C   UNL     1      38.842  -0.629  14.336  0.00  0.00    +0.000 A 
ATOM      6  N   UNL     1      39.677  -1.670  14.046  0.00  0.00    +0.000 NA
ATOM      7  C   UNL     1      40.993  -1.454  13.898  0.00  0.00    +0.000 A 
ATOM      8  C   UNL     1      41.863  -2.502  13.602  0.00  0.00    +0.000 A 
ATOM      9  C   UNL     1      43.213  -2.252  13.456  0.00  0.00    +0.000 A 
ATOM     10  C   UNL     1      43.742  -0.984  13.596  0.00  0.00    +0.000 A 
ATOM     11  C   UNL     1      42.883   0.049  13.889  0.00  0.00    +0.000 A 
ATOM     12  C   UNL     1      41.530  -0.193  14.036  0.00  0.00    +0.000 A 
ATOM     13  N   UNL     1      40.742   0.843  14.319  0.00  0.00    +0.000 NA
ATOM     14  C   UNL     1      39.401   0.617  14.467  0.00  0.00    +0.000 A 
ENDROOT
BRANCH   1  16
ATOM     15  N   UNL     1      38.479   3.417  16.295  0.00  0.00    +0.000 NA
ATOM     16  C   UNL     1      38.488   2.919  14.980  0.00  0.00    +0.000 C 
ATOM     17  O   UNL     1      38.609   3.680  13.989  0.00  0.00    +0.000 OA
BRANCH  15  18
ATOM     18  C   UNL     1      38.606   4.829  16.580  0.00  0.00    +0.000 C 
BRANCH  18  19
ATOM     19  C   UNL     1      38.865   4.947  18.078  0.00  0.00    +0.000 C 
BRANCH  19  21
ATOM     20  C   UNL     1      40.111   6.288  19.710  0.00  0.00    +0.000 C 
ATOM     21  C   UNL     1      39.594   6.269  18.277  0.00  0.00    +0.000 C 
ATOM     22  C   UNL     1      40.796   6.223  17.330  0.00  0.00    +0.000 C 
ENDBRANCH  19  21
ENDBRANCH  18  19
ENDBRANCH  15  18
ENDBRANCH   1  16
BRANCH   4  23
ATOM     23  C   UNL     1      36.592  -1.655  14.476  0.00  0.00    +0.000 C 
BRANCH  23  24
ATOM     24  C   UNL     1      36.848  -2.587  15.640  0.00  0.00    +0.000 C 
BRANCH  24  25
ATOM     25  C   UNL     1      36.440  -1.883  16.888  0.00  0.00    +0.000 A 
ATOM     26  C   UNL     1      35.140  -1.495  17.085  0.00  0.00    +0.000 A 
ATOM     27  C   UNL     1      34.804  -0.848  18.247  0.00  0.00    +0.000 A 
ATOM     28  C   UNL     1      35.734  -0.572  19.233  0.00  0.00    +0.000 A 
ATOM     29  C   UNL     1      37.033  -0.975  19.006  0.00  0.00    +0.000 A 
ATOM     30  C   UNL     1      37.380  -1.622  17.846  0.00  0.00    +0.000 A 
ENDBRANCH  24  25
ENDBRANCH  23  24
ENDBRANCH   4  23
TORSDOF 7
ENDMDL
MODEL 5
REMARK VINA RESULT:      -7.5      1.717      6.343
REMARK  Name = 
REMARK  7 active torsions:
REMARK  status: ('A' for Active; 'I' for Inactive)
REMARK    1  A    between atoms: C_2  and  C_4
REMARK    2  A    between atoms: C_4  and  C_5
REMARK    3  A    between atoms: C_5  and  N_6
REMARK    4  A    between atoms: C_7  and  C_9
REMARK    5  A    between atoms: N_12  and  C_13
REMARK    6  A    between atoms: C_13  and  C_14
REMARK    7  A    between atoms: C_14  and  C_15
REMARK                            x       y       z     vdW  Elec       q    Type
REMARK                         _______ _______ _______ _____ _____    ______ ____
ROOT
ATOM      1  C   UNL     1      36.804   2.402  15.919  0.00  0.00    +0.000 A 
ATOM      2  C   UNL     1      36.978   2.193  14.561  0.00  0.00    +0.000 A 
ATOM      3  N   UNL     1      36.260   1.272  13.744  0.00  0.00    +0.000 NA
ATOM      4  N   UNL     1      37.946   3.008  14.124  0.00  0.00    +0.000 N 
ATOM      5  C   UNL     1      38.399   3.734  15.159  0.00  0.00    +0.000 A 
ATOM      6  N   UNL     1      39.363   4.696  15.270  0.00  0.00    +0.000 NA
ATOM      7  C   UNL     1      39.609   5.265  16.460  0.00  0.00    +0.000 A 
ATOM      8  C   UNL     1      40.586   6.249  16.596  0.00  0.00    +0.000 A 
ATOM      9  C   UNL     1      40.820   6.818  17.833  0.00  0.00    +0.000 A 
ATOM     10  C   UNL     1      40.110   6.443  18.956  0.00  0.00    +0.000 A 
ATOM     11  C   UNL     1      39.144   5.472  18.821  0.00  0.00    +0.000 A 
ATOM     12  C   UNL     1      38.906   4.898  17.586  0.00  0.00    +0.000 A 
ATOM     13  N   UNL     1      37.960   3.963  17.510  0.00  0.00    +0.000 NA
ATOM     14  C   UNL     1      37.714   3.387  16.295  0.00  0.00    +0.000 A 
ENDROOT
BRANCH   1  16
ATOM     15  N   UNL     1      36.345   0.839  17.774  0.00  0.00    +0.000 NA
ATOM     16  C   UNL     1      35.863   1.740  16.809  0.00  0.00    +0.000 C 
ATOM     17  O   UNL     1      34.639   1.990  16.694  0.00  0.00    +0.000 OA
BRANCH  15  18
ATOM     18  C   UNL     1      35.460   0.150  18.686  0.00  0.00    +0.000 C 
BRANCH  18  19
ATOM     19  C   UNL     1      36.251  -1.027  19.250  0.00  0.00    +0.000 C 
BRANCH  19  21
ATOM     20  C   UNL     1      38.295  -2.255  18.680  0.00  0.00    +0.000 C 
ATOM     21  C   UNL     1      37.061  -1.586  18.089  0.00  0.00    +0.000 C 
ATOM     22  C   UNL     1      36.181  -2.667  17.455  0.00  0.00    +0.000 C 
ENDBRANCH  19  21
ENDBRANCH  18  19
ENDBRANCH  15  18
ENDBRANCH   1  16
BRANCH   4  23
ATOM     23  C   UNL     1      38.429   3.097  12.765  0.00  0.00    +0.000 C 
BRANCH  23  24
ATOM     24  C   UNL     1      39.860   2.609  12.705  0.00  0.00    +0.000 C 
BRANCH  24  25
ATOM     25  C   UNL     1      39.857   1.146  12.988  0.00  0.00    +0.000 A 
ATOM     26  C   UNL     1      39.293   0.259  12.107  0.00  0.00    +0.000 A 
ATOM     27  C   UNL     1      39.309  -1.080  12.405  0.00  0.00    +0.000 A 
ATOM     28  C   UNL     1      39.876  -1.570  13.566  0.00  0.00    +0.000 A 
ATOM     29  C   UNL     1      40.435  -0.654  14.432  0.00  0.00    +0.000 A 
ATOM     30  C   UNL     1      40.424   0.688  14.145  0.00  0.00    +0.000 A 
ENDBRANCH  24  25
ENDBRANCH  23  24
ENDBRANCH   4  23
TORSDOF 7
ENDMDL
MODEL 6
REMARK VINA RESULT:      -7.4      2.197      7.471
REMARK  Name = 
REMARK  7 active torsions:
REMARK  status: ('A' for Active; 'I' for Inactive)
REMARK    1  A    between atoms: C_2  and  C_4
REMARK    2  A    between atoms: C_4  and  C_5
REMARK    3  A    between atoms: C_5  and  N_6
REMARK    4  A    between atoms: C_7  and  C_9
REMARK    5  A    between atoms: N_12  and  C_13
REMARK    6  A    between atoms: C_13  and  C_14
REMARK    7  A    between atoms: C_14  and  C_15
REMARK                            x       y       z     vdW  Elec       q    Type
REMARK                         _______ _______ _______ _____ _____    ______ ____
ROOT
ATOM      1  C   UNL     1      39.087   2.682  14.207  0.00  0.00    +0.000 A 
ATOM      2  C   UNL     1      39.215   3.924  14.807  0.00  0.00    +0.000 A 
ATOM      3  N   UNL     1      40.091   4.974  14.409  0.00  0.00    +0.000 NA
ATOM      4  N   UNL     1      38.370   3.985  15.844  0.00  0.00    +0.000 N 
ATOM      5  C   UNL     1      37.702   2.824  15.927  0.00  0.00    +0.000 A 
ATOM      6  N   UNL     1      36.742   2.360  16.781  0.00  0.00    +0.000 NA
ATOM      7  C   UNL     1      36.242   1.126  16.622  0.00  0.00    +0.000 A 
ATOM      8  C   UNL     1      35.261   0.633  17.481  0.00  0.00    +0.000 A 
ATOM      9  C   UNL     1      34.764  -0.642  17.296  0.00  0.00    +0.000 A 
ATOM     10  C   UNL     1      35.209  -1.460  16.276  0.00  0.00    +0.000 A 
ATOM     11  C   UNL     1      36.177  -0.973  15.428  0.00  0.00    +0.000 A 
ATOM     12  C   UNL     1      36.679   0.303  15.608  0.00  0.00    +0.000 A 
ATOM     13  N   UNL     1      37.615   0.725  14.759  0.00  0.00    +0.000 NA
ATOM     14  C   UNL     1      38.120   1.985  14.925  0.00  0.00    +0.000 A 
ENDROOT
BRANCH   1  16
ATOM     15  N   UNL     1      40.939   1.365  13.243  0.00  0.00    +0.000 NA
ATOM     16  C   UNL     1      39.807   2.175  13.049  0.00  0.00    +0.000 C 
ATOM     17  O   UNL     1      39.398   2.472  11.901  0.00  0.00    +0.000 OA
BRANCH  15  18
ATOM     18  C   UNL     1      41.697   0.831  12.133  0.00  0.00    +0.000 C 
BRANCH  18  19
ATOM     19  C   UNL     1      42.230  -0.525  12.585  0.00  0.00    +0.000 C 
BRANCH  19  21
ATOM     20  C   UNL     1      41.349  -1.827  14.467  0.00  0.00    +0.000 C 
ATOM     21  C   UNL     1      42.092  -0.548  14.101  0.00  0.00    +0.000 C 
ATOM     22  C   UNL     1      43.520  -0.646  14.644  0.00  0.00    +0.000 C 
ENDBRANCH  19  21
ENDBRANCH  18  19
ENDBRANCH  15  18
ENDBRANCH   1  16
BRANCH   4  23
ATOM     23  C   UNL     1      38.198   5.114  16.730  0.00  0.00    +0.000 C 
BRANCH  23  24
ATOM     24  C   UNL     1      38.778   4.782  18.088  0.00  0.00    +0.000 C 
BRANCH  24  25
ATOM     25  C   UNL     1      39.040   6.066  18.798  0.00  0.00    +0.000 A 
ATOM     26  C   UNL     1      40.097   6.188  19.663  0.00  0.00    +0.000 A 
ATOM     27  C   UNL     1      40.305   7.386  20.298  0.00  0.00    +0.000 A 
ATOM     28  C   UNL     1      39.484   8.480  20.097  0.00  0.00    +0.000 A 
ATOM     29  C   UNL     1      38.430   8.325  19.221  0.00  0.00    +0.000 A 
ATOM     30  C   UNL     1      38.212   7.131  18.581  0.00  0.00    +0.000 A 
ENDBRANCH  24  25
ENDBRANCH  23  24
ENDBRANCH   4  23
TORSDOF 7
ENDMDL
MODEL 7
REMARK VINA RESULT:      -7.3      2.042      7.087
REMARK  Name = 
REMARK  7 active torsions:
REMARK  status: ('A' for Active; 'I' for Inactive)
REMARK    1  A    between atoms: C_2  and  C_4
REMARK    2  A    between atoms: C_4  and  C_5
REMARK    3  A    between atoms: C_5  and  N_6
REMARK    4  A    between atoms: C_7  and  C_9
REMARK    5  A    between atoms: N_12  and  C_13
REMARK    6  A    between atoms: C_13  and  C_14
REMARK    7  A    between atoms: C_14  and  C_15
REMARK                            x       y       z     vdW  Elec       q    Type
REMARK                         _______ _______ _______ _____ _____    ______ ____
ROOT
ATOM      1  C   UNL     1      39.363   0.657  14.168  0.00  0.00    +0.000 A 
ATOM      2  C   UNL     1      39.445   2.039  14.202  0.00  0.00    +0.000 A 
ATOM      3  N   UNL     1      40.457   2.846  13.608  0.00  0.00    +0.000 NA
ATOM      4  N   UNL     1      38.401   2.511  14.896  0.00  0.00    +0.000 N 
ATOM      5  C   UNL     1      37.652   1.476  15.308  0.00  0.00    +0.000 A 
ATOM      6  N   UNL     1      36.499   1.392  16.036  0.00  0.00    +0.000 NA
ATOM      7  C   UNL     1      35.960   0.193  16.303  0.00  0.00    +0.000 A 
ATOM      8  C   UNL     1      34.785   0.084  17.044  0.00  0.00    +0.000 A 
ATOM      9  C   UNL     1      34.252  -1.163  17.306  0.00  0.00    +0.000 A 
ATOM     10  C   UNL     1      34.849  -2.323  16.855  0.00  0.00    +0.000 A 
ATOM     11  C   UNL     1      36.009  -2.215  16.123  0.00  0.00    +0.000 A 
ATOM     12  C   UNL     1      36.548  -0.970  15.858  0.00  0.00    +0.000 A 
ATOM     13  N   UNL     1      37.672  -0.922  15.145  0.00  0.00    +0.000 NA
ATOM     14  C   UNL     1      38.217   0.304  14.875  0.00  0.00    +0.000 A 
ENDROOT
BRANCH   1  16
ATOM     15  N   UNL     1      41.449  -0.662  14.202  0.00  0.00    +0.000 NA
ATOM     16  C   UNL     1      40.279  -0.273  13.528  0.00  0.00    +0.000 C 
ATOM     17  O   UNL     1      40.001  -0.709  12.384  0.00  0.00    +0.000 OA
BRANCH  15  18
ATOM     18  C   UNL     1      42.399  -1.583  13.618  0.00  0.00    +0.000 C 
BRANCH  18  19
ATOM     19  C   UNL     1      43.564  -1.683  14.597  0.00  0.00    +0.000 C 
BRANCH  19  21
ATOM     20  C   UNL     1      45.082  -0.297  15.934  0.00  0.00    +0.000 C 
ATOM     21  C   UNL     1      44.073  -0.262  14.794  0.00  0.00    +0.000 C 
ATOM     22  C   UNL     1      44.815   0.093  13.501  0.00  0.00    +0.000 C 
ENDBRANCH  19  21
ENDBRANCH  18  19
ENDBRANCH  15  18
ENDBRANCH   1  16
BRANCH   4  23
ATOM     23  C   UNL     1      38.120   3.904  15.161  0.00  0.00    +0.000 C 
BRANCH  23  24
ATOM     24  C   UNL     1      37.812   4.086  16.631  0.00  0.00    +0.000 C 
BRANCH  24  25
ATOM     25  C   UNL     1      38.893   4.922  17.225  0.00  0.00    +0.000 A 
ATOM     26  C   UNL     1      38.950   5.143  18.577  0.00  0.00    +0.000 A 
ATOM     27  C   UNL     1      39.961   5.918  19.085  0.00  0.00    +0.000 A 
ATOM     28  C   UNL     1      40.930   6.488  18.279  0.00  0.00    +0.000 A 
ATOM     29  C   UNL     1      40.845   6.248  16.924  0.00  0.00    +0.000 A 
ATOM     30  C   UNL     1      39.838   5.474  16.405  0.00  0.00    +0.000 A 
ENDBRANCH  24  25
ENDBRANCH  23  24
ENDBRANCH   4  23
TORSDOF 7
ENDMDL
MODEL 8
REMARK VINA RESULT:      -7.3      2.160      5.274
REMARK  Name = 
REMARK  7 active torsions:
REMARK  status: ('A' for Active; 'I' for Inactive)
REMARK    1  A    between atoms: C_2  and  C_4
REMARK    2  A    between atoms: C_4  and  C_5
REMARK    3  A    between atoms: C_5  and  N_6
REMARK    4  A    between atoms: C_7  and  C_9
REMARK    5  A    between atoms: N_12  and  C_13
REMARK    6  A    between atoms: C_13  and  C_14
REMARK    7  A    between atoms: C_14  and  C_15
REMARK                            x       y       z     vdW  Elec       q    Type
REMARK                         _______ _______ _______ _____ _____    ______ ____
ROOT
ATOM      1  C   UNL     1      38.283   2.773  15.286  0.00  0.00    +0.000 A 
ATOM      2  C   UNL     1      39.224   2.458  14.320  0.00  0.00    +0.000 A 
ATOM      3  N   UNL     1      40.202   3.334  13.768  0.00  0.00    +0.000 NA
ATOM      4  N   UNL     1      39.070   1.172  13.978  0.00  0.00    +0.000 N 
ATOM      5  C   UNL     1      38.060   0.652  14.694  0.00  0.00    +0.000 A 
ATOM      6  N   UNL     1      37.493  -0.590  14.738  0.00  0.00    +0.000 NA
ATOM      7  C   UNL     1      36.470  -0.831  15.572  0.00  0.00    +0.000 A 
ATOM      8  C   UNL     1      35.877  -2.090  15.634  0.00  0.00    +0.000 A 
ATOM      9  C   UNL     1      34.824  -2.311  16.500  0.00  0.00    +0.000 A 
ATOM     10  C   UNL     1      34.329  -1.315  17.318  0.00  0.00    +0.000 A 
ATOM     11  C   UNL     1      34.915  -0.072  17.256  0.00  0.00    +0.000 A 
ATOM     12  C   UNL     1      35.969   0.156  16.392  0.00  0.00    +0.000 A 
ATOM     13  N   UNL     1      36.500   1.377  16.371  0.00  0.00    +0.000 NA
ATOM     14  C   UNL     1      37.544   1.617  15.520  0.00  0.00    +0.000 A 
ENDROOT
BRANCH   1  16
ATOM     15  N   UNL     1      38.753   4.318  17.153  0.00  0.00    +0.000 NA
ATOM     16  C   UNL     1      38.081   4.052  15.948  0.00  0.00    +0.000 C 
ATOM     17  O   UNL     1      37.308   4.891  15.425  0.00  0.00    +0.000 OA
BRANCH  15  18
ATOM     18  C   UNL     1      38.592   5.570  17.858  0.00  0.00    +0.000 C 
BRANCH  18  19
ATOM     19  C   UNL     1      39.997   6.068  18.182  0.00  0.00    +0.000 C 
BRANCH  19  21
ATOM     20  C   UNL     1      41.516   6.462  20.066  0.00  0.00    +0.000 C 
ATOM     21  C   UNL     1      40.065   6.180  19.699  0.00  0.00    +0.000 C 
ATOM     22  C   UNL     1      39.228   7.411  20.060  0.00  0.00    +0.000 C 
ENDBRANCH  19  21
ENDBRANCH  18  19
ENDBRANCH  15  18
ENDBRANCH   1  16
BRANCH   4  23
ATOM     23  C   UNL     1      39.857   0.456  13.000  0.00  0.00    +0.000 C 
BRANCH  23  24
ATOM     24  C   UNL     1      39.191   0.553  11.645  0.00  0.00    +0.000 C 
BRANCH  24  25
ATOM     25  C   UNL     1      39.705  -0.563  10.802  0.00  0.00    +0.000 A 
ATOM     26  C   UNL     1      39.814  -1.834  11.305  0.00  0.00    +0.000 A 
ATOM     27  C   UNL     1      40.292  -2.833  10.497  0.00  0.00    +0.000 A 
ATOM     28  C   UNL     1      40.671  -2.605   9.187  0.00  0.00    +0.000 A 
ATOM     29  C   UNL     1      40.551  -1.317   8.710  0.00  0.00    +0.000 A 
ATOM     30  C   UNL     1      40.073  -0.309   9.510  0.00  0.00    +0.000 A 
ENDBRANCH  24  25
ENDBRANCH  23  24
ENDBRANCH   4  23
TORSDOF 7
ENDMDL
MODEL 9
REMARK VINA RESULT:      -7.2      1.592      2.224
REMARK  Name = 
REMARK  7 active torsions:
REMARK  status: ('A' for Active; 'I' for Inactive)
REMARK    1  A    between atoms: C_2  and  C_4
REMARK    2  A    between atoms: C_4  and  C_5
REMARK    3  A    between atoms: C_5  and  N_6
REMARK    4  A    between atoms: C_7  and  C_9
REMARK    5  A    between atoms: N_12  and  C_13
REMARK    6  A    between atoms: C_13  and  C_14
REMARK    7  A    between atoms: C_14  and  C_15
REMARK                            x       y       z     vdW  Elec       q    Type
REMARK                         _______ _______ _______ _____ _____    ______ ____
ROOT
ATOM      1  C   UNL     1      36.912   1.488  15.516  0.00  0.00    +0.000 A 
ATOM      2  C   UNL     1      35.908   0.787  16.163  0.00  0.00    +0.000 A 
ATOM      3  N   UNL     1      34.962   1.316  17.088  0.00  0.00    +0.000 NA
ATOM      4  N   UNL     1      35.965  -0.494  15.777  0.00  0.00    +0.000 N 
ATOM      5  C   UNL     1      36.974  -0.636  14.902  0.00  0.00    +0.000 A 
ATOM      6  N   UNL     1      37.463  -1.709  14.212  0.00  0.00    +0.000 NA
ATOM      7  C   UNL     1      38.508  -1.555  13.385  0.00  0.00    +0.000 A 
ATOM      8  C   UNL     1      39.024  -2.635  12.671  0.00  0.00    +0.000 A 
ATOM      9  C   UNL     1      40.101  -2.449  11.827  0.00  0.00    +0.000 A 
ATOM     10  C   UNL     1      40.695  -1.214  11.662  0.00  0.00    +0.000 A 
ATOM     11  C   UNL     1      40.186  -0.148  12.366  0.00  0.00    +0.000 A 
ATOM     12  C   UNL     1      39.108  -0.327  13.213  0.00  0.00    +0.000 A 
ATOM     13  N   UNL     1      38.655   0.738  13.872  0.00  0.00    +0.000 NA
ATOM     14  C   UNL     1      37.589   0.575  14.713  0.00  0.00    +0.000 A 
ENDROOT
BRANCH   1  16
ATOM     15  N   UNL     1      37.912   3.368  16.767  0.00  0.00    +0.000 NA
ATOM     16  C   UNL     1      37.226   2.904  15.632  0.00  0.00    +0.000 C 
ATOM     17  O   UNL     1      36.875   3.681  14.711  0.00  0.00    +0.000 OA
BRANCH  15  18
ATOM     18  C   UNL     1      38.252   4.763  16.940  0.00  0.00    +0.000 C 
BRANCH  18  19
ATOM     19  C   UNL     1      38.895   4.884  18.317  0.00  0.00    +0.000 C 
BRANCH  19  21
ATOM     20  C   UNL     1      38.180   7.229  18.394  0.00  0.00    +0.000 C 
ATOM     21  C   UNL     1      39.400   6.317  18.421  0.00  0.00    +0.000 C 
ATOM     22  C   UNL     1      40.054   6.424  19.802  0.00  0.00    +0.000 C 
ENDBRANCH  19  21
ENDBRANCH  18  19
ENDBRANCH  15  18
ENDBRANCH   1  16
BRANCH   4  23
ATOM     23  C   UNL     1      35.089  -1.553  16.222  0.00  0.00    +0.000 C 
BRANCH  23  24
ATOM     24  C   UNL     1      35.915  -2.757  16.622  0.00  0.00    +0.000 C 
BRANCH  24  25
ATOM     25  C   UNL     1      35.316  -3.957  15.973  0.00  0.00    +0.000 A 
ATOM     26  C   UNL     1      34.316  -3.830  15.043  0.00  0.00    +0.000 A 
ATOM     27  C   UNL     1      33.791  -4.959  14.469  0.00  0.00    +0.000 A 
ATOM     28  C   UNL     1      34.235  -6.227  14.795  0.00  0.00    +0.000 A 
ATOM     29  C   UNL     1      35.241  -6.322  15.733  0.00  0.00    +0.000 A 
ATOM     30  C   UNL     1      35.773  -5.199  16.315  0.00  0.00    +0.000 A 
ENDBRANCH  24  25
ENDBRANCH  23  24
ENDBRANCH   4  23
TORSDOF 7
ENDMDL
MODEL 10
REMARK VINA RESULT:      -7.2      2.224      7.810
REMARK  Name = 
REMARK  7 active torsions:
REMARK  status: ('A' for Active; 'I' for Inactive)
REMARK    1  A    between atoms: C_2  and  C_4
REMARK    2  A    between atoms: C_4  and  C_5
REMARK    3  A    between atoms: C_5  and  N_6
REMARK    4  A    between atoms: C_7  and  C_9
REMARK    5  A    between atoms: N_12  and  C_13
REMARK    6  A    between atoms: C_13  and  C_14
REMARK    7  A    between atoms: C_14  and  C_15
REMARK                            x       y       z     vdW  Elec       q    Type
REMARK                         _______ _______ _______ _____ _____    ______ ____
ROOT
ATOM      1  C   UNL     1      39.224   0.972  14.216  0.00  0.00    +0.000 A 
ATOM      2  C   UNL     1      39.234   2.351  14.342  0.00  0.00    +0.000 A 
ATOM      3  N   UNL     1      40.200   3.248  13.801  0.00  0.00    +0.000 NA
ATOM      4  N   UNL     1      38.171   2.720  15.068  0.00  0.00    +0.000 N 
ATOM      5  C   UNL     1      37.479   1.622  15.410  0.00  0.00    +0.000 A 
ATOM      6  N   UNL     1      36.336   1.429  16.134  0.00  0.00    +0.000 NA
ATOM      7  C   UNL     1      35.861   0.189  16.321  0.00  0.00    +0.000 A 
ATOM      8  C   UNL     1      34.698  -0.031  17.055  0.00  0.00    +0.000 A 
ATOM      9  C   UNL     1      34.232  -1.319  17.234  0.00  0.00    +0.000 A 
ATOM     10  C   UNL     1      34.886  -2.413  16.704  0.00  0.00    +0.000 A 
ATOM     11  C   UNL     1      36.034  -2.196  15.979  0.00  0.00    +0.000 A 
ATOM     12  C   UNL     1      36.507  -0.910  15.797  0.00  0.00    +0.000 A 
ATOM     13  N   UNL     1      37.623  -0.755  15.087  0.00  0.00    +0.000 NA
ATOM     14  C   UNL     1      38.102   0.512  14.899  0.00  0.00    +0.000 A 
ENDROOT
BRANCH   1  16
ATOM     15  N   UNL     1      40.089   0.002  12.116  0.00  0.00    +0.000 NA
ATOM     16  C   UNL     1      40.184   0.136  13.512  0.00  0.00    +0.000 C 
ATOM     17  O   UNL     1      41.078  -0.448  14.170  0.00  0.00    +0.000 OA
BRANCH  15  18
ATOM     18  C   UNL     1      41.012  -0.815  11.361  0.00  0.00    +0.000 C 
BRANCH  18  19
ATOM     19  C   UNL     1      40.232  -1.360  10.169  0.00  0.00    +0.000 C 
BRANCH  19  21
ATOM     20  C   UNL     1      41.005  -3.343   8.951  0.00  0.00    +0.000 C 
ATOM     21  C   UNL     1      40.351  -2.876  10.245  0.00  0.00    +0.000 C 
ATOM     22  C   UNL     1      41.314  -3.156  11.402  0.00  0.00    +0.000 C 
ENDBRANCH  19  21
ENDBRANCH  18  19
ENDBRANCH  15  18
ENDBRANCH   1  16
BRANCH   4  23
ATOM     23  C   UNL     1      37.819   4.076  15.426  0.00  0.00    +0.000 C 
BRANCH  23  24
ATOM     24  C   UNL     1      37.759   4.200  16.933  0.00  0.00    +0.000 C 
BRANCH  24  25
ATOM     25  C   UNL     1      38.914   5.034  17.370  0.00  0.00    +0.000 A 
ATOM     26  C   UNL     1      39.799   5.545  16.455  0.00  0.00    +0.000 A 
ATOM     27  C   UNL     1      40.850   6.308  16.897  0.00  0.00    +0.000 A 
ATOM     28  C   UNL     1      41.051   6.580  18.237  0.00  0.00    +0.000 A 
ATOM     29  C   UNL     1      40.145   6.051  19.132  0.00  0.00    +0.000 A 
ATOM     30  C   UNL     1      39.090   5.287  18.701  0.00  0.00    +0.000 A 
ENDBRANCH  24  25
ENDBRANCH  23  24
ENDBRANCH   4  23
TORSDOF 7
ENDMDL
