MODEL 1
REMARK VINA RESULT:      -6.8      0.000      0.000
REMARK  Name = 
REMARK  2 active torsions:
REMARK  status: ('A' for Active; 'I' for Inactive)
REMARK    1  A    between atoms: N_11  and  C_12
REMARK    2  A    between atoms: C_12  and  C_13
REMARK                            x       y       z     vdW  Elec       q    Type
REMARK                         _______ _______ _______ _____ _____    ______ ____
ROOT
ATOM      1  O   UNL     1      26.030  23.362  22.516  0.00  0.00    +0.000 OA
ATOM      2  C   UNL     1      26.875  23.284  23.449  0.00  0.00    +0.000 A 
ATOM      3  N   UNL     1      26.523  23.176  24.738  0.00  0.00    +0.000 NA
ATOM      4  C   UNL     1      27.444  23.092  25.743  0.00  0.00    +0.000 A 
ATOM      5  S   UNL     1      27.330  22.951  27.434  0.00  0.00    +0.000 S 
ATOM      6  C   UNL     1      28.989  22.918  27.820  0.00  0.00    +0.000 A 
ATOM      7  C   UNL     1      29.598  23.021  26.605  0.00  0.00    +0.000 A 
ATOM      8  C   UNL     1      28.787  23.112  25.512  0.00  0.00    +0.000 A 
ATOM      9  C   UNL     1      29.132  23.227  24.143  0.00  0.00    +0.000 A 
ATOM     10  O   UNL     1      30.336  23.258  23.777  0.00  0.00    +0.000 OA
ATOM     11  N   UNL     1      28.187  23.306  23.198  0.00  0.00    +0.000 N 
ATOM     12  C   UNL     1      31.138  23.024  26.556  0.00  0.00    +0.000 C 
ATOM     13  C   UNL     1      31.687  22.675  27.873  0.00  0.00    +0.000 C 
ATOM     14  C   UNL     1      31.036  23.419  29.021  0.00  0.00    +0.000 C 
ATOM     15  C   UNL     1      29.666  22.804  29.147  0.00  0.00    +0.000 C 
ENDROOT
BRANCH  11  16
ATOM     16  C   UNL     1      28.620  23.422  21.815  0.00  0.00    +0.000 C 
BRANCH  16  17
ATOM     17  C   UNL     1      28.907  24.812  21.426  0.00  0.00    +0.000 A 
ATOM     18  C   UNL     1      28.487  25.932  22.107  0.00  0.00    +0.000 A 
ATOM     19  C   UNL     1      28.974  27.030  21.402  0.00  0.00    +0.000 A 
ATOM     20  C   UNL     1      29.658  26.514  20.340  0.00  0.00    +0.000 A 
ATOM     21  O   UNL     1      29.586  25.219  20.404  0.00  0.00    +0.000 OA
ENDBRANCH  16  17
ENDBRANCH  11  16
TORSDOF 2
ENDMDL
MODEL 2
REMARK VINA RESULT:      -6.7      2.683      6.826
REMARK  Name = 
REMARK  2 active torsions:
REMARK  status: ('A' for Active; 'I' for Inactive)
REMARK    1  A    between atoms: N_11  and  C_12
REMARK    2  A    between atoms: C_12  and  C_13
REMARK                            x       y       z     vdW  Elec       q    Type
REMARK                         _______ _______ _______ _____ _____    ______ ____
ROOT
ATOM      1  O   UNL     1      26.887  24.906  24.203  0.00  0.00    +0.000 OA
ATOM      2  C   UNL     1      27.458  25.484  23.238  0.00  0.00    +0.000 A 
ATOM      3  N   UNL     1      27.253  26.775  22.945  0.00  0.00    +0.000 NA
ATOM      4  C   UNL     1      27.875  27.395  21.898  0.00  0.00    +0.000 A 
ATOM      5  S   UNL     1      27.834  28.977  21.275  0.00  0.00    +0.000 S 
ATOM      6  C   UNL     1      28.926  28.792  19.980  0.00  0.00    +0.000 A 
ATOM      7  C   UNL     1      29.299  27.483  20.067  0.00  0.00    +0.000 A 
ATOM      8  C   UNL     1      28.747  26.748  21.075  0.00  0.00    +0.000 A 
ATOM      9  C   UNL     1      28.945  25.386  21.406  0.00  0.00    +0.000 A 
ATOM     10  O   UNL     1      29.724  24.660  20.734  0.00  0.00    +0.000 OA
ATOM     11  N   UNL     1      28.309  24.829  22.444  0.00  0.00    +0.000 N 
ATOM     12  C   UNL     1      30.305  26.940  19.034  0.00  0.00    +0.000 C 
ATOM     13  C   UNL     1      30.870  28.043  18.248  0.00  0.00    +0.000 C 
ATOM     14  C   UNL     1      29.833  29.026  17.743  0.00  0.00    +0.000 C 
ATOM     15  C   UNL     1      29.397  29.786  18.970  0.00  0.00    +0.000 C 
ENDROOT
BRANCH  11  16
ATOM     16  C   UNL     1      28.564  23.424  22.721  0.00  0.00    +0.000 C 
BRANCH  16  17
ATOM     17  C   UNL     1      29.605  23.229  23.744  0.00  0.00    +0.000 A 
ATOM     18  C   UNL     1      29.410  22.651  24.978  0.00  0.00    +0.000 A 
ATOM     19  C   UNL     1      30.645  22.665  25.622  0.00  0.00    +0.000 A 
ATOM     20  C   UNL     1      31.513  23.248  24.743  0.00  0.00    +0.000 A 
ATOM     21  O   UNL     1      30.853  23.556  23.669  0.00  0.00    +0.000 OA
ENDBRANCH  16  17
ENDBRANCH  11  16
TORSDOF 2
ENDMDL
MODEL 3
REMARK VINA RESULT:      -6.4     32.055     33.097
REMARK  Name = 
REMARK  2 active torsions:
REMARK  status: ('A' for Active; 'I' for Inactive)
REMARK    1  A    between atoms: N_11  and  C_12
REMARK    2  A    between atoms: C_12  and  C_13
REMARK                            x       y       z     vdW  Elec       q    Type
REMARK                         _______ _______ _______ _____ _____    ______ ____
ROOT
ATOM      1  O   UNL     1      24.438 -10.254  24.746  0.00  0.00    +0.000 OA
ATOM      2  C   UNL     1      23.410  -9.611  25.096  0.00  0.00    +0.000 A 
ATOM      3  N   UNL     1      22.506 -10.103  25.954  0.00  0.00    +0.000 NA
ATOM      4  C   UNL     1      21.396  -9.400  26.329  0.00  0.00    +0.000 A 
ATOM      5  S   UNL     1      20.091  -9.729  27.369  0.00  0.00    +0.000 S 
ATOM      6  C   UNL     1      19.223  -8.273  27.191  0.00  0.00    +0.000 A 
ATOM      7  C   UNL     1      19.983  -7.559  26.313  0.00  0.00    +0.000 A 
ATOM      8  C   UNL     1      21.125  -8.150  25.859  0.00  0.00    +0.000 A 
ATOM      9  C   UNL     1      22.096  -7.654  24.955  0.00  0.00    +0.000 A 
ATOM     10  O   UNL     1      21.979  -6.512  24.438  0.00  0.00    +0.000 OA
ATOM     11  N   UNL     1      23.165  -8.386  24.622  0.00  0.00    +0.000 N 
ATOM     12  C   UNL     1      19.501  -6.153  25.905  0.00  0.00    +0.000 C 
ATOM     13  C   UNL     1      18.375  -5.738  26.752  0.00  0.00    +0.000 C 
ATOM     14  C   UNL     1      17.313  -6.805  26.918  0.00  0.00    +0.000 C 
ATOM     15  C   UNL     1      17.942  -7.834  27.821  0.00  0.00    +0.000 C 
ENDROOT
BRANCH  11  16
ATOM     16  C   UNL     1      24.118  -7.809  23.687  0.00  0.00    +0.000 C 
BRANCH  16  17
ATOM     17  C   UNL     1      23.964  -8.338  22.322  0.00  0.00    +0.000 A 
ATOM     18  C   UNL     1      22.907  -8.074  21.480  0.00  0.00    +0.000 A 
ATOM     19  C   UNL     1      23.158  -8.767  20.299  0.00  0.00    +0.000 A 
ATOM     20  C   UNL     1      24.348  -9.407  20.492  0.00  0.00    +0.000 A 
ATOM     21  O   UNL     1      24.771  -9.122  21.686  0.00  0.00    +0.000 OA
ENDBRANCH  16  17
ENDBRANCH  11  16
TORSDOF 2
ENDMDL
MODEL 4
REMARK VINA RESULT:      -6.4      2.131      3.309
REMARK  Name = 
REMARK  2 active torsions:
REMARK  status: ('A' for Active; 'I' for Inactive)
REMARK    1  A    between atoms: N_11  and  C_12
REMARK    2  A    between atoms: C_12  and  C_13
REMARK                            x       y       z     vdW  Elec       q    Type
REMARK                         _______ _______ _______ _____ _____    ______ ____
ROOT
ATOM      1  O   UNL     1      31.676  23.029  23.951  0.00  0.00    +0.000 OA
ATOM      2  C   UNL     1      30.850  23.015  24.904  0.00  0.00    +0.000 A 
ATOM      3  N   UNL     1      31.227  22.941  26.187  0.00  0.00    +0.000 NA
ATOM      4  C   UNL     1      30.326  22.926  27.215  0.00  0.00    +0.000 A 
ATOM      5  S   UNL     1      30.473  22.842  28.907  0.00  0.00    +0.000 S 
ATOM      6  C   UNL     1      28.822  22.883  29.329  0.00  0.00    +0.000 A 
ATOM      7  C   UNL     1      28.191  22.961  28.123  0.00  0.00    +0.000 A 
ATOM      8  C   UNL     1      28.979  22.984  27.011  0.00  0.00    +0.000 A 
ATOM      9  C   UNL     1      28.608  23.061  25.647  0.00  0.00    +0.000 A 
ATOM     10  O   UNL     1      27.398  23.121  25.305  0.00  0.00    +0.000 OA
ATOM     11  N   UNL     1      29.534  23.072  24.680  0.00  0.00    +0.000 N 
ATOM     12  C   UNL     1      26.650  23.019  28.107  0.00  0.00    +0.000 C 
ATOM     13  C   UNL     1      26.137  23.213  29.469  0.00  0.00    +0.000 C 
ATOM     14  C   UNL     1      26.778  22.304  30.497  0.00  0.00    +0.000 C 
ATOM     15  C   UNL     1      28.172  22.848  30.673  0.00  0.00    +0.000 C 
ENDROOT
BRANCH  11  16
ATOM     16  C   UNL     1      29.075  23.153  23.302  0.00  0.00    +0.000 C 
BRANCH  16  17
ATOM     17  C   UNL     1      29.169  24.516  22.753  0.00  0.00    +0.000 A 
ATOM     18  C   UNL     1      29.270  24.830  21.417  0.00  0.00    +0.000 A 
ATOM     19  C   UNL     1      29.335  26.219  21.340  0.00  0.00    +0.000 A 
ATOM     20  C   UNL     1      29.270  26.664  22.630  0.00  0.00    +0.000 A 
ATOM     21  O   UNL     1      29.175  25.629  23.408  0.00  0.00    +0.000 OA
ENDBRANCH  16  17
ENDBRANCH  11  16
TORSDOF 2
ENDMDL
MODEL 5
REMARK VINA RESULT:      -6.1     20.784     22.281
REMARK  Name = 
REMARK  2 active torsions:
REMARK  status: ('A' for Active; 'I' for Inactive)
REMARK    1  A    between atoms: N_11  and  C_12
REMARK    2  A    between atoms: C_12  and  C_13
REMARK                            x       y       z     vdW  Elec       q    Type
REMARK                         _______ _______ _______ _____ _____    ______ ____
ROOT
ATOM      1  O   UNL     1      22.838   1.891  14.667  0.00  0.00    +0.000 OA
ATOM      2  C   UNL     1      23.648   2.692  15.210  0.00  0.00    +0.000 A 
ATOM      3  N   UNL     1      24.330   3.612  14.515  0.00  0.00    +0.000 NA
ATOM      4  C   UNL     1      25.206   4.476  15.110  0.00  0.00    +0.000 A 
ATOM      5  S   UNL     1      26.201   5.727  14.530  0.00  0.00    +0.000 S 
ATOM      6  C   UNL     1      26.913   6.217  15.998  0.00  0.00    +0.000 A 
ATOM      7  C   UNL     1      26.349   5.381  16.916  0.00  0.00    +0.000 A 
ATOM      8  C   UNL     1      25.452   4.465  16.450  0.00  0.00    +0.000 A 
ATOM      9  C   UNL     1      24.719   3.484  17.160  0.00  0.00    +0.000 A 
ATOM     10  O   UNL     1      24.843   3.355  18.407  0.00  0.00    +0.000 OA
ATOM     11  N   UNL     1      23.873   2.662  16.526  0.00  0.00    +0.000 N 
ATOM     12  C   UNL     1      26.762   5.532  18.393  0.00  0.00    +0.000 C 
ATOM     13  C   UNL     1      27.555   6.754  18.575  0.00  0.00    +0.000 C 
ATOM     14  C   UNL     1      28.645   6.933  17.538  0.00  0.00    +0.000 C 
ATOM     15  C   UNL     1      27.912   7.294  16.272  0.00  0.00    +0.000 C 
ENDROOT
BRANCH  11  16
ATOM     16  C   UNL     1      23.156   1.680  17.324  0.00  0.00    +0.000 C 
BRANCH  16  17
ATOM     17  C   UNL     1      21.764   2.077  17.593  0.00  0.00    +0.000 A 
ATOM     18  C   UNL     1      20.652   1.308  17.330  0.00  0.00    +0.000 A 
ATOM     19  C   UNL     1      19.549   2.056  17.735  0.00  0.00    +0.000 A 
ATOM     20  C   UNL     1      20.055   3.229  18.218  0.00  0.00    +0.000 A 
ATOM     21  O   UNL     1      21.348   3.185  18.110  0.00  0.00    +0.000 OA
ENDBRANCH  16  17
ENDBRANCH  11  16
TORSDOF 2
ENDMDL
MODEL 6
REMARK VINA RESULT:      -6.1      5.973      7.918
REMARK  Name = 
REMARK  2 active torsions:
REMARK  status: ('A' for Active; 'I' for Inactive)
REMARK    1  A    between atoms: N_11  and  C_12
REMARK    2  A    between atoms: C_12  and  C_13
REMARK                            x       y       z     vdW  Elec       q    Type
REMARK                         _______ _______ _______ _____ _____    ______ ____
ROOT
ATOM      1  O   UNL     1      23.589  26.964  31.428  0.00  0.00    +0.000 OA
ATOM      2  C   UNL     1      24.173  26.269  30.551  0.00  0.00    +0.000 A 
ATOM      3  N   UNL     1      25.109  25.360  30.853  0.00  0.00    +0.000 NA
ATOM      4  C   UNL     1      25.738  24.612  29.898  0.00  0.00    +0.000 A 
ATOM      5  S   UNL     1      26.936  23.407  29.948  0.00  0.00    +0.000 S 
ATOM      6  C   UNL     1      27.066  23.078  28.281  0.00  0.00    +0.000 A 
ATOM      7  C   UNL     1      26.159  23.928  27.721  0.00  0.00    +0.000 A 
ATOM      8  C   UNL     1      25.460  24.735  28.570  0.00  0.00    +0.000 A 
ATOM      9  C   UNL     1      24.468  25.702  28.277  0.00  0.00    +0.000 A 
ATOM     10  O   UNL     1      24.108  25.925  27.092  0.00  0.00    +0.000 OA
ATOM     11  N   UNL     1      23.885  26.408  29.254  0.00  0.00    +0.000 N 
ATOM     12  C   UNL     1      25.993  23.912  26.189  0.00  0.00    +0.000 C 
ATOM     13  C   UNL     1      26.716  22.773  25.612  0.00  0.00    +0.000 C 
ATOM     14  C   UNL     1      28.124  22.609  26.150  0.00  0.00    +0.000 C 
ATOM     15  C   UNL     1      27.939  22.105  27.558  0.00  0.00    +0.000 C 
ENDROOT
BRANCH  11  16
ATOM     16  C   UNL     1      22.874  27.382  28.875  0.00  0.00    +0.000 C 
BRANCH  16  17
ATOM     17  C   UNL     1      21.518  26.810  28.844  0.00  0.00    +0.000 A 
ATOM     18  C   UNL     1      20.778  26.576  27.707  0.00  0.00    +0.000 A 
ATOM     19  C   UNL     1      19.567  26.033  28.127  0.00  0.00    +0.000 A 
ATOM     20  C   UNL     1      19.644  25.968  29.489  0.00  0.00    +0.000 A 
ATOM     21  O   UNL     1      20.800  26.433  29.850  0.00  0.00    +0.000 OA
ENDBRANCH  16  17
ENDBRANCH  11  16
TORSDOF 2
ENDMDL
MODEL 7
REMARK VINA RESULT:      -6.1      3.481      6.836
REMARK  Name = 
REMARK  2 active torsions:
REMARK  status: ('A' for Active; 'I' for Inactive)
REMARK    1  A    between atoms: N_11  and  C_12
REMARK    2  A    between atoms: C_12  and  C_13
REMARK                            x       y       z     vdW  Elec       q    Type
REMARK                         _______ _______ _______ _____ _____    ______ ____
ROOT
ATOM      1  O   UNL     1      25.663  23.618  30.480  0.00  0.00    +0.000 OA
ATOM      2  C   UNL     1      26.165  23.597  29.322  0.00  0.00    +0.000 A 
ATOM      3  N   UNL     1      25.630  24.263  28.290  0.00  0.00    +0.000 NA
ATOM      4  C   UNL     1      26.179  24.237  27.039  0.00  0.00    +0.000 A 
ATOM      5  S   UNL     1      25.759  24.952  25.555  0.00  0.00    +0.000 S 
ATOM      6  C   UNL     1      27.024  24.345  24.588  0.00  0.00    +0.000 A 
ATOM      7  C   UNL     1      27.751  23.589  25.459  0.00  0.00    +0.000 A 
ATOM      8  C   UNL     1      27.308  23.531  26.748  0.00  0.00    +0.000 A 
ATOM      9  C   UNL     1      27.852  22.837  27.855  0.00  0.00    +0.000 A 
ATOM     10  O   UNL     1      28.896  22.142  27.737  0.00  0.00    +0.000 OA
ATOM     11  N   UNL     1      27.272  22.898  29.060  0.00  0.00    +0.000 N 
ATOM     12  C   UNL     1      29.005  22.866  24.930  0.00  0.00    +0.000 C 
ATOM     13  C   UNL     1      29.322  23.330  23.573  0.00  0.00    +0.000 C 
ATOM     14  C   UNL     1      28.120  23.382  22.651  0.00  0.00    +0.000 C 
ATOM     15  C   UNL     1      27.315  24.559  23.139  0.00  0.00    +0.000 C 
ENDROOT
BRANCH  11  16
ATOM     16  C   UNL     1      27.891  22.158  30.149  0.00  0.00    +0.000 C 
BRANCH  16  17
ATOM     17  C   UNL     1      28.984  22.905  30.793  0.00  0.00    +0.000 A 
ATOM     18  C   UNL     1      30.173  22.362  31.224  0.00  0.00    +0.000 A 
ATOM     19  C   UNL     1      30.913  23.410  31.767  0.00  0.00    +0.000 A 
ATOM     20  C   UNL     1      30.131  24.522  31.634  0.00  0.00    +0.000 A 
ATOM     21  O   UNL     1      29.021  24.168  31.061  0.00  0.00    +0.000 OA
ENDBRANCH  16  17
ENDBRANCH  11  16
TORSDOF 2
ENDMDL
MODEL 8
REMARK VINA RESULT:      -6.0     14.310     15.657
REMARK  Name = 
REMARK  2 active torsions:
REMARK  status: ('A' for Active; 'I' for Inactive)
REMARK    1  A    between atoms: N_11  and  C_12
REMARK    2  A    between atoms: C_12  and  C_13
REMARK                            x       y       z     vdW  Elec       q    Type
REMARK                         _______ _______ _______ _____ _____    ______ ____
ROOT
ATOM      1  O   UNL     1      19.716  24.182  35.731  0.00  0.00    +0.000 OA
ATOM      2  C   UNL     1      20.099  23.150  36.348  0.00  0.00    +0.000 A 
ATOM      3  N   UNL     1      21.334  23.024  36.851  0.00  0.00    +0.000 NA
ATOM      4  C   UNL     1      21.741  21.903  37.518  0.00  0.00    +0.000 A 
ATOM      5  S   UNL     1      23.200  21.440  38.258  0.00  0.00    +0.000 S 
ATOM      6  C   UNL     1      22.749  19.894  38.814  0.00  0.00    +0.000 A 
ATOM      7  C   UNL     1      21.455  19.777  38.401  0.00  0.00    +0.000 A 
ATOM      8  C   UNL     1      20.924  20.832  37.720  0.00  0.00    +0.000 A 
ATOM      9  C   UNL     1      19.625  20.991  37.179  0.00  0.00    +0.000 A 
ATOM     10  O   UNL     1      18.760  20.083  37.288  0.00  0.00    +0.000 OA
ATOM     11  N   UNL     1      19.279  22.112  36.534  0.00  0.00    +0.000 N 
ATOM     12  C   UNL     1      20.697  18.476  38.733  0.00  0.00    +0.000 C 
ATOM     13  C   UNL     1      21.479  17.659  39.670  0.00  0.00    +0.000 C 
ATOM     14  C   UNL     1      22.939  17.523  39.288  0.00  0.00    +0.000 C 
ATOM     15  C   UNL     1      23.536  18.877  39.573  0.00  0.00    +0.000 C 
ENDROOT
BRANCH  11  16
ATOM     16  C   UNL     1      17.927  22.201  36.006  0.00  0.00    +0.000 C 
BRANCH  16  17
ATOM     17  C   UNL     1      17.804  21.611  34.663  0.00  0.00    +0.000 A 
ATOM     18  C   UNL     1      16.620  21.404  33.990  0.00  0.00    +0.000 A 
ATOM     19  C   UNL     1      16.956  20.832  32.766  0.00  0.00    +0.000 A 
ATOM     20  C   UNL     1      18.317  20.726  32.768  0.00  0.00    +0.000 A 
ATOM     21  O   UNL     1      18.756  21.194  33.896  0.00  0.00    +0.000 OA
ENDBRANCH  16  17
ENDBRANCH  11  16
TORSDOF 2
ENDMDL
MODEL 9
REMARK VINA RESULT:      -5.9      2.070      2.974
REMARK  Name = 
REMARK  2 active torsions:
REMARK  status: ('A' for Active; 'I' for Inactive)
REMARK    1  A    between atoms: N_11  and  C_12
REMARK    2  A    between atoms: C_12  and  C_13
REMARK                            x       y       z     vdW  Elec       q    Type
REMARK                         _______ _______ _______ _____ _____    ______ ____
ROOT
ATOM      1  O   UNL     1      24.564  24.559  26.731  0.00  0.00    +0.000 OA
ATOM      2  C   UNL     1      25.720  24.166  27.047  0.00  0.00    +0.000 A 
ATOM      3  N   UNL     1      26.282  24.449  28.230  0.00  0.00    +0.000 NA
ATOM      4  C   UNL     1      27.535  24.019  28.566  0.00  0.00    +0.000 A 
ATOM      5  S   UNL     1      28.510  24.201  29.947  0.00  0.00    +0.000 S 
ATOM      6  C   UNL     1      29.880  23.326  29.435  0.00  0.00    +0.000 A 
ATOM      7  C   UNL     1      29.537  22.910  28.183  0.00  0.00    +0.000 A 
ATOM      8  C   UNL     1      28.305  23.273  27.725  0.00  0.00    +0.000 A 
ATOM      9  C   UNL     1      27.688  22.988  26.482  0.00  0.00    +0.000 A 
ATOM     10  O   UNL     1      28.280  22.308  25.603  0.00  0.00    +0.000 OA
ATOM     11  N   UNL     1      26.457  23.436  26.206  0.00  0.00    +0.000 N 
ATOM     12  C   UNL     1      30.555  22.068  27.388  0.00  0.00    +0.000 C 
ATOM     13  C   UNL     1      31.667  21.665  28.258  0.00  0.00    +0.000 C 
ATOM     14  C   UNL     1      32.222  22.795  29.100  0.00  0.00    +0.000 C 
ATOM     15  C   UNL     1      31.165  23.049  30.144  0.00  0.00    +0.000 C 
ENDROOT
BRANCH  11  16
ATOM     16  C   UNL     1      25.890  23.102  24.909  0.00  0.00    +0.000 C 
BRANCH  16  17
ATOM     17  C   UNL     1      26.552  23.811  23.802  0.00  0.00    +0.000 A 
ATOM     18  C   UNL     1      26.797  25.165  23.757  0.00  0.00    +0.000 A 
ATOM     19  C   UNL     1      27.435  25.413  22.545  0.00  0.00    +0.000 A 
ATOM     20  C   UNL     1      27.541  24.199  21.928  0.00  0.00    +0.000 A 
ATOM     21  O   UNL     1      27.011  23.305  22.705  0.00  0.00    +0.000 OA
ENDBRANCH  16  17
ENDBRANCH  11  16
TORSDOF 2
ENDMDL
MODEL 10
REMARK VINA RESULT:      -5.8     25.739     28.014
REMARK  Name = 
REMARK  2 active torsions:
REMARK  status: ('A' for Active; 'I' for Inactive)
REMARK    1  A    between atoms: N_11  and  C_12
REMARK    2  A    between atoms: C_12  and  C_13
REMARK                            x       y       z     vdW  Elec       q    Type
REMARK                         _______ _______ _______ _____ _____    ______ ____
ROOT
ATOM      1  O   UNL     1      33.580  -2.874  38.247  0.00  0.00    +0.000 OA
ATOM      2  C   UNL     1      33.600  -1.904  37.440  0.00  0.00    +0.000 A 
ATOM      3  N   UNL     1      33.856  -0.647  37.825  0.00  0.00    +0.000 NA
ATOM      4  C   UNL     1      33.875   0.398  36.945  0.00  0.00    +0.000 A 
ATOM      5  S   UNL     1      34.160   2.067  37.107  0.00  0.00    +0.000 S 
ATOM      6  C   UNL     1      33.970   2.538  35.481  0.00  0.00    +0.000 A 
ATOM      7  C   UNL     1      33.685   1.366  34.845  0.00  0.00    +0.000 A 
ATOM      8  C   UNL     1      33.636   0.241  35.613  0.00  0.00    +0.000 A 
ATOM      9  C   UNL     1      33.368  -1.097  35.232  0.00  0.00    +0.000 A 
ATOM     10  O   UNL     1      33.127  -1.395  34.033  0.00  0.00    +0.000 OA
ATOM     11  N   UNL     1      33.361  -2.083  36.137  0.00  0.00    +0.000 N 
ATOM     12  C   UNL     1      33.446   1.400  33.322  0.00  0.00    +0.000 C 
ATOM     13  C   UNL     1      33.807   2.717  32.782  0.00  0.00    +0.000 C 
ATOM     14  C   UNL     1      33.258   3.877  33.588  0.00  0.00    +0.000 C 
ATOM     15  C   UNL     1      34.081   3.888  34.851  0.00  0.00    +0.000 C 
ENDROOT
BRANCH  11  16
ATOM     16  C   UNL     1      33.077  -3.431  35.670  0.00  0.00    +0.000 C 
BRANCH  16  17
ATOM     17  C   UNL     1      34.297  -4.176  35.317  0.00  0.00    +0.000 A 
ATOM     18  C   UNL     1      34.363  -5.214  34.415  0.00  0.00    +0.000 A 
ATOM     19  C   UNL     1      35.692  -5.627  34.383  0.00  0.00    +0.000 A 
ATOM     20  C   UNL     1      36.352  -4.818  35.263  0.00  0.00    +0.000 A 
ATOM     21  O   UNL     1      35.491  -3.994  35.777  0.00  0.00    +0.000 OA
ENDBRANCH  16  17
ENDBRANCH  11  16
TORSDOF 2
ENDMDL
