MODEL 1
REMARK VINA RESULT:      -6.1      0.000      0.000
REMARK  Name = 
REMARK  4 active torsions:
REMARK  status: ('A' for Active; 'I' for Inactive)
REMARK    1  A    between atoms: N_3  and  C_4
REMARK    2  A    between atoms: C_4  and  C_5
REMARK    3  A    between atoms: N_13  and  C_14
REMARK    4  A    between atoms: C_14  and  C_15
REMARK                            x       y       z     vdW  Elec       q    Type
REMARK                         _______ _______ _______ _____ _____    ______ ____
ROOT
ATOM      1  N   UNL     1      28.749  27.999  21.960  0.00  0.00    +0.000 NA
ATOM      2  C   UNL     1      29.126  26.806  21.276  0.00  0.00    +0.000 A 
ATOM      3  N   UNL     1      29.667  26.749  20.045  0.00  0.00    +0.000 N 
ATOM      4  N   UNL     1      29.854  25.460  19.809  0.00  0.00    +0.000 NA
ATOM      5  N   UNL     1      29.446  24.751  20.848  0.00  0.00    +0.000 NA
ATOM      6  N   UNL     1      28.986  25.580  21.779  0.00  0.00    +0.000 N 
ENDROOT
BRANCH   3   7
ATOM      7  C   UNL     1      29.958  27.887  19.210  0.00  0.00    +0.000 C 
BRANCH   7   8
ATOM      8  C   UNL     1      31.009  27.585  18.185  0.00  0.00    +0.000 C 
ATOM      9  C   UNL     1      30.386  27.336  16.829  0.00  0.00    +0.000 C 
ATOM     10  C   UNL     1      30.976  28.245  15.771  0.00  0.00    +0.000 C 
ATOM     11  C   UNL     1      30.669  29.673  16.212  0.00  0.00    +0.000 C 
ATOM     12  C   UNL     1      31.449  29.948  17.458  0.00  0.00    +0.000 C 
ATOM     13  C   UNL     1      31.971  28.735  18.143  0.00  0.00    +0.000 C 
ENDBRANCH   7   8
ENDBRANCH   3   7
BRANCH   6  14
ATOM     14  C   UNL     1      28.443  25.179  23.082  0.00  0.00    +0.000 C 
BRANCH  14  15
ATOM     15  C   UNL     1      29.492  24.379  23.787  0.00  0.00    +0.000 A 
ATOM     16  C   UNL     1      29.373  23.053  24.052  0.00  0.00    +0.000 A 
ATOM     17  C   UNL     1      30.378  22.373  24.706  0.00  0.00    +0.000 A 
ATOM     18  C   UNL     1      31.516  23.046  25.097  0.00  0.00    +0.000 A 
ATOM     19  C   UNL     1      31.638  24.390  24.829  0.00  0.00    +0.000 A 
ATOM     20  C   UNL     1      30.626  25.060  24.173  0.00  0.00    +0.000 A 
ENDBRANCH  14  15
ENDBRANCH   6  14
TORSDOF 4
ENDMDL
MODEL 2
REMARK VINA RESULT:      -6.1      1.239      7.266
REMARK  Name = 
REMARK  4 active torsions:
REMARK  status: ('A' for Active; 'I' for Inactive)
REMARK    1  A    between atoms: N_3  and  C_4
REMARK    2  A    between atoms: C_4  and  C_5
REMARK    3  A    between atoms: N_13  and  C_14
REMARK    4  A    between atoms: C_14  and  C_15
REMARK                            x       y       z     vdW  Elec       q    Type
REMARK                         _______ _______ _______ _____ _____    ______ ____
ROOT
ATOM      1  N   UNL     1      28.954  27.760  22.466  0.00  0.00    +0.000 NA
ATOM      2  C   UNL     1      29.272  26.647  21.633  0.00  0.00    +0.000 A 
ATOM      3  N   UNL     1      29.540  25.401  22.062  0.00  0.00    +0.000 N 
ATOM      4  N   UNL     1      29.779  24.700  20.964  0.00  0.00    +0.000 NA
ATOM      5  N   UNL     1      29.664  25.481  19.903  0.00  0.00    +0.000 NA
ATOM      6  N   UNL     1      29.346  26.707  20.304  0.00  0.00    +0.000 N 
ENDROOT
BRANCH   3   7
ATOM      7  C   UNL     1      29.549  24.979  23.440  0.00  0.00    +0.000 C 
BRANCH   7   8
ATOM      8  C   UNL     1      29.645  23.490  23.577  0.00  0.00    +0.000 C 
ATOM      9  C   UNL     1      30.781  23.104  24.500  0.00  0.00    +0.000 C 
ATOM     10  C   UNL     1      30.301  22.217  25.630  0.00  0.00    +0.000 C 
ATOM     11  C   UNL     1      29.273  23.032  26.409  0.00  0.00    +0.000 C 
ATOM     12  C   UNL     1      28.084  23.237  25.527  0.00  0.00    +0.000 C 
ATOM     13  C   UNL     1      28.331  22.977  24.083  0.00  0.00    +0.000 C 
ENDBRANCH   7   8
ENDBRANCH   3   7
BRANCH   6  14
ATOM     14  C   UNL     1      29.130  27.861  19.423  0.00  0.00    +0.000 C 
BRANCH  14  15
ATOM     15  C   UNL     1      30.471  28.357  18.983  0.00  0.00    +0.000 A 
ATOM     16  C   UNL     1      31.287  27.670  18.143  0.00  0.00    +0.000 A 
ATOM     17  C   UNL     1      32.513  28.184  17.777  0.00  0.00    +0.000 A 
ATOM     18  C   UNL     1      32.916  29.407  18.268  0.00  0.00    +0.000 A 
ATOM     19  C   UNL     1      32.090  30.104  19.121  0.00  0.00    +0.000 A 
ATOM     20  C   UNL     1      30.865  29.580  19.481  0.00  0.00    +0.000 A 
ENDBRANCH  14  15
ENDBRANCH   6  14
TORSDOF 4
ENDMDL
MODEL 3
REMARK VINA RESULT:      -6.1      9.103     11.660
REMARK  Name = 
REMARK  4 active torsions:
REMARK  status: ('A' for Active; 'I' for Inactive)
REMARK    1  A    between atoms: N_3  and  C_4
REMARK    2  A    between atoms: C_4  and  C_5
REMARK    3  A    between atoms: N_13  and  C_14
REMARK    4  A    between atoms: C_14  and  C_15
REMARK                            x       y       z     vdW  Elec       q    Type
REMARK                         _______ _______ _______ _____ _____    ______ ____
ROOT
ATOM      1  N   UNL     1      31.890  22.319   9.556  0.00  0.00    +0.000 NA
ATOM      2  C   UNL     1      31.687  21.676  10.812  0.00  0.00    +0.000 A 
ATOM      3  N   UNL     1      32.655  21.176  11.600  0.00  0.00    +0.000 N 
ATOM      4  N   UNL     1      32.023  20.677  12.651  0.00  0.00    +0.000 NA
ATOM      5  N   UNL     1      30.720  20.860  12.517  0.00  0.00    +0.000 NA
ATOM      6  N   UNL     1      30.491  21.486  11.368  0.00  0.00    +0.000 N 
ENDROOT
BRANCH   3   7
ATOM      7  C   UNL     1      34.066  21.209  11.308  0.00  0.00    +0.000 C 
BRANCH   7   8
ATOM      8  C   UNL     1      34.659  19.835  11.216  0.00  0.00    +0.000 C 
ATOM      9  C   UNL     1      35.450  19.672   9.936  0.00  0.00    +0.000 C 
ATOM     10  C   UNL     1      36.870  19.225  10.214  0.00  0.00    +0.000 C 
ATOM     11  C   UNL     1      37.506  20.320  11.065  0.00  0.00    +0.000 C 
ATOM     12  C   UNL     1      36.820  20.329  12.393  0.00  0.00    +0.000 C 
ATOM     13  C   UNL     1      35.518  19.611  12.423  0.00  0.00    +0.000 C 
ENDBRANCH   7   8
ENDBRANCH   3   7
BRANCH   6  14
ATOM     14  C   UNL     1      29.169  21.869  10.857  0.00  0.00    +0.000 C 
BRANCH  14  15
ATOM     15  C   UNL     1      28.492  22.687  11.911  0.00  0.00    +0.000 A 
ATOM     16  C   UNL     1      27.153  22.664  12.134  0.00  0.00    +0.000 A 
ATOM     17  C   UNL     1      26.591  23.444  13.122  0.00  0.00    +0.000 A 
ATOM     18  C   UNL     1      27.396  24.255  13.893  0.00  0.00    +0.000 A 
ATOM     19  C   UNL     1      28.753  24.279  13.668  0.00  0.00    +0.000 A 
ATOM     20  C   UNL     1      29.305  23.495  12.676  0.00  0.00    +0.000 A 
ENDBRANCH  14  15
ENDBRANCH   6  14
TORSDOF 4
ENDMDL
MODEL 4
REMARK VINA RESULT:      -5.9     23.543     25.262
REMARK  Name = 
REMARK  4 active torsions:
REMARK  status: ('A' for Active; 'I' for Inactive)
REMARK    1  A    between atoms: N_3  and  C_4
REMARK    2  A    between atoms: C_4  and  C_5
REMARK    3  A    between atoms: N_13  and  C_14
REMARK    4  A    between atoms: C_14  and  C_15
REMARK                            x       y       z     vdW  Elec       q    Type
REMARK                         _______ _______ _______ _____ _____    ______ ____
ROOT
ATOM      1  N   UNL     1      19.161   9.004  38.373  0.00  0.00    +0.000 NA
ATOM      2  C   UNL     1      19.299  10.408  38.166  0.00  0.00    +0.000 A 
ATOM      3  N   UNL     1      20.438  11.110  38.304  0.00  0.00    +0.000 N 
ATOM      4  N   UNL     1      20.111  12.360  38.018  0.00  0.00    +0.000 NA
ATOM      5  N   UNL     1      18.825  12.428  37.717  0.00  0.00    +0.000 NA
ATOM      6  N   UNL     1      18.299  11.211  37.804  0.00  0.00    +0.000 N 
ENDROOT
BRANCH   3   7
ATOM      7  C   UNL     1      21.715  10.559  38.684  0.00  0.00    +0.000 C 
BRANCH   7   8
ATOM      8  C   UNL     1      22.256   9.616  37.652  0.00  0.00    +0.000 C 
ATOM      9  C   UNL     1      22.619  10.355  36.382  0.00  0.00    +0.000 C 
ATOM     10  C   UNL     1      24.057  10.102  35.984  0.00  0.00    +0.000 C 
ATOM     11  C   UNL     1      24.919  10.619  37.131  0.00  0.00    +0.000 C 
ATOM     12  C   UNL     1      24.672   9.748  38.321  0.00  0.00    +0.000 C 
ATOM     13  C   UNL     1      23.445   8.912  38.234  0.00  0.00    +0.000 C 
ENDBRANCH   7   8
ENDBRANCH   3   7
BRANCH   6  14
ATOM     14  C   UNL     1      16.895  10.870  37.546  0.00  0.00    +0.000 C 
BRANCH  14  15
ATOM     15  C   UNL     1      16.678  10.922  36.066  0.00  0.00    +0.000 A 
ATOM     16  C   UNL     1      17.436  10.237  35.172  0.00  0.00    +0.000 A 
ATOM     17  C   UNL     1      17.183  10.328  33.820  0.00  0.00    +0.000 A 
ATOM     18  C   UNL     1      16.150  11.124  33.370  0.00  0.00    +0.000 A 
ATOM     19  C   UNL     1      15.382  11.819  34.276  0.00  0.00    +0.000 A 
ATOM     20  C   UNL     1      15.644  11.720  35.627  0.00  0.00    +0.000 A 
ENDBRANCH  14  15
ENDBRANCH   6  14
TORSDOF 4
ENDMDL
MODEL 5
REMARK VINA RESULT:      -5.9     21.801     24.241
REMARK  Name = 
REMARK  4 active torsions:
REMARK  status: ('A' for Active; 'I' for Inactive)
REMARK    1  A    between atoms: N_3  and  C_4
REMARK    2  A    between atoms: C_4  and  C_5
REMARK    3  A    between atoms: N_13  and  C_14
REMARK    4  A    between atoms: C_14  and  C_15
REMARK                            x       y       z     vdW  Elec       q    Type
REMARK                         _______ _______ _______ _____ _____    ______ ____
ROOT
ATOM      1  N   UNL     1      25.074   1.686  16.631  0.00  0.00    +0.000 NA
ATOM      2  C   UNL     1      24.264   2.607  17.359  0.00  0.00    +0.000 A 
ATOM      3  N   UNL     1      24.645   3.832  17.764  0.00  0.00    +0.000 N 
ATOM      4  N   UNL     1      23.594   4.330  18.396  0.00  0.00    +0.000 NA
ATOM      5  N   UNL     1      22.606   3.450  18.382  0.00  0.00    +0.000 NA
ATOM      6  N   UNL     1      23.010   2.362  17.735  0.00  0.00    +0.000 N 
ENDROOT
BRANCH   3   7
ATOM      7  C   UNL     1      25.938   4.422  17.527  0.00  0.00    +0.000 C 
BRANCH   7   8
ATOM      8  C   UNL     1      26.083   5.757  18.193  0.00  0.00    +0.000 C 
ATOM      9  C   UNL     1      27.426   5.876  18.880  0.00  0.00    +0.000 C 
ATOM     10  C   UNL     1      28.185   7.098  18.409  0.00  0.00    +0.000 C 
ATOM     11  C   UNL     1      28.400   6.919  16.909  0.00  0.00    +0.000 C 
ATOM     12  C   UNL     1      27.065   6.993  16.240  0.00  0.00    +0.000 C 
ATOM     13  C   UNL     1      25.904   6.823  17.154  0.00  0.00    +0.000 C 
ENDBRANCH   7   8
ENDBRANCH   3   7
BRANCH   6  14
ATOM     14  C   UNL     1      22.200   1.159  17.507  0.00  0.00    +0.000 C 
BRANCH  14  15
ATOM     15  C   UNL     1      21.041   1.546  16.643  0.00  0.00    +0.000 A 
ATOM     16  C   UNL     1      21.176   2.112  15.417  0.00  0.00    +0.000 A 
ATOM     17  C   UNL     1      20.065   2.446  14.670  0.00  0.00    +0.000 A 
ATOM     18  C   UNL     1      18.806   2.201  15.174  0.00  0.00    +0.000 A 
ATOM     19  C   UNL     1      18.668   1.627  16.417  0.00  0.00    +0.000 A 
ATOM     20  C   UNL     1      19.786   1.298  17.155  0.00  0.00    +0.000 A 
ENDBRANCH  14  15
ENDBRANCH   6  14
TORSDOF 4
ENDMDL
MODEL 6
REMARK VINA RESULT:      -5.8      2.548      3.599
REMARK  Name = 
REMARK  4 active torsions:
REMARK  status: ('A' for Active; 'I' for Inactive)
REMARK    1  A    between atoms: N_3  and  C_4
REMARK    2  A    between atoms: C_4  and  C_5
REMARK    3  A    between atoms: N_13  and  C_14
REMARK    4  A    between atoms: C_14  and  C_15
REMARK                            x       y       z     vdW  Elec       q    Type
REMARK                         _______ _______ _______ _____ _____    ______ ____
ROOT
ATOM      1  N   UNL     1      27.305  25.985  24.553  0.00  0.00    +0.000 NA
ATOM      2  C   UNL     1      27.109  24.943  23.600  0.00  0.00    +0.000 A 
ATOM      3  N   UNL     1      27.171  25.085  22.263  0.00  0.00    +0.000 N 
ATOM      4  N   UNL     1      26.927  23.878  21.775  0.00  0.00    +0.000 NA
ATOM      5  N   UNL     1      26.723  23.028  22.768  0.00  0.00    +0.000 NA
ATOM      6  N   UNL     1      26.833  23.680  23.921  0.00  0.00    +0.000 N 
ENDROOT
BRANCH   3   7
ATOM      7  C   UNL     1      27.449  26.317  21.569  0.00  0.00    +0.000 C 
BRANCH   7   8
ATOM      8  C   UNL     1      28.919  26.601  21.485  0.00  0.00    +0.000 C 
ATOM      9  C   UNL     1      29.478  26.170  20.147  0.00  0.00    +0.000 C 
ATOM     10  C   UNL     1      30.190  27.309  19.449  0.00  0.00    +0.000 C 
ATOM     11  C   UNL     1      29.146  28.400  19.231  0.00  0.00    +0.000 C 
ATOM     12  C   UNL     1      28.751  28.933  20.571  0.00  0.00    +0.000 C 
ATOM     13  C   UNL     1      29.129  28.067  21.719  0.00  0.00    +0.000 C 
ENDBRANCH   7   8
ENDBRANCH   3   7
BRANCH   6  14
ATOM     14  C   UNL     1      26.674  23.084  25.253  0.00  0.00    +0.000 C 
BRANCH  14  15
ATOM     15  C   UNL     1      28.040  22.795  25.790  0.00  0.00    +0.000 A 
ATOM     16  C   UNL     1      29.147  22.697  25.010  0.00  0.00    +0.000 A 
ATOM     17  C   UNL     1      30.379  22.428  25.568  0.00  0.00    +0.000 A 
ATOM     18  C   UNL     1      30.489  22.257  26.932  0.00  0.00    +0.000 A 
ATOM     19  C   UNL     1      29.367  22.357  27.723  0.00  0.00    +0.000 A 
ATOM     20  C   UNL     1      28.139  22.626  27.153  0.00  0.00    +0.000 A 
ENDBRANCH  14  15
ENDBRANCH   6  14
TORSDOF 4
ENDMDL
MODEL 7
REMARK VINA RESULT:      -5.7     35.359     38.851
REMARK  Name = 
REMARK  4 active torsions:
REMARK  status: ('A' for Active; 'I' for Inactive)
REMARK    1  A    between atoms: N_3  and  C_4
REMARK    2  A    between atoms: C_4  and  C_5
REMARK    3  A    between atoms: N_13  and  C_14
REMARK    4  A    between atoms: C_14  and  C_15
REMARK                            x       y       z     vdW  Elec       q    Type
REMARK                         _______ _______ _______ _____ _____    ______ ____
ROOT
ATOM      1  N   UNL     1      15.147 -10.666  27.517  0.00  0.00    +0.000 NA
ATOM      2  C   UNL     1      15.201  -9.712  26.459  0.00  0.00    +0.000 A 
ATOM      3  N   UNL     1      14.177  -9.382  25.651  0.00  0.00    +0.000 N 
ATOM      4  N   UNL     1      14.666  -8.470  24.825  0.00  0.00    +0.000 NA
ATOM      5  N   UNL     1      15.939  -8.248  25.110  0.00  0.00    +0.000 NA
ATOM      6  N   UNL     1      16.291  -9.019  26.133  0.00  0.00    +0.000 N 
ENDROOT
BRANCH   3   7
ATOM      7  C   UNL     1      12.849  -9.938  25.721  0.00  0.00    +0.000 C 
BRANCH   7   8
ATOM      8  C   UNL     1      11.861  -8.976  26.310  0.00  0.00    +0.000 C 
ATOM      9  C   UNL     1      10.540  -9.039  25.575  0.00  0.00    +0.000 C 
ATOM     10  C   UNL     1       9.390  -9.313  26.521  0.00  0.00    +0.000 C 
ATOM     11  C   UNL     1       9.675 -10.667  27.163  0.00  0.00    +0.000 C 
ATOM     12  C   UNL     1      10.883 -10.520  28.032  0.00  0.00    +0.000 C 
ATOM     13  C   UNL     1      11.694  -9.302  27.764  0.00  0.00    +0.000 C 
ENDBRANCH   7   8
ENDBRANCH   3   7
BRANCH   6  14
ATOM     14  C   UNL     1      17.624  -9.063  26.746  0.00  0.00    +0.000 C 
BRANCH  14  15
ATOM     15  C   UNL     1      18.234  -7.703  26.608  0.00  0.00    +0.000 A 
ATOM     16  C   UNL     1      17.703  -6.583  27.162  0.00  0.00    +0.000 A 
ATOM     17  C   UNL     1      18.316  -5.359  26.998  0.00  0.00    +0.000 A 
ATOM     18  C   UNL     1      19.479  -5.270  26.264  0.00  0.00    +0.000 A 
ATOM     19  C   UNL     1      20.019  -6.405  25.702  0.00  0.00    +0.000 A 
ATOM     20  C   UNL     1      19.397  -7.625  25.873  0.00  0.00    +0.000 A 
ENDBRANCH  14  15
ENDBRANCH   6  14
TORSDOF 4
ENDMDL
MODEL 8
REMARK VINA RESULT:      -5.6     35.009     37.405
REMARK  Name = 
REMARK  4 active torsions:
REMARK  status: ('A' for Active; 'I' for Inactive)
REMARK    1  A    between atoms: N_3  and  C_4
REMARK    2  A    between atoms: C_4  and  C_5
REMARK    3  A    between atoms: N_13  and  C_14
REMARK    4  A    between atoms: C_14  and  C_15
REMARK                            x       y       z     vdW  Elec       q    Type
REMARK                         _______ _______ _______ _____ _____    ______ ____
ROOT
ATOM      1  N   UNL     1      17.128  -9.607  23.715  0.00  0.00    +0.000 NA
ATOM      2  C   UNL     1      16.027  -9.039  24.420  0.00  0.00    +0.000 A 
ATOM      3  N   UNL     1      14.816  -8.775  23.896  0.00  0.00    +0.000 N 
ATOM      4  N   UNL     1      14.113  -8.259  24.892  0.00  0.00    +0.000 NA
ATOM      5  N   UNL     1      14.858  -8.206  25.984  0.00  0.00    +0.000 NA
ATOM      6  N   UNL     1      16.063  -8.692  25.706  0.00  0.00    +0.000 N 
ENDROOT
BRANCH   3   7
ATOM      7  C   UNL     1      14.427  -9.025  22.531  0.00  0.00    +0.000 C 
BRANCH   7   8
ATOM      8  C   UNL     1      13.790  -7.828  21.894  0.00  0.00    +0.000 C 
ATOM      9  C   UNL     1      14.420  -7.530  20.551  0.00  0.00    +0.000 C 
ATOM     10  C   UNL     1      13.382  -7.475  19.450  0.00  0.00    +0.000 C 
ATOM     11  C   UNL     1      12.728  -8.853  19.406  0.00  0.00    +0.000 C 
ATOM     12  C   UNL     1      11.959  -9.038  20.675  0.00  0.00    +0.000 C 
ATOM     13  C   UNL     1      12.320  -8.090  21.763  0.00  0.00    +0.000 C 
ENDBRANCH   7   8
ENDBRANCH   3   7
BRANCH   6  14
ATOM     14  C   UNL     1      17.175  -8.803  26.656  0.00  0.00    +0.000 C 
BRANCH  14  15
ATOM     15  C   UNL     1      18.074  -7.625  26.447  0.00  0.00    +0.000 A 
ATOM     16  C   UNL     1      19.252  -7.691  25.775  0.00  0.00    +0.000 A 
ATOM     17  C   UNL     1      20.035  -6.567  25.617  0.00  0.00    +0.000 A 
ATOM     18  C   UNL     1      19.618  -5.364  26.145  0.00  0.00    +0.000 A 
ATOM     19  C   UNL     1      18.424  -5.296  26.826  0.00  0.00    +0.000 A 
ATOM     20  C   UNL     1      17.649  -6.427  26.979  0.00  0.00    +0.000 A 
ENDBRANCH  14  15
ENDBRANCH   6  14
TORSDOF 4
ENDMDL
MODEL 9
REMARK VINA RESULT:      -5.6     18.596     20.876
REMARK  Name = 
REMARK  4 active torsions:
REMARK  status: ('A' for Active; 'I' for Inactive)
REMARK    1  A    between atoms: N_3  and  C_4
REMARK    2  A    between atoms: C_4  and  C_5
REMARK    3  A    between atoms: N_13  and  C_14
REMARK    4  A    between atoms: C_14  and  C_15
REMARK                            x       y       z     vdW  Elec       q    Type
REMARK                         _______ _______ _______ _____ _____    ______ ____
ROOT
ATOM      1  N   UNL     1      21.597  22.047  36.518  0.00  0.00    +0.000 NA
ATOM      2  C   UNL     1      20.493  21.324  37.058  0.00  0.00    +0.000 A 
ATOM      3  N   UNL     1      20.574  20.345  37.978  0.00  0.00    +0.000 N 
ATOM      4  N   UNL     1      19.325  19.960  38.185  0.00  0.00    +0.000 NA
ATOM      5  N   UNL     1      18.507  20.669  37.425  0.00  0.00    +0.000 NA
ATOM      6  N   UNL     1      19.224  21.530  36.711  0.00  0.00    +0.000 N 
ENDROOT
BRANCH   3   7
ATOM      7  C   UNL     1      21.795  19.864  38.575  0.00  0.00    +0.000 C 
BRANCH   7   8
ATOM      8  C   UNL     1      22.302  18.622  37.907  0.00  0.00    +0.000 C 
ATOM      9  C   UNL     1      23.791  18.460  38.124  0.00  0.00    +0.000 C 
ATOM     10  C   UNL     1      24.121  17.116  38.736  0.00  0.00    +0.000 C 
ATOM     11  C   UNL     1      23.407  17.070  40.084  0.00  0.00    +0.000 C 
ATOM     12  C   UNL     1      21.935  17.043  39.824  0.00  0.00    +0.000 C 
ATOM     13  C   UNL     1      21.540  17.450  38.449  0.00  0.00    +0.000 C 
ENDBRANCH   7   8
ENDBRANCH   3   7
BRANCH   6  14
ATOM     14  C   UNL     1      18.680  22.495  35.747  0.00  0.00    +0.000 C 
BRANCH  14  15
ATOM     15  C   UNL     1      18.025  21.721  34.647  0.00  0.00    +0.000 A 
ATOM     16  C   UNL     1      18.685  20.837  33.855  0.00  0.00    +0.000 A 
ATOM     17  C   UNL     1      18.022  20.155  32.857  0.00  0.00    +0.000 A 
ATOM     18  C   UNL     1      16.675  20.372  32.660  0.00  0.00    +0.000 A 
ATOM     19  C   UNL     1      16.005  21.267  33.462  0.00  0.00    +0.000 A 
ATOM     20  C   UNL     1      16.679  21.944  34.458  0.00  0.00    +0.000 A 
ENDBRANCH  14  15
ENDBRANCH   6  14
TORSDOF 4
ENDMDL
MODEL 10
REMARK VINA RESULT:      -5.5      2.175      6.982
REMARK  Name = 
REMARK  4 active torsions:
REMARK  status: ('A' for Active; 'I' for Inactive)
REMARK    1  A    between atoms: N_3  and  C_4
REMARK    2  A    between atoms: C_4  and  C_5
REMARK    3  A    between atoms: N_13  and  C_14
REMARK    4  A    between atoms: C_14  and  C_15
REMARK                            x       y       z     vdW  Elec       q    Type
REMARK                         _______ _______ _______ _____ _____    ______ ____
ROOT
ATOM      1  N   UNL     1      29.108  28.775  21.240  0.00  0.00    +0.000 NA
ATOM      2  C   UNL     1      29.465  27.602  20.512  0.00  0.00    +0.000 A 
ATOM      3  N   UNL     1      29.389  26.341  20.976  0.00  0.00    +0.000 N 
ATOM      4  N   UNL     1      29.815  25.580  19.980  0.00  0.00    +0.000 NA
ATOM      5  N   UNL     1      30.139  26.338  18.946  0.00  0.00    +0.000 NA
ATOM      6  N   UNL     1      29.926  27.610  19.262  0.00  0.00    +0.000 N 
ENDROOT
BRANCH   3   7
ATOM      7  C   UNL     1      28.932  25.963  22.290  0.00  0.00    +0.000 C 
BRANCH   7   8
ATOM      8  C   UNL     1      27.462  25.673  22.317  0.00  0.00    +0.000 C 
ATOM      9  C   UNL     1      27.189  24.228  21.957  0.00  0.00    +0.000 C 
ATOM     10  C   UNL     1      26.375  23.533  23.026  0.00  0.00    +0.000 C 
ATOM     11  C   UNL     1      27.208  23.586  24.303  0.00  0.00    +0.000 C 
ATOM     12  C   UNL     1      27.301  25.014  24.734  0.00  0.00    +0.000 C 
ATOM     13  C   UNL     1      26.941  26.003  23.683  0.00  0.00    +0.000 C 
ENDBRANCH   7   8
ENDBRANCH   3   7
BRANCH   6  14
ATOM     14  C   UNL     1      30.166  28.758  18.379  0.00  0.00    +0.000 C 
BRANCH  14  15
ATOM     15  C   UNL     1      31.637  29.028  18.370  0.00  0.00    +0.000 A 
ATOM     16  C   UNL     1      32.526  28.316  17.630  0.00  0.00    +0.000 A 
ATOM     17  C   UNL     1      33.871  28.616  17.667  0.00  0.00    +0.000 A 
ATOM     18  C   UNL     1      34.319  29.648  18.463  0.00  0.00    +0.000 A 
ATOM     19  C   UNL     1      33.420  30.370  19.213  0.00  0.00    +0.000 A 
ATOM     20  C   UNL     1      32.075  30.061  19.169  0.00  0.00    +0.000 A 
ENDBRANCH  14  15
ENDBRANCH   6  14
TORSDOF 4
ENDMDL
