MODEL 1
REMARK VINA RESULT:      -8.0      0.000      0.000
REMARK  Name = 
REMARK  7 active torsions:
REMARK  status: ('A' for Active; 'I' for Inactive)
REMARK    1  A    between atoms: C_7  and  N_8
REMARK    2  A    between atoms: C_9  and  C_11
REMARK    3  A    between atoms: C_11  and  C_12
REMARK    4  A    between atoms: C_11  and  C_19
REMARK    5  A    between atoms: C_12  and  C_13
REMARK    6  A    between atoms: C_19  and  C_20
REMARK    7  A    between atoms: C_26  and  C_27
REMARK                            x       y       z     vdW  Elec       q    Type
REMARK                         _______ _______ _______ _____ _____    ______ ____
ROOT
ATOM      1  N   UNL     1      37.996   4.950  16.493  0.00  0.00    +0.000 NA
ATOM      2  C   UNL     1      38.556   5.090  17.790  0.00  0.00    +0.000 C 
ATOM      3  O   UNL     1      38.641   4.064  18.508  0.00  0.00    +0.000 OA
ENDROOT
BRANCH   1  10
ATOM      4  C   UNL     1      37.812  -1.908  13.827  0.00  0.00    +0.000 C 
ATOM      5  C   UNL     1      38.174  -0.783  14.999  0.00  0.00    +0.000 C 
ATOM      6  C   UNL     1      36.746  -1.005  15.757  0.00  0.00    +0.000 C 
ATOM      7  C   UNL     1      35.770   0.013  15.442  0.00  0.00    +0.000 C 
ATOM      8  C   UNL     1      36.384   1.354  15.720  0.00  0.00    +0.000 A 
ATOM      9  S   UNL     1      36.227   2.743  16.680  0.00  0.00    +0.000 S 
ATOM     10  C   UNL     1      37.559   3.636  16.081  0.00  0.00    +0.000 A 
ATOM     11  C   UNL     1      38.097   2.805  15.130  0.00  0.00    +0.000 A 
ATOM     12  C   UNL     1      37.469   1.613  14.953  0.00  0.00    +0.000 A 
ATOM     13  C   UNL     1      37.771   0.470  14.018  0.00  0.00    +0.000 C 
BRANCH  11  14
ATOM     14  C   UNL     1      39.291   3.263  14.390  0.00  0.00    +0.000 C 
ATOM     15  N   UNL     1      40.214   3.628  13.792  0.00  0.00    +0.000 NA
ENDBRANCH  11  14
ENDBRANCH   1  10
BRANCH   2  16
ATOM     16  C   UNL     1      39.030   6.381  18.305  0.00  0.00    +0.000 C 
BRANCH  16  17
ATOM     17  C   UNL     1      39.795   6.144  19.569  0.00  0.00    +0.000 C 
BRANCH  17  18
ATOM     18  C   UNL     1      41.219   6.408  19.306  0.00  0.00    +0.000 A 
ATOM     19  C   UNL     1      41.644   6.517  18.006  0.00  0.00    +0.000 A 
ATOM     20  C   UNL     1      42.973   6.763  17.766  0.00  0.00    +0.000 A 
ATOM     21  C   UNL     1      43.833   6.891  18.829  0.00  0.00    +0.000 A 
ATOM     22  C   UNL     1      43.401   6.780  20.134  0.00  0.00    +0.000 A 
ATOM     23  C   UNL     1      42.068   6.533  20.385  0.00  0.00    +0.000 A 
ENDBRANCH  17  18
ENDBRANCH  16  17
BRANCH  16  24
ATOM     24  C   UNL     1      37.985   7.432  18.418  0.00  0.00    +0.000 C 
BRANCH  24  25
ATOM     25  C   UNL     1      38.508   8.583  19.175  0.00  0.00    +0.000 A 
ATOM     26  C   UNL     1      38.132   8.853  20.479  0.00  0.00    +0.000 A 
ATOM     27  C   UNL     1      38.636   9.928  21.149  0.00  0.00    +0.000 A 
ATOM     28  C   UNL     1      39.522  10.760  20.543  0.00  0.00    +0.000 A 
ATOM     29  C   UNL     1      39.900  10.486  19.228  0.00  0.00    +0.000 A 
ATOM     30  C   UNL     1      39.412   9.412  18.525  0.00  0.00    +0.000 A 
ENDBRANCH  24  25
ENDBRANCH  16  24
ENDBRANCH   2  16
TORSDOF 7
ENDMDL
MODEL 2
REMARK VINA RESULT:      -7.9      2.690      5.044
REMARK  Name = 
REMARK  7 active torsions:
REMARK  status: ('A' for Active; 'I' for Inactive)
REMARK    1  A    between atoms: C_7  and  N_8
REMARK    2  A    between atoms: C_9  and  C_11
REMARK    3  A    between atoms: C_11  and  C_12
REMARK    4  A    between atoms: C_11  and  C_19
REMARK    5  A    between atoms: C_12  and  C_13
REMARK    6  A    between atoms: C_19  and  C_20
REMARK    7  A    between atoms: C_26  and  C_27
REMARK                            x       y       z     vdW  Elec       q    Type
REMARK                         _______ _______ _______ _____ _____    ______ ____
ROOT
ATOM      1  N   UNL     1      36.134   3.074  15.225  0.00  0.00    +0.000 NA
ATOM      2  C   UNL     1      37.173   3.757  15.910  0.00  0.00    +0.000 C 
ATOM      3  O   UNL     1      37.834   3.117  16.764  0.00  0.00    +0.000 OA
ENDROOT
BRANCH   1  10
ATOM      4  C   UNL     1      36.761  -4.238  15.789  0.00  0.00    +0.000 C 
ATOM      5  C   UNL     1      37.166  -2.679  16.209  0.00  0.00    +0.000 C 
ATOM      6  C   UNL     1      36.078  -2.646  17.426  0.00  0.00    +0.000 C 
ATOM      7  C   UNL     1      34.854  -1.963  17.076  0.00  0.00    +0.000 C 
ATOM      8  C   UNL     1      35.209  -0.598  16.563  0.00  0.00    +0.000 A 
ATOM      9  S   UNL     1      35.012   1.058  16.872  0.00  0.00    +0.000 S 
ATOM     10  C   UNL     1      35.904   1.686  15.553  0.00  0.00    +0.000 A 
ATOM     11  C   UNL     1      36.338   0.560  14.898  0.00  0.00    +0.000 A 
ATOM     12  C   UNL     1      35.964  -0.629  15.440  0.00  0.00    +0.000 A 
ATOM     13  C   UNL     1      36.249  -2.043  15.005  0.00  0.00    +0.000 C 
BRANCH  11  14
ATOM     14  C   UNL     1      37.159   0.726  13.681  0.00  0.00    +0.000 C 
ATOM     15  N   UNL     1      37.799   0.835  12.721  0.00  0.00    +0.000 NA
ENDBRANCH  11  14
ENDBRANCH   1  10
BRANCH   2  16
ATOM     16  C   UNL     1      37.488   5.168  15.652  0.00  0.00    +0.000 C 
BRANCH  16  17
ATOM     17  C   UNL     1      37.067   5.508  14.257  0.00  0.00    +0.000 C 
BRANCH  17  18
ATOM     18  C   UNL     1      35.967   6.485  14.330  0.00  0.00    +0.000 A 
ATOM     19  C   UNL     1      36.246   7.771  14.719  0.00  0.00    +0.000 A 
ATOM     20  C   UNL     1      35.218   8.677  14.786  0.00  0.00    +0.000 A 
ATOM     21  C   UNL     1      33.946   8.271  14.464  0.00  0.00    +0.000 A 
ATOM     22  C   UNL     1      33.670   6.977  14.074  0.00  0.00    +0.000 A 
ATOM     23  C   UNL     1      34.697   6.060  14.004  0.00  0.00    +0.000 A 
ENDBRANCH  17  18
ENDBRANCH  16  17
BRANCH  16  24
ATOM     24  C   UNL     1      38.882   5.567  15.977  0.00  0.00    +0.000 C 
BRANCH  24  25
ATOM     25  C   UNL     1      38.931   6.184  17.314  0.00  0.00    +0.000 A 
ATOM     26  C   UNL     1      38.163   7.282  17.659  0.00  0.00    +0.000 A 
ATOM     27  C   UNL     1      38.234   7.828  18.906  0.00  0.00    +0.000 A 
ATOM     28  C   UNL     1      39.067   7.298  19.840  0.00  0.00    +0.000 A 
ATOM     29  C   UNL     1      39.839   6.191  19.491  0.00  0.00    +0.000 A 
ATOM     30  C   UNL     1      39.792   5.618  18.244  0.00  0.00    +0.000 A 
ENDBRANCH  24  25
ENDBRANCH  16  24
ENDBRANCH   2  16
TORSDOF 7
ENDMDL
MODEL 3
REMARK VINA RESULT:      -7.7      2.394      8.850
REMARK  Name = 
REMARK  7 active torsions:
REMARK  status: ('A' for Active; 'I' for Inactive)
REMARK    1  A    between atoms: C_7  and  N_8
REMARK    2  A    between atoms: C_9  and  C_11
REMARK    3  A    between atoms: C_11  and  C_12
REMARK    4  A    between atoms: C_11  and  C_19
REMARK    5  A    between atoms: C_12  and  C_13
REMARK    6  A    between atoms: C_19  and  C_20
REMARK    7  A    between atoms: C_26  and  C_27
REMARK                            x       y       z     vdW  Elec       q    Type
REMARK                         _______ _______ _______ _____ _____    ______ ____
ROOT
ATOM      1  N   UNL     1      38.601   3.823  16.075  0.00  0.00    +0.000 NA
ATOM      2  C   UNL     1      37.439   3.011  16.115  0.00  0.00    +0.000 C 
ATOM      3  O   UNL     1      36.486   3.382  16.845  0.00  0.00    +0.000 OA
ENDROOT
BRANCH   1  10
ATOM      4  C   UNL     1      37.264  10.571  18.692  0.00  0.00    +0.000 C 
ATOM      5  C   UNL     1      36.879   8.969  18.459  0.00  0.00    +0.000 C 
ATOM      6  C   UNL     1      37.566   8.523  19.871  0.00  0.00    +0.000 C 
ATOM      7  C   UNL     1      38.888   7.965  19.709  0.00  0.00    +0.000 C 
ATOM      8  C   UNL     1      38.806   6.846  18.712  0.00  0.00    +0.000 A 
ATOM      9  S   UNL     1      39.035   5.175  18.529  0.00  0.00    +0.000 S 
ATOM     10  C   UNL     1      38.616   5.026  16.876  0.00  0.00    +0.000 A 
ATOM     11  C   UNL     1      38.304   6.312  16.510  0.00  0.00    +0.000 A 
ATOM     12  C   UNL     1      38.409   7.253  17.484  0.00  0.00    +0.000 A 
ATOM     13  C   UNL     1      38.153   8.738  17.450  0.00  0.00    +0.000 C 
BRANCH  11  14
ATOM     14  C   UNL     1      37.888   6.564  15.114  0.00  0.00    +0.000 C 
ATOM     15  N   UNL     1      37.582   6.757  14.013  0.00  0.00    +0.000 NA
ENDBRANCH  11  14
ENDBRANCH   1  10
BRANCH   2  16
ATOM     16  C   UNL     1      37.321   1.769  15.341  0.00  0.00    +0.000 C 
BRANCH  16  17
ATOM     17  C   UNL     1      38.208   1.865  14.139  0.00  0.00    +0.000 C 
BRANCH  17  18
ATOM     18  C   UNL     1      38.764   0.529  13.866  0.00  0.00    +0.000 A 
ATOM     19  C   UNL     1      39.560  -0.065  14.813  0.00  0.00    +0.000 A 
ATOM     20  C   UNL     1      40.076  -1.310  14.553  0.00  0.00    +0.000 A 
ATOM     21  C   UNL     1      39.782  -1.920  13.359  0.00  0.00    +0.000 A 
ATOM     22  C   UNL     1      38.983  -1.319  12.410  0.00  0.00    +0.000 A 
ATOM     23  C   UNL     1      38.459  -0.069  12.662  0.00  0.00    +0.000 A 
ENDBRANCH  17  18
ENDBRANCH  16  17
BRANCH  16  24
ATOM     24  C   UNL     1      35.928   1.352  15.032  0.00  0.00    +0.000 C 
BRANCH  24  25
ATOM     25  C   UNL     1      35.612   0.095  15.730  0.00  0.00    +0.000 A 
ATOM     26  C   UNL     1      36.002  -1.144  15.252  0.00  0.00    +0.000 A 
ATOM     27  C   UNL     1      35.691  -2.288  15.924  0.00  0.00    +0.000 A 
ATOM     28  C   UNL     1      34.987  -2.232  17.085  0.00  0.00    +0.000 A 
ATOM     29  C   UNL     1      34.595  -0.983  17.566  0.00  0.00    +0.000 A 
ATOM     30  C   UNL     1      34.892   0.188  16.913  0.00  0.00    +0.000 A 
ENDBRANCH  24  25
ENDBRANCH  16  24
ENDBRANCH   2  16
TORSDOF 7
ENDMDL
MODEL 4
REMARK VINA RESULT:      -7.5      0.874      3.473
REMARK  Name = 
REMARK  7 active torsions:
REMARK  status: ('A' for Active; 'I' for Inactive)
REMARK    1  A    between atoms: C_7  and  N_8
REMARK    2  A    between atoms: C_9  and  C_11
REMARK    3  A    between atoms: C_11  and  C_12
REMARK    4  A    between atoms: C_11  and  C_19
REMARK    5  A    between atoms: C_12  and  C_13
REMARK    6  A    between atoms: C_19  and  C_20
REMARK    7  A    between atoms: C_26  and  C_27
REMARK                            x       y       z     vdW  Elec       q    Type
REMARK                         _______ _______ _______ _____ _____    ______ ____
ROOT
ATOM      1  N   UNL     1      38.627   4.730  16.032  0.00  0.00    +0.000 NA
ATOM      2  C   UNL     1      39.034   5.073  17.347  0.00  0.00    +0.000 C 
ATOM      3  O   UNL     1      38.772   4.268  18.274  0.00  0.00    +0.000 OA
ENDROOT
BRANCH   1  10
ATOM      4  C   UNL     1      37.057  -2.294  14.489  0.00  0.00    +0.000 C 
ATOM      5  C   UNL     1      37.677  -1.093  15.460  0.00  0.00    +0.000 C 
ATOM      6  C   UNL     1      36.270  -0.923  16.271  0.00  0.00    +0.000 C 
ATOM      7  C   UNL     1      35.484   0.201  15.818  0.00  0.00    +0.000 C 
ATOM      8  C   UNL     1      36.347   1.428  15.868  0.00  0.00    +0.000 A 
ATOM      9  S   UNL     1      36.494   2.951  16.599  0.00  0.00    +0.000 S 
ATOM     10  C   UNL     1      37.937   3.475  15.841  0.00  0.00    +0.000 A 
ATOM     11  C   UNL     1      38.266   2.422  15.024  0.00  0.00    +0.000 A 
ATOM     12  C   UNL     1      37.422   1.358  15.049  0.00  0.00    +0.000 A 
ATOM     13  C   UNL     1      37.464   0.050  14.301  0.00  0.00    +0.000 C 
BRANCH  11  14
ATOM     14  C   UNL     1      39.487   2.529  14.198  0.00  0.00    +0.000 C 
ATOM     15  N   UNL     1      40.449   2.632  13.560  0.00  0.00    +0.000 NA
ENDBRANCH  11  14
ENDBRANCH   1  10
BRANCH   2  16
ATOM     16  C   UNL     1      39.741   6.325  17.649  0.00  0.00    +0.000 C 
BRANCH  16  17
ATOM     17  C   UNL     1      38.880   7.477  17.235  0.00  0.00    +0.000 C 
BRANCH  17  18
ATOM     18  C   UNL     1      38.598   8.295  18.426  0.00  0.00    +0.000 A 
ATOM     19  C   UNL     1      38.252   9.612  18.260  0.00  0.00    +0.000 A 
ATOM     20  C   UNL     1      37.990  10.371  19.373  0.00  0.00    +0.000 A 
ATOM     21  C   UNL     1      38.083   9.792  20.614  0.00  0.00    +0.000 A 
ATOM     22  C   UNL     1      38.432   8.467  20.777  0.00  0.00    +0.000 A 
ATOM     23  C   UNL     1      38.696   7.697  19.664  0.00  0.00    +0.000 A 
ENDBRANCH  17  18
ENDBRANCH  16  17
BRANCH  16  24
ATOM     24  C   UNL     1      41.134   6.396  17.136  0.00  0.00    +0.000 C 
BRANCH  24  25
ATOM     25  C   UNL     1      42.079   6.520  18.258  0.00  0.00    +0.000 A 
ATOM     26  C   UNL     1      43.406   6.872  18.083  0.00  0.00    +0.000 A 
ATOM     27  C   UNL     1      44.253   6.977  19.145  0.00  0.00    +0.000 A 
ATOM     28  C   UNL     1      43.807   6.734  20.405  0.00  0.00    +0.000 A 
ATOM     29  C   UNL     1      42.470   6.380  20.581  0.00  0.00    +0.000 A 
ATOM     30  C   UNL     1      41.590   6.265  19.532  0.00  0.00    +0.000 A 
ENDBRANCH  24  25
ENDBRANCH  16  24
ENDBRANCH   2  16
TORSDOF 7
ENDMDL
MODEL 5
REMARK VINA RESULT:      -7.5      2.932      5.468
REMARK  Name = 
REMARK  7 active torsions:
REMARK  status: ('A' for Active; 'I' for Inactive)
REMARK    1  A    between atoms: C_7  and  N_8
REMARK    2  A    between atoms: C_9  and  C_11
REMARK    3  A    between atoms: C_11  and  C_12
REMARK    4  A    between atoms: C_11  and  C_19
REMARK    5  A    between atoms: C_12  and  C_13
REMARK    6  A    between atoms: C_19  and  C_20
REMARK    7  A    between atoms: C_26  and  C_27
REMARK                            x       y       z     vdW  Elec       q    Type
REMARK                         _______ _______ _______ _____ _____    ______ ____
ROOT
ATOM      1  N   UNL     1      36.911   2.583  14.391  0.00  0.00    +0.000 NA
ATOM      2  C   UNL     1      37.795   3.420  15.121  0.00  0.00    +0.000 C 
ATOM      3  O   UNL     1      38.637   2.871  15.874  0.00  0.00    +0.000 OA
ENDROOT
BRANCH   1  10
ATOM      4  C   UNL     1      35.543  -4.485  15.924  0.00  0.00    +0.000 C 
ATOM      5  C   UNL     1      35.423  -3.125  14.972  0.00  0.00    +0.000 C 
ATOM      6  C   UNL     1      36.735  -3.536  14.092  0.00  0.00    +0.000 C 
ATOM      7  C   UNL     1      37.933  -2.838  14.496  0.00  0.00    +0.000 C 
ATOM      8  C   UNL     1      37.646  -1.365  14.476  0.00  0.00    +0.000 A 
ATOM      9  S   UNL     1      38.100   0.094  13.738  0.00  0.00    +0.000 S 
ATOM     10  C   UNL     1      37.035   1.154  14.560  0.00  0.00    +0.000 A 
ATOM     11  C   UNL     1      36.344   0.319  15.403  0.00  0.00    +0.000 A 
ATOM     12  C   UNL     1      36.677  -0.998  15.346  0.00  0.00    +0.000 A 
ATOM     13  C   UNL     1      36.140  -2.182  16.108  0.00  0.00    +0.000 C 
BRANCH  11  14
ATOM     14  C   UNL     1      35.315   0.906  16.286  0.00  0.00    +0.000 C 
ATOM     15  N   UNL     1      34.513   1.350  16.994  0.00  0.00    +0.000 NA
ENDBRANCH  11  14
ENDBRANCH   1  10
BRANCH   2  16
ATOM     16  C   UNL     1      37.751   4.884  15.022  0.00  0.00    +0.000 C 
BRANCH  16  17
ATOM     17  C   UNL     1      37.205   5.260  13.681  0.00  0.00    +0.000 C 
BRANCH  17  18
ATOM     18  C   UNL     1      36.106   6.220  13.880  0.00  0.00    +0.000 A 
ATOM     19  C   UNL     1      36.395   7.561  13.919  0.00  0.00    +0.000 A 
ATOM     20  C   UNL     1      35.367   8.451  14.105  0.00  0.00    +0.000 A 
ATOM     21  C   UNL     1      34.087   7.976  14.248  0.00  0.00    +0.000 A 
ATOM     22  C   UNL     1      33.802   6.627  14.209  0.00  0.00    +0.000 A 
ATOM     23  C   UNL     1      34.828   5.725  14.021  0.00  0.00    +0.000 A 
ENDBRANCH  17  18
ENDBRANCH  16  17
BRANCH  16  24
ATOM     24  C   UNL     1      39.020   5.573  15.373  0.00  0.00    +0.000 C 
BRANCH  24  25
ATOM     25  C   UNL     1      38.946   6.095  16.748  0.00  0.00    +0.000 A 
ATOM     26  C   UNL     1      39.578   5.482  17.815  0.00  0.00    +0.000 A 
ATOM     27  C   UNL     1      39.488   5.993  19.076  0.00  0.00    +0.000 A 
ATOM     28  C   UNL     1      38.770   7.122  19.309  0.00  0.00    +0.000 A 
ATOM     29  C   UNL     1      38.133   7.739  18.232  0.00  0.00    +0.000 A 
ATOM     30  C   UNL     1      38.204   7.251  16.950  0.00  0.00    +0.000 A 
ENDBRANCH  24  25
ENDBRANCH  16  24
ENDBRANCH   2  16
TORSDOF 7
ENDMDL
MODEL 6
REMARK VINA RESULT:      -7.5      2.590      9.596
REMARK  Name = 
REMARK  7 active torsions:
REMARK  status: ('A' for Active; 'I' for Inactive)
REMARK    1  A    between atoms: C_7  and  N_8
REMARK    2  A    between atoms: C_9  and  C_11
REMARK    3  A    between atoms: C_11  and  C_12
REMARK    4  A    between atoms: C_11  and  C_19
REMARK    5  A    between atoms: C_12  and  C_13
REMARK    6  A    between atoms: C_19  and  C_20
REMARK    7  A    between atoms: C_26  and  C_27
REMARK                            x       y       z     vdW  Elec       q    Type
REMARK                         _______ _______ _______ _____ _____    ______ ____
ROOT
ATOM      1  N   UNL     1      38.231   2.206  13.954  0.00  0.00    +0.000 NA
ATOM      2  C   UNL     1      38.891   0.968  14.170  0.00  0.00    +0.000 C 
ATOM      3  O   UNL     1      39.786   0.924  15.050  0.00  0.00    +0.000 OA
ENDROOT
BRANCH   1  10
ATOM      4  C   UNL     1      39.288   6.841  19.574  0.00  0.00    +0.000 C 
ATOM      5  C   UNL     1      39.634   5.466  18.702  0.00  0.00    +0.000 C 
ATOM      6  C   UNL     1      40.776   6.226  17.817  0.00  0.00    +0.000 C 
ATOM      7  C   UNL     1      40.309   6.631  16.512  0.00  0.00    +0.000 C 
ATOM      8  C   UNL     1      39.736   5.426  15.825  0.00  0.00    +0.000 A 
ATOM      9  S   UNL     1      39.927   4.417  14.476  0.00  0.00    +0.000 S 
ATOM     10  C   UNL     1      38.630   3.337  14.760  0.00  0.00    +0.000 A 
ATOM     11  C   UNL     1      38.075   3.808  15.924  0.00  0.00    +0.000 A 
ATOM     12  C   UNL     1      38.666   4.903  16.469  0.00  0.00    +0.000 A 
ATOM     13  C   UNL     1      38.338   5.681  17.717  0.00  0.00    +0.000 C 
BRANCH  11  14
ATOM     14  C   UNL     1      36.902   3.101  16.481  0.00  0.00    +0.000 C 
ATOM     15  N   UNL     1      35.990   2.527  16.907  0.00  0.00    +0.000 NA
ENDBRANCH  11  14
ENDBRANCH   1  10
BRANCH   2  16
ATOM     16  C   UNL     1      38.561  -0.241  13.406  0.00  0.00    +0.000 C 
BRANCH  16  17
ATOM     17  C   UNL     1      39.235  -0.166  12.071  0.00  0.00    +0.000 C 
BRANCH  17  18
ATOM     18  C   UNL     1      40.035  -1.388  11.886  0.00  0.00    +0.000 A 
ATOM     19  C   UNL     1      40.602  -1.983  12.985  0.00  0.00    +0.000 A 
ATOM     20  C   UNL     1      41.347  -3.122  12.807  0.00  0.00    +0.000 A 
ATOM     21  C   UNL     1      41.501  -3.630  11.541  0.00  0.00    +0.000 A 
ATOM     22  C   UNL     1      40.929  -3.029  10.439  0.00  0.00    +0.000 A 
ATOM     23  C   UNL     1      40.178  -1.884  10.608  0.00  0.00    +0.000 A 
ENDBRANCH  17  18
ENDBRANCH  16  17
BRANCH  16  24
ATOM     24  C   UNL     1      37.112  -0.562  13.334  0.00  0.00    +0.000 C 
BRANCH  24  25
ATOM     25  C   UNL     1      36.791  -1.655  14.268  0.00  0.00    +0.000 A 
ATOM     26  C   UNL     1      36.087  -1.452  15.442  0.00  0.00    +0.000 A 
ATOM     27  C   UNL     1      35.808  -2.487  16.283  0.00  0.00    +0.000 A 
ATOM     28  C   UNL     1      36.220  -3.747  15.982  0.00  0.00    +0.000 A 
ATOM     29  C   UNL     1      36.929  -3.949  14.798  0.00  0.00    +0.000 A 
ATOM     30  C   UNL     1      37.227  -2.928  13.929  0.00  0.00    +0.000 A 
ENDBRANCH  24  25
ENDBRANCH  16  24
ENDBRANCH   2  16
TORSDOF 7
ENDMDL
MODEL 7
REMARK VINA RESULT:      -7.4      5.950      9.224
REMARK  Name = 
REMARK  7 active torsions:
REMARK  status: ('A' for Active; 'I' for Inactive)
REMARK    1  A    between atoms: C_7  and  N_8
REMARK    2  A    between atoms: C_9  and  C_11
REMARK    3  A    between atoms: C_11  and  C_12
REMARK    4  A    between atoms: C_11  and  C_19
REMARK    5  A    between atoms: C_12  and  C_13
REMARK    6  A    between atoms: C_19  and  C_20
REMARK    7  A    between atoms: C_26  and  C_27
REMARK                            x       y       z     vdW  Elec       q    Type
REMARK                         _______ _______ _______ _____ _____    ______ ____
ROOT
ATOM      1  N   UNL     1      35.739   1.425  15.027  0.00  0.00    +0.000 NA
ATOM      2  C   UNL     1      36.158   1.189  16.363  0.00  0.00    +0.000 C 
ATOM      3  O   UNL     1      36.435   2.183  17.077  0.00  0.00    +0.000 OA
ENDROOT
BRANCH   1  10
ATOM      4  C   UNL     1      36.347   7.585  11.044  0.00  0.00    +0.000 C 
ATOM      5  C   UNL     1      35.654   6.115  11.403  0.00  0.00    +0.000 C 
ATOM      6  C   UNL     1      34.515   6.801  12.350  0.00  0.00    +0.000 C 
ATOM      7  C   UNL     1      34.819   6.715  13.760  0.00  0.00    +0.000 C 
ATOM      8  C   UNL     1      35.079   5.276  14.097  0.00  0.00    +0.000 A 
ATOM      9  S   UNL     1      34.515   3.982  15.037  0.00  0.00    +0.000 S 
ATOM     10  C   UNL     1      35.658   2.794  14.574  0.00  0.00    +0.000 A 
ATOM     11  C   UNL     1      36.462   3.459  13.681  0.00  0.00    +0.000 A 
ATOM     12  C   UNL     1      36.145   4.758  13.443  0.00  0.00    +0.000 A 
ATOM     13  C   UNL     1      36.789   5.780  12.541  0.00  0.00    +0.000 C 
BRANCH  11  14
ATOM     14  C   UNL     1      37.585   2.723  13.064  0.00  0.00    +0.000 C 
ATOM     15  N   UNL     1      38.456   2.127  12.585  0.00  0.00    +0.000 NA
ENDBRANCH  11  14
ENDBRANCH   1  10
BRANCH   2  16
ATOM     16  C   UNL     1      36.275  -0.164  16.922  0.00  0.00    +0.000 C 
BRANCH  16  17
ATOM     17  C   UNL     1      35.068  -0.955  16.523  0.00  0.00    +0.000 C 
BRANCH  17  18
ATOM     18  C   UNL     1      35.522  -2.215  15.911  0.00  0.00    +0.000 A 
ATOM     19  C   UNL     1      35.052  -3.403  16.411  0.00  0.00    +0.000 A 
ATOM     20  C   UNL     1      35.478  -4.575  15.836  0.00  0.00    +0.000 A 
ATOM     21  C   UNL     1      36.359  -4.522  14.784  0.00  0.00    +0.000 A 
ATOM     22  C   UNL     1      36.829  -3.326  14.285  0.00  0.00    +0.000 A 
ATOM     23  C   UNL     1      36.406  -2.144  14.855  0.00  0.00    +0.000 A 
ENDBRANCH  17  18
ENDBRANCH  16  17
BRANCH  16  24
ATOM     24  C   UNL     1      36.580  -0.217  18.375  0.00  0.00    +0.000 C 
BRANCH  24  25
ATOM     25  C   UNL     1      37.361  -1.427  18.682  0.00  0.00    +0.000 A 
ATOM     26  C   UNL     1      38.216  -2.017  17.768  0.00  0.00    +0.000 A 
ATOM     27  C   UNL     1      38.923  -3.138  18.086  0.00  0.00    +0.000 A 
ATOM     28  C   UNL     1      38.799  -3.701  19.317  0.00  0.00    +0.000 A 
ATOM     29  C   UNL     1      37.937  -3.105  20.237  0.00  0.00    +0.000 A 
ATOM     30  C   UNL     1      37.211  -1.976  19.948  0.00  0.00    +0.000 A 
ENDBRANCH  24  25
ENDBRANCH  16  24
ENDBRANCH   2  16
TORSDOF 7
ENDMDL
MODEL 8
REMARK VINA RESULT:      -7.4      5.169      9.810
REMARK  Name = 
REMARK  7 active torsions:
REMARK  status: ('A' for Active; 'I' for Inactive)
REMARK    1  A    between atoms: C_7  and  N_8
REMARK    2  A    between atoms: C_9  and  C_11
REMARK    3  A    between atoms: C_11  and  C_12
REMARK    4  A    between atoms: C_11  and  C_19
REMARK    5  A    between atoms: C_12  and  C_13
REMARK    6  A    between atoms: C_19  and  C_20
REMARK    7  A    between atoms: C_26  and  C_27
REMARK                            x       y       z     vdW  Elec       q    Type
REMARK                         _______ _______ _______ _____ _____    ______ ____
ROOT
ATOM      1  N   UNL     1      36.605  -0.093  14.290  0.00  0.00    +0.000 NA
ATOM      2  C   UNL     1      37.612  -0.541  15.183  0.00  0.00    +0.000 C 
ATOM      3  O   UNL     1      38.467   0.292  15.573  0.00  0.00    +0.000 OA
ENDROOT
BRANCH   1  10
ATOM      4  C   UNL     1      36.248   7.259  14.282  0.00  0.00    +0.000 C 
ATOM      5  C   UNL     1      37.007   5.813  14.602  0.00  0.00    +0.000 C 
ATOM      6  C   UNL     1      37.779   5.816  13.163  0.00  0.00    +0.000 C 
ATOM      7  C   UNL     1      37.146   4.974  12.175  0.00  0.00    +0.000 C 
ATOM      8  C   UNL     1      36.992   3.600  12.759  0.00  0.00    +0.000 A 
ATOM      9  S   UNL     1      37.460   1.983  12.558  0.00  0.00    +0.000 S 
ATOM     10  C   UNL     1      36.625   1.294  13.885  0.00  0.00    +0.000 A 
ATOM     11  C   UNL     1      35.994   2.371  14.456  0.00  0.00    +0.000 A 
ATOM     12  C   UNL     1      36.196   3.572  13.854  0.00  0.00    +0.000 A 
ATOM     13  C   UNL     1      35.675   4.944  14.194  0.00  0.00    +0.000 C 
BRANCH  11  14
ATOM     14  C   UNL     1      35.161   2.143  15.656  0.00  0.00    +0.000 C 
ATOM     15  N   UNL     1      34.490   1.973  16.585  0.00  0.00    +0.000 NA
ENDBRANCH  11  14
ENDBRANCH   1  10
BRANCH   2  16
ATOM     16  C   UNL     1      37.682  -1.930  15.656  0.00  0.00    +0.000 C 
BRANCH  16  17
ATOM     17  C   UNL     1      38.908  -2.091  16.499  0.00  0.00    +0.000 C 
BRANCH  17  18
ATOM     18  C   UNL     1      38.486  -2.361  17.883  0.00  0.00    +0.000 A 
ATOM     19  C   UNL     1      37.570  -1.526  18.473  0.00  0.00    +0.000 A 
ATOM     20  C   UNL     1      37.180  -1.782  19.764  0.00  0.00    +0.000 A 
ATOM     21  C   UNL     1      37.716  -2.860  20.423  0.00  0.00    +0.000 A 
ATOM     22  C   UNL     1      38.637  -3.697  19.827  0.00  0.00    +0.000 A 
ATOM     23  C   UNL     1      39.034  -3.448  18.531  0.00  0.00    +0.000 A 
ENDBRANCH  17  18
ENDBRANCH  16  17
BRANCH  16  24
ATOM     24  C   UNL     1      37.537  -2.960  14.595  0.00  0.00    +0.000 C 
BRANCH  24  25
ATOM     25  C   UNL     1      36.462  -3.902  14.950  0.00  0.00    +0.000 A 
ATOM     26  C   UNL     1      35.198  -3.839  14.389  0.00  0.00    +0.000 A 
ATOM     27  C   UNL     1      34.226  -4.726  14.741  0.00  0.00    +0.000 A 
ATOM     28  C   UNL     1      34.482  -5.696  15.658  0.00  0.00    +0.000 A 
ATOM     29  C   UNL     1      35.756  -5.758  16.222  0.00  0.00    +0.000 A 
ATOM     30  C   UNL     1      36.757  -4.880  15.889  0.00  0.00    +0.000 A 
ENDBRANCH  24  25
ENDBRANCH  16  24
ENDBRANCH   2  16
TORSDOF 7
ENDMDL
MODEL 9
REMARK VINA RESULT:      -7.4      1.539      2.046
REMARK  Name = 
REMARK  7 active torsions:
REMARK  status: ('A' for Active; 'I' for Inactive)
REMARK    1  A    between atoms: C_7  and  N_8
REMARK    2  A    between atoms: C_9  and  C_11
REMARK    3  A    between atoms: C_11  and  C_12
REMARK    4  A    between atoms: C_11  and  C_19
REMARK    5  A    between atoms: C_12  and  C_13
REMARK    6  A    between atoms: C_19  and  C_20
REMARK    7  A    between atoms: C_26  and  C_27
REMARK                            x       y       z     vdW  Elec       q    Type
REMARK                         _______ _______ _______ _____ _____    ______ ____
ROOT
ATOM      1  N   UNL     1      38.929   4.321  16.582  0.00  0.00    +0.000 NA
ATOM      2  C   UNL     1      38.460   5.657  16.685  0.00  0.00    +0.000 C 
ATOM      3  O   UNL     1      37.691   6.081  15.788  0.00  0.00    +0.000 OA
ENDROOT
BRANCH   1  10
ATOM      4  C   UNL     1      38.738   0.523  10.280  0.00  0.00    +0.000 C 
ATOM      5  C   UNL     1      39.101   0.697  11.895  0.00  0.00    +0.000 C 
ATOM      6  C   UNL     1      37.671   0.060  12.360  0.00  0.00    +0.000 C 
ATOM      7  C   UNL     1      36.698   1.059  12.733  0.00  0.00    +0.000 C 
ATOM      8  C   UNL     1      37.313   1.950  13.772  0.00  0.00    +0.000 A 
ATOM      9  S   UNL     1      37.157   2.462  15.381  0.00  0.00    +0.000 S 
ATOM     10  C   UNL     1      38.491   3.533  15.453  0.00  0.00    +0.000 A 
ATOM     11  C   UNL     1      39.028   3.456  14.193  0.00  0.00    +0.000 A 
ATOM     12  C   UNL     1      38.399   2.622  13.324  0.00  0.00    +0.000 A 
ATOM     13  C   UNL     1      38.701   2.289  11.885  0.00  0.00    +0.000 C 
BRANCH  11  14
ATOM     14  C   UNL     1      40.224   4.269  13.887  0.00  0.00    +0.000 C 
ATOM     15  N   UNL     1      41.148   4.924  13.642  0.00  0.00    +0.000 NA
ENDBRANCH  11  14
ENDBRANCH   1  10
BRANCH   2  16
ATOM     16  C   UNL     1      38.845   6.541  17.792  0.00  0.00    +0.000 C 
BRANCH  16  17
ATOM     17  C   UNL     1      39.432   5.711  18.890  0.00  0.00    +0.000 C 
BRANCH  17  18
ATOM     18  C   UNL     1      40.804   6.182  19.145  0.00  0.00    +0.000 A 
ATOM     19  C   UNL     1      41.204   6.389  20.441  0.00  0.00    +0.000 A 
ATOM     20  C   UNL     1      42.484   6.828  20.673  0.00  0.00    +0.000 A 
ATOM     21  C   UNL     1      43.320   7.047  19.606  0.00  0.00    +0.000 A 
ATOM     22  C   UNL     1      42.913   6.838  18.305  0.00  0.00    +0.000 A 
ATOM     23  C   UNL     1      41.629   6.397  18.062  0.00  0.00    +0.000 A 
ENDBRANCH  17  18
ENDBRANCH  16  17
BRANCH  16  24
ATOM     24  C   UNL     1      37.784   7.478  18.243  0.00  0.00    +0.000 C 
BRANCH  24  25
ATOM     25  C   UNL     1      38.370   8.541  19.076  0.00  0.00    +0.000 A 
ATOM     26  C   UNL     1      38.027   8.726  20.403  0.00  0.00    +0.000 A 
ATOM     27  C   UNL     1      38.589   9.722  21.145  0.00  0.00    +0.000 A 
ATOM     28  C   UNL     1      39.505  10.558  20.589  0.00  0.00    +0.000 A 
ATOM     29  C   UNL     1      39.851  10.370  19.251  0.00  0.00    +0.000 A 
ATOM     30  C   UNL     1      39.302   9.377  18.476  0.00  0.00    +0.000 A 
ENDBRANCH  24  25
ENDBRANCH  16  24
ENDBRANCH   2  16
TORSDOF 7
ENDMDL
MODEL 10
REMARK VINA RESULT:      -7.3      5.816      8.309
REMARK  Name = 
REMARK  7 active torsions:
REMARK  status: ('A' for Active; 'I' for Inactive)
REMARK    1  A    between atoms: C_7  and  N_8
REMARK    2  A    between atoms: C_9  and  C_11
REMARK    3  A    between atoms: C_11  and  C_12
REMARK    4  A    between atoms: C_11  and  C_19
REMARK    5  A    between atoms: C_12  and  C_13
REMARK    6  A    between atoms: C_19  and  C_20
REMARK    7  A    between atoms: C_26  and  C_27
REMARK                            x       y       z     vdW  Elec       q    Type
REMARK                         _______ _______ _______ _____ _____    ______ ____
ROOT
ATOM      1  N   UNL     1      36.494   1.564  13.903  0.00  0.00    +0.000 NA
ATOM      2  C   UNL     1      37.484   1.204  14.854  0.00  0.00    +0.000 C 
ATOM      3  O   UNL     1      37.920   2.100  15.617  0.00  0.00    +0.000 OA
ENDROOT
BRANCH   1  10
ATOM      4  C   UNL     1      35.001   8.449  11.773  0.00  0.00    +0.000 C 
ATOM      5  C   UNL     1      34.704   6.812  11.809  0.00  0.00    +0.000 C 
ATOM      6  C   UNL     1      33.689   6.950  13.081  0.00  0.00    +0.000 C 
ATOM      7  C   UNL     1      34.306   6.609  14.341  0.00  0.00    +0.000 C 
ATOM      8  C   UNL     1      34.908   5.240  14.213  0.00  0.00    +0.000 A 
ATOM      9  S   UNL     1      34.827   3.662  14.828  0.00  0.00    +0.000 S 
ATOM     10  C   UNL     1      36.050   2.938  13.873  0.00  0.00    +0.000 A 
ATOM     11  C   UNL     1      36.493   3.973  13.087  0.00  0.00    +0.000 A 
ATOM     12  C   UNL     1      35.884   5.172  13.278  0.00  0.00    +0.000 A 
ATOM     13  C   UNL     1      36.104   6.505  12.610  0.00  0.00    +0.000 C 
BRANCH  11  14
ATOM     14  C   UNL     1      37.574   3.705  12.116  0.00  0.00    +0.000 C 
ATOM     15  N   UNL     1      38.438   3.501  11.370  0.00  0.00    +0.000 NA
ENDBRANCH  11  14
ENDBRANCH   1  10
BRANCH   2  16
ATOM     16  C   UNL     1      38.004  -0.165  14.967  0.00  0.00    +0.000 C 
BRANCH  16  17
ATOM     17  C   UNL     1      38.669  -0.536  13.679  0.00  0.00    +0.000 C 
BRANCH  17  18
ATOM     18  C   UNL     1      40.095  -0.782  13.947  0.00  0.00    +0.000 A 
ATOM     19  C   UNL     1      40.487  -2.029  14.363  0.00  0.00    +0.000 A 
ATOM     20  C   UNL     1      41.818  -2.253  14.613  0.00  0.00    +0.000 A 
ATOM     21  C   UNL     1      42.713  -1.226  14.439  0.00  0.00    +0.000 A 
ATOM     22  C   UNL     1      42.315   0.026  14.022  0.00  0.00    +0.000 A 
ATOM     23  C   UNL     1      40.980   0.260  13.768  0.00  0.00    +0.000 A 
ENDBRANCH  17  18
ENDBRANCH  16  17
BRANCH  16  24
ATOM     24  C   UNL     1      37.022  -1.169  15.452  0.00  0.00    +0.000 C 
BRANCH  24  25
ATOM     25  C   UNL     1      37.267  -1.469  16.873  0.00  0.00    +0.000 A 
ATOM     26  C   UNL     1      38.294  -2.294  17.297  0.00  0.00    +0.000 A 
ATOM     27  C   UNL     1      38.492  -2.550  18.621  0.00  0.00    +0.000 A 
ATOM     28  C   UNL     1      37.677  -1.995  19.556  0.00  0.00    +0.000 A 
ATOM     29  C   UNL     1      36.643  -1.163  19.128  0.00  0.00    +0.000 A 
ATOM     30  C   UNL     1      36.417  -0.885  17.802  0.00  0.00    +0.000 A 
ENDBRANCH  24  25
ENDBRANCH  16  24
ENDBRANCH   2  16
TORSDOF 7
ENDMDL
