MODEL 1
REMARK VINA RESULT:      -8.7      0.000      0.000
REMARK  Name = 
REMARK  2 active torsions:
REMARK  status: ('A' for Active; 'I' for Inactive)
REMARK    1  A    between atoms: C_2  and  C_4
REMARK    2  A    between atoms: C_7  and  C_8
REMARK                            x       y       z     vdW  Elec       q    Type
REMARK                         _______ _______ _______ _____ _____    ______ ____
ROOT
ATOM      1  C   UNL     1      14.530  13.453  35.631  0.00  0.00    +0.000 C 
ATOM      2  C   UNL     1      14.310  13.505  34.356  0.00  0.00    +0.000 C 
ATOM      3  C   UNL     1      13.418  14.390  33.596  0.00  0.00    +0.000 C 
ATOM      4  O   UNL     1      12.695  15.304  34.088  0.00  0.00    +0.000 OA
ATOM      5  N   UNL     1      13.553  13.994  32.232  0.00  0.00    +0.000 NA
ATOM      6  C   UNL     1      14.465  12.929  32.116  0.00  0.00    +0.000 A 
ATOM      7  C   UNL     1      14.905  12.225  31.017  0.00  0.00    +0.000 A 
ATOM      8  C   UNL     1      15.811  11.202  31.140  0.00  0.00    +0.000 A 
ATOM      9  C   UNL     1      16.291  10.873  32.390  0.00  0.00    +0.000 A 
ATOM     10  F   UNL     1      17.181   9.887  32.617  0.00  0.00    +0.000 F 
ATOM     11  C   UNL     1      15.835  11.591  33.457  0.00  0.00    +0.000 A 
ATOM     12  C   UNL     1      14.933  12.618  33.386  0.00  0.00    +0.000 A 
ENDROOT
BRANCH   1  16
ATOM     13  C   UNL     1      17.067  10.842  37.844  0.00  0.00    +0.000 A 
ATOM     14  C   UNL     1      15.708  10.641  37.775  0.00  0.00    +0.000 A 
ATOM     15  C   UNL     1      14.885  11.479  37.051  0.00  0.00    +0.000 A 
ATOM     16  C   UNL     1      15.414  12.574  36.356  0.00  0.00    +0.000 A 
ATOM     17  C   UNL     1      16.768  12.739  36.452  0.00  0.00    +0.000 A 
ATOM     18  C   UNL     1      17.609  11.912  37.170  0.00  0.00    +0.000 A 
BRANCH  13  20
ATOM     19  C   UNL     1      17.203   9.520  39.863  0.00  0.00    +0.000 C 
ATOM     20  C   UNL     1      17.937   9.937  38.622  0.00  0.00    +0.000 C 
ATOM     21  C   UNL     1      19.240  10.568  39.038  0.00  0.00    +0.000 C 
ENDBRANCH  13  20
ENDBRANCH   1  16
TORSDOF 2
ENDMDL
MODEL 2
REMARK VINA RESULT:      -7.3     19.261     20.298
REMARK  Name = 
REMARK  2 active torsions:
REMARK  status: ('A' for Active; 'I' for Inactive)
REMARK    1  A    between atoms: C_2  and  C_4
REMARK    2  A    between atoms: C_7  and  C_8
REMARK                            x       y       z     vdW  Elec       q    Type
REMARK                         _______ _______ _______ _____ _____    ______ ____
ROOT
ATOM      1  C   UNL     1      30.405  23.807  23.862  0.00  0.00    +0.000 C 
ATOM      2  C   UNL     1      29.241  23.778  23.296  0.00  0.00    +0.000 C 
ATOM      3  C   UNL     1      28.881  23.971  21.885  0.00  0.00    +0.000 C 
ATOM      4  O   UNL     1      29.695  24.193  20.943  0.00  0.00    +0.000 OA
ATOM      5  N   UNL     1      27.460  23.856  21.831  0.00  0.00    +0.000 NA
ATOM      6  C   UNL     1      26.936  23.607  23.112  0.00  0.00    +0.000 A 
ATOM      7  C   UNL     1      25.641  23.429  23.547  0.00  0.00    +0.000 A 
ATOM      8  C   UNL     1      25.356  23.200  24.869  0.00  0.00    +0.000 A 
ATOM      9  C   UNL     1      26.388  23.145  25.781  0.00  0.00    +0.000 A 
ATOM     10  F   UNL     1      26.214  22.925  27.100  0.00  0.00    +0.000 F 
ATOM     11  C   UNL     1      27.658  23.326  25.318  0.00  0.00    +0.000 A 
ATOM     12  C   UNL     1      27.994  23.557  24.011  0.00  0.00    +0.000 A 
ENDROOT
BRANCH   1  16
ATOM     13  C   UNL     1      31.311  23.152  27.973  0.00  0.00    +0.000 A 
ATOM     14  C   UNL     1      30.973  22.116  27.134  0.00  0.00    +0.000 A 
ATOM     15  C   UNL     1      30.689  22.323  25.800  0.00  0.00    +0.000 A 
ATOM     16  C   UNL     1      30.735  23.612  25.252  0.00  0.00    +0.000 A 
ATOM     17  C   UNL     1      31.073  24.613  26.118  0.00  0.00    +0.000 A 
ATOM     18  C   UNL     1      31.362  24.426  27.457  0.00  0.00    +0.000 A 
BRANCH  13  20
ATOM     19  C   UNL     1      32.470  21.689  29.508  0.00  0.00    +0.000 C 
ATOM     20  C   UNL     1      31.614  22.916  29.399  0.00  0.00    +0.000 C 
ATOM     21  C   UNL     1      30.386  22.708  30.247  0.00  0.00    +0.000 C 
ENDBRANCH  13  20
ENDBRANCH   1  16
TORSDOF 2
ENDMDL
MODEL 3
REMARK VINA RESULT:      -7.0     18.654     19.761
REMARK  Name = 
REMARK  2 active torsions:
REMARK  status: ('A' for Active; 'I' for Inactive)
REMARK    1  A    between atoms: C_2  and  C_4
REMARK    2  A    between atoms: C_7  and  C_8
REMARK                            x       y       z     vdW  Elec       q    Type
REMARK                         _______ _______ _______ _____ _____    ______ ____
ROOT
ATOM      1  C   UNL     1      26.298  23.158  24.325  0.00  0.00    +0.000 C 
ATOM      2  C   UNL     1      26.859  23.919  23.440  0.00  0.00    +0.000 C 
ATOM      3  C   UNL     1      26.656  23.971  21.987  0.00  0.00    +0.000 C 
ATOM      4  O   UNL     1      25.845  23.255  21.331  0.00  0.00    +0.000 OA
ATOM      5  N   UNL     1      27.549  24.976  21.509  0.00  0.00    +0.000 NA
ATOM      6  C   UNL     1      28.279  25.534  22.574  0.00  0.00    +0.000 A 
ATOM      7  C   UNL     1      29.244  26.517  22.599  0.00  0.00    +0.000 A 
ATOM      8  C   UNL     1      29.837  26.906  23.774  0.00  0.00    +0.000 A 
ATOM      9  C   UNL     1      29.457  26.302  24.953  0.00  0.00    +0.000 A 
ATOM     10  F   UNL     1      29.976  26.613  26.157  0.00  0.00    +0.000 F 
ATOM     11  C   UNL     1      28.498  25.333  24.893  0.00  0.00    +0.000 A 
ATOM     12  C   UNL     1      27.878  24.910  23.748  0.00  0.00    +0.000 A 
ENDROOT
BRANCH   1  16
ATOM     13  C   UNL     1      26.901  23.162  28.542  0.00  0.00    +0.000 A 
ATOM     14  C   UNL     1      25.903  23.905  27.955  0.00  0.00    +0.000 A 
ATOM     15  C   UNL     1      25.699  23.898  26.590  0.00  0.00    +0.000 A 
ATOM     16  C   UNL     1      26.512  23.126  25.750  0.00  0.00    +0.000 A 
ATOM     17  C   UNL     1      27.491  22.404  26.373  0.00  0.00    +0.000 A 
ATOM     18  C   UNL     1      27.712  22.397  27.737  0.00  0.00    +0.000 A 
BRANCH  13  20
ATOM     19  C   UNL     1      26.729  21.834  30.554  0.00  0.00    +0.000 C 
ATOM     20  C   UNL     1      27.108  23.178  30.004  0.00  0.00    +0.000 C 
ATOM     21  C   UNL     1      26.288  24.223  30.715  0.00  0.00    +0.000 C 
ENDBRANCH  13  20
ENDBRANCH   1  16
TORSDOF 2
ENDMDL
MODEL 4
REMARK VINA RESULT:      -7.0     20.630     22.235
REMARK  Name = 
REMARK  2 active torsions:
REMARK  status: ('A' for Active; 'I' for Inactive)
REMARK    1  A    between atoms: C_2  and  C_4
REMARK    2  A    between atoms: C_7  and  C_8
REMARK                            x       y       z     vdW  Elec       q    Type
REMARK                         _______ _______ _______ _____ _____    ______ ____
ROOT
ATOM      1  C   UNL     1      25.914   4.884  18.717  0.00  0.00    +0.000 C 
ATOM      2  C   UNL     1      26.556   5.662  17.906  0.00  0.00    +0.000 C 
ATOM      3  C   UNL     1      27.580   6.675  18.194  0.00  0.00    +0.000 C 
ATOM      4  O   UNL     1      28.035   6.954  19.341  0.00  0.00    +0.000 OA
ATOM      5  N   UNL     1      27.924   7.245  16.932  0.00  0.00    +0.000 NA
ATOM      6  C   UNL     1      27.179   6.646  15.901  0.00  0.00    +0.000 A 
ATOM      7  C   UNL     1      27.165   6.867  14.541  0.00  0.00    +0.000 A 
ATOM      8  C   UNL     1      26.337   6.158  13.710  0.00  0.00    +0.000 A 
ATOM      9  C   UNL     1      25.501   5.202  14.246  0.00  0.00    +0.000 A 
ATOM     10  F   UNL     1      24.651   4.452  13.517  0.00  0.00    +0.000 F 
ATOM     11  C   UNL     1      25.539   5.008  15.596  0.00  0.00    +0.000 A 
ATOM     12  C   UNL     1      26.346   5.689  16.467  0.00  0.00    +0.000 A 
ENDROOT
BRANCH   1  16
ATOM     13  C   UNL     1      22.889   2.005  17.876  0.00  0.00    +0.000 A 
ATOM     14  C   UNL     1      22.579   3.315  18.159  0.00  0.00    +0.000 A 
ATOM     15  C   UNL     1      23.558   4.252  18.421  0.00  0.00    +0.000 A 
ATOM     16  C   UNL     1      24.912   3.894  18.410  0.00  0.00    +0.000 A 
ATOM     17  C   UNL     1      25.176   2.583  18.126  0.00  0.00    +0.000 A 
ATOM     18  C   UNL     1      24.212   1.630  17.860  0.00  0.00    +0.000 A 
BRANCH  13  20
ATOM     19  C   UNL     1      22.083   0.419  16.240  0.00  0.00    +0.000 C 
ATOM     20  C   UNL     1      21.832   1.012  17.595  0.00  0.00    +0.000 C 
ATOM     21  C   UNL     1      20.443   1.596  17.601  0.00  0.00    +0.000 C 
ENDBRANCH  13  20
ENDBRANCH   1  16
TORSDOF 2
ENDMDL
MODEL 5
REMARK VINA RESULT:      -6.8      4.129      7.422
REMARK  Name = 
REMARK  2 active torsions:
REMARK  status: ('A' for Active; 'I' for Inactive)
REMARK    1  A    between atoms: C_2  and  C_4
REMARK    2  A    between atoms: C_7  and  C_8
REMARK                            x       y       z     vdW  Elec       q    Type
REMARK                         _______ _______ _______ _____ _____    ______ ____
ROOT
ATOM      1  C   UNL     1      17.470   9.950  38.553  0.00  0.00    +0.000 C 
ATOM      2  C   UNL     1      18.576   9.669  39.166  0.00  0.00    +0.000 C 
ATOM      3  C   UNL     1      18.800   9.301  40.570  0.00  0.00    +0.000 C 
ATOM      4  O   UNL     1      17.900   9.177  41.450  0.00  0.00    +0.000 OA
ATOM      5  N   UNL     1      20.210   9.126  40.702  0.00  0.00    +0.000 NA
ATOM      6  C   UNL     1      20.853   9.362  39.474  0.00  0.00    +0.000 A 
ATOM      7  C   UNL     1      22.184   9.318  39.121  0.00  0.00    +0.000 A 
ATOM      8  C   UNL     1      22.593   9.597  37.842  0.00  0.00    +0.000 A 
ATOM      9  C   UNL     1      21.653   9.928  36.889  0.00  0.00    +0.000 A 
ATOM     10  F   UNL     1      21.951  10.218  35.608  0.00  0.00    +0.000 F 
ATOM     11  C   UNL     1      20.344   9.962  37.272  0.00  0.00    +0.000 A 
ATOM     12  C   UNL     1      19.885   9.693  38.534  0.00  0.00    +0.000 A 
ENDROOT
BRANCH   1  16
ATOM     13  C   UNL     1      16.822  11.078  34.497  0.00  0.00    +0.000 A 
ATOM     14  C   UNL     1      16.771  11.997  35.518  0.00  0.00    +0.000 A 
ATOM     15  C   UNL     1      16.990  11.637  36.832  0.00  0.00    +0.000 A 
ATOM     16  C   UNL     1      17.274  10.307  37.170  0.00  0.00    +0.000 A 
ATOM     17  C   UNL     1      17.314   9.426  36.126  0.00  0.00    +0.000 A 
ATOM     18  C   UNL     1      17.098   9.766  34.804  0.00  0.00    +0.000 A 
BRANCH  13  20
ATOM     19  C   UNL     1      15.253  12.160  33.011  0.00  0.00    +0.000 C 
ATOM     20  C   UNL     1      16.586  11.477  33.094  0.00  0.00    +0.000 C 
ATOM     21  C   UNL     1      16.577  10.316  32.134  0.00  0.00    +0.000 C 
ENDBRANCH  13  20
ENDBRANCH   1  16
TORSDOF 2
ENDMDL
MODEL 6
REMARK VINA RESULT:      -6.6     18.799     20.376
REMARK  Name = 
REMARK  2 active torsions:
REMARK  status: ('A' for Active; 'I' for Inactive)
REMARK    1  A    between atoms: C_2  and  C_4
REMARK    2  A    between atoms: C_7  and  C_8
REMARK                            x       y       z     vdW  Elec       q    Type
REMARK                         _______ _______ _______ _____ _____    ______ ____
ROOT
ATOM      1  C   UNL     1      31.019  22.801  27.779  0.00  0.00    +0.000 C 
ATOM      2  C   UNL     1      30.262  22.687  28.823  0.00  0.00    +0.000 C 
ATOM      3  C   UNL     1      30.614  22.304  30.197  0.00  0.00    +0.000 C 
ATOM      4  O   UNL     1      31.778  22.024  30.606  0.00  0.00    +0.000 OA
ATOM      5  N   UNL     1      29.389  22.321  30.928  0.00  0.00    +0.000 NA
ATOM      6  C   UNL     1      28.321  22.688  30.090  0.00  0.00    +0.000 A 
ATOM      7  C   UNL     1      26.974  22.834  30.344  0.00  0.00    +0.000 A 
ATOM      8  C   UNL     1      26.097  23.201  29.357  0.00  0.00    +0.000 A 
ATOM      9  C   UNL     1      26.572  23.430  28.083  0.00  0.00    +0.000 A 
ATOM     10  F   UNL     1      25.794  23.795  27.045  0.00  0.00    +0.000 F 
ATOM     11  C   UNL     1      27.910  23.277  27.866  0.00  0.00    +0.000 A 
ATOM     12  C   UNL     1      28.825  22.913  28.816  0.00  0.00    +0.000 A 
ENDROOT
BRANCH   1  16
ATOM     13  C   UNL     1      29.896  24.018  23.854  0.00  0.00    +0.000 A 
ATOM     14  C   UNL     1      30.361  24.919  24.784  0.00  0.00    +0.000 A 
ATOM     15  C   UNL     1      30.735  24.526  26.052  0.00  0.00    +0.000 A 
ATOM     16  C   UNL     1      30.650  23.182  26.438  0.00  0.00    +0.000 A 
ATOM     17  C   UNL     1      30.182  22.321  25.486  0.00  0.00    +0.000 A 
ATOM     18  C   UNL     1      29.803  22.693  24.210  0.00  0.00    +0.000 A 
BRANCH  13  20
ATOM     19  C   UNL     1      29.291  25.938  22.515  0.00  0.00    +0.000 C 
ATOM     20  C   UNL     1      29.499  24.452  22.499  0.00  0.00    +0.000 C 
ATOM     21  C   UNL     1      28.228  23.806  22.010  0.00  0.00    +0.000 C 
ENDBRANCH  13  20
ENDBRANCH   1  16
TORSDOF 2
ENDMDL
MODEL 7
REMARK VINA RESULT:      -6.6     20.992     22.609
REMARK  Name = 
REMARK  2 active torsions:
REMARK  status: ('A' for Active; 'I' for Inactive)
REMARK    1  A    between atoms: C_2  and  C_4
REMARK    2  A    between atoms: C_7  and  C_8
REMARK                            x       y       z     vdW  Elec       q    Type
REMARK                         _______ _______ _______ _____ _____    ______ ____
ROOT
ATOM      1  C   UNL     1      23.469   2.916  17.842  0.00  0.00    +0.000 C 
ATOM      2  C   UNL     1      23.578   1.649  17.599  0.00  0.00    +0.000 C 
ATOM      3  C   UNL     1      22.543   0.607  17.580  0.00  0.00    +0.000 C 
ATOM      4  O   UNL     1      21.310   0.792  17.795  0.00  0.00    +0.000 OA
ATOM      5  N   UNL     1      23.226  -0.609  17.277  0.00  0.00    +0.000 NA
ATOM      6  C   UNL     1      24.603  -0.373  17.112  0.00  0.00    +0.000 A 
ATOM      7  C   UNL     1      25.643  -1.227  16.820  0.00  0.00    +0.000 A 
ATOM      8  C   UNL     1      26.932  -0.772  16.710  0.00  0.00    +0.000 A 
ATOM      9  C   UNL     1      27.191   0.570  16.894  0.00  0.00    +0.000 A 
ATOM     10  F   UNL     1      28.420   1.116  16.807  0.00  0.00    +0.000 F 
ATOM     11  C   UNL     1      26.138   1.388  17.182  0.00  0.00    +0.000 A 
ATOM     12  C   UNL     1      24.836   0.983  17.303  0.00  0.00    +0.000 A 
ENDROOT
BRANCH   1  16
ATOM     13  C   UNL     1      26.538   5.869  17.773  0.00  0.00    +0.000 A 
ATOM     14  C   UNL     1      25.761   5.610  16.669  0.00  0.00    +0.000 A 
ATOM     15  C   UNL     1      24.760   4.661  16.691  0.00  0.00    +0.000 A 
ATOM     16  C   UNL     1      24.501   3.922  17.853  0.00  0.00    +0.000 A 
ATOM     17  C   UNL     1      25.296   4.209  18.927  0.00  0.00    +0.000 A 
ATOM     18  C   UNL     1      26.304   5.155  18.926  0.00  0.00    +0.000 A 
BRANCH  13  20
ATOM     19  C   UNL     1      28.789   6.313  17.011  0.00  0.00    +0.000 C 
ATOM     20  C   UNL     1      27.607   6.888  17.737  0.00  0.00    +0.000 C 
ATOM     21  C   UNL     1      28.065   7.327  19.103  0.00  0.00    +0.000 C 
ENDBRANCH  13  20
ENDBRANCH   1  16
TORSDOF 2
ENDMDL
MODEL 8
REMARK VINA RESULT:      -6.6      6.226      8.193
REMARK  Name = 
REMARK  2 active torsions:
REMARK  status: ('A' for Active; 'I' for Inactive)
REMARK    1  A    between atoms: C_2  and  C_4
REMARK    2  A    between atoms: C_7  and  C_8
REMARK                            x       y       z     vdW  Elec       q    Type
REMARK                         _______ _______ _______ _____ _____    ______ ____
ROOT
ATOM      1  C   UNL     1      17.587   9.949  39.431  0.00  0.00    +0.000 C 
ATOM      2  C   UNL     1      17.139   8.980  40.163  0.00  0.00    +0.000 C 
ATOM      3  C   UNL     1      15.862   8.860  40.878  0.00  0.00    +0.000 C 
ATOM      4  O   UNL     1      14.937   9.723  40.881  0.00  0.00    +0.000 OA
ATOM      5  N   UNL     1      15.907   7.596  41.538  0.00  0.00    +0.000 NA
ATOM      6  C   UNL     1      17.124   6.944  41.271  0.00  0.00    +0.000 A 
ATOM      7  C   UNL     1      17.613   5.724  41.687  0.00  0.00    +0.000 A 
ATOM      8  C   UNL     1      18.854   5.283  41.302  0.00  0.00    +0.000 A 
ATOM      9  C   UNL     1      19.626   6.077  40.481  0.00  0.00    +0.000 A 
ATOM     10  F   UNL     1      20.856   5.735  40.046  0.00  0.00    +0.000 F 
ATOM     11  C   UNL     1      19.112   7.278  40.088  0.00  0.00    +0.000 A 
ATOM     12  C   UNL     1      17.883   7.762  40.444  0.00  0.00    +0.000 A 
ENDROOT
BRANCH   1  16
ATOM     13  C   UNL     1      21.327  10.319  37.426  0.00  0.00    +0.000 A 
ATOM     14  C   UNL     1      21.149  10.775  38.711  0.00  0.00    +0.000 A 
ATOM     15  C   UNL     1      19.942  10.648  39.367  0.00  0.00    +0.000 A 
ATOM     16  C   UNL     1      18.846  10.044  38.736  0.00  0.00    +0.000 A 
ATOM     17  C   UNL     1      19.065   9.606  37.460  0.00  0.00    +0.000 A 
ATOM     18  C   UNL     1      20.265   9.723  36.786  0.00  0.00    +0.000 A 
BRANCH  13  20
ATOM     19  C   UNL     1      23.214   9.094  36.542  0.00  0.00    +0.000 C 
ATOM     20  C   UNL     1      22.625  10.461  36.735  0.00  0.00    +0.000 C 
ATOM     21  C   UNL     1      23.621  11.297  37.495  0.00  0.00    +0.000 C 
ENDBRANCH  13  20
ENDBRANCH   1  16
TORSDOF 2
ENDMDL
MODEL 9
REMARK VINA RESULT:      -6.6      4.618      6.617
REMARK  Name = 
REMARK  2 active torsions:
REMARK  status: ('A' for Active; 'I' for Inactive)
REMARK    1  A    between atoms: C_2  and  C_4
REMARK    2  A    between atoms: C_7  and  C_8
REMARK                            x       y       z     vdW  Elec       q    Type
REMARK                         _______ _______ _______ _____ _____    ______ ____
ROOT
ATOM      1  C   UNL     1      17.021  11.274  37.396  0.00  0.00    +0.000 C 
ATOM      2  C   UNL     1      16.142  10.849  38.245  0.00  0.00    +0.000 C 
ATOM      3  C   UNL     1      14.694  11.094  38.296  0.00  0.00    +0.000 C 
ATOM      4  O   UNL     1      14.036  11.784  37.464  0.00  0.00    +0.000 OA
ATOM      5  N   UNL     1      14.227  10.404  39.454  0.00  0.00    +0.000 NA
ATOM      6  C   UNL     1      15.292   9.758  40.106  0.00  0.00    +0.000 A 
ATOM      7  C   UNL     1      15.326   8.986  41.247  0.00  0.00    +0.000 A 
ATOM      8  C   UNL     1      16.501   8.452  41.713  0.00  0.00    +0.000 A 
ATOM      9  C   UNL     1      17.671   8.692  41.025  0.00  0.00    +0.000 A 
ATOM     10  F   UNL     1      18.874   8.213  41.399  0.00  0.00    +0.000 F 
ATOM     11  C   UNL     1      17.602   9.460  39.899  0.00  0.00    +0.000 A 
ATOM     12  C   UNL     1      16.457  10.015  39.394  0.00  0.00    +0.000 A 
ENDROOT
BRANCH   1  16
ATOM     13  C   UNL     1      21.192  10.415  37.298  0.00  0.00    +0.000 A 
ATOM     14  C   UNL     1      20.281   9.650  36.607  0.00  0.00    +0.000 A 
ATOM     15  C   UNL     1      18.931   9.931  36.629  0.00  0.00    +0.000 A 
ATOM     16  C   UNL     1      18.439  11.017  37.365  0.00  0.00    +0.000 A 
ATOM     17  C   UNL     1      19.377  11.751  38.037  0.00  0.00    +0.000 A 
ATOM     18  C   UNL     1      20.733  11.486  38.028  0.00  0.00    +0.000 A 
BRANCH  13  20
ATOM     19  C   UNL     1      23.345  11.035  38.203  0.00  0.00    +0.000 C 
ATOM     20  C   UNL     1      22.636  10.103  37.266  0.00  0.00    +0.000 C 
ATOM     21  C   UNL     1      23.252  10.255  35.899  0.00  0.00    +0.000 C 
ENDBRANCH  13  20
ENDBRANCH   1  16
TORSDOF 2
ENDMDL
MODEL 10
REMARK VINA RESULT:      -6.6     18.189     19.852
REMARK  Name = 
REMARK  2 active torsions:
REMARK  status: ('A' for Active; 'I' for Inactive)
REMARK    1  A    between atoms: C_2  and  C_4
REMARK    2  A    between atoms: C_7  and  C_8
REMARK                            x       y       z     vdW  Elec       q    Type
REMARK                         _______ _______ _______ _____ _____    ______ ____
ROOT
ATOM      1  C   UNL     1      26.495  23.542  27.880  0.00  0.00    +0.000 C 
ATOM      2  C   UNL     1      27.353  23.180  28.780  0.00  0.00    +0.000 C 
ATOM      3  C   UNL     1      27.158  22.940  30.216  0.00  0.00    +0.000 C 
ATOM      4  O   UNL     1      26.059  23.038  30.835  0.00  0.00    +0.000 OA
ATOM      5  N   UNL     1      28.443  22.587  30.726  0.00  0.00    +0.000 NA
ATOM      6  C   UNL     1      29.401  22.597  29.696  0.00  0.00    +0.000 A 
ATOM      7  C   UNL     1      30.753  22.332  29.710  0.00  0.00    +0.000 A 
ATOM      8  C   UNL     1      31.508  22.410  28.567  0.00  0.00    +0.000 A 
ATOM      9  C   UNL     1      30.900  22.761  27.380  0.00  0.00    +0.000 A 
ATOM     10  F   UNL     1      31.551  22.866  26.205  0.00  0.00    +0.000 F 
ATOM     11  C   UNL     1      29.560  23.018  27.402  0.00  0.00    +0.000 A 
ATOM     12  C   UNL     1      28.765  22.953  28.515  0.00  0.00    +0.000 A 
ENDROOT
BRANCH   1  16
ATOM     13  C   UNL     1      27.097  24.312  23.734  0.00  0.00    +0.000 A 
ATOM     14  C   UNL     1      27.289  25.288  24.685  0.00  0.00    +0.000 A 
ATOM     15  C   UNL     1      27.105  25.038  26.029  0.00  0.00    +0.000 A 
ATOM     16  C   UNL     1      26.710  23.769  26.473  0.00  0.00    +0.000 A 
ATOM     17  C   UNL     1      26.529  22.830  25.497  0.00  0.00    +0.000 A 
ATOM     18  C   UNL     1      26.709  23.059  24.146  0.00  0.00    +0.000 A 
BRANCH  13  20
ATOM     19  C   UNL     1      28.553  23.901  21.849  0.00  0.00    +0.000 C 
ATOM     20  C   UNL     1      27.299  24.592  22.298  0.00  0.00    +0.000 C 
ATOM     21  C   UNL     1      27.435  26.060  21.986  0.00  0.00    +0.000 C 
ENDBRANCH  13  20
ENDBRANCH   1  16
TORSDOF 2
ENDMDL
