MODEL 1
REMARK VINA RESULT:      -6.0      0.000      0.000
REMARK  Name = 
REMARK  3 active torsions:
REMARK  status: ('A' for Active; 'I' for Inactive)
REMARK    1  A    between atoms: C_2  and  C_3
REMARK    2  A    between atoms: C_3  and  C_4
REMARK    3  A    between atoms: C_14  and  N_15
REMARK                            x       y       z     vdW  Elec       q    Type
REMARK                         _______ _______ _______ _____ _____    ______ ____
ROOT
ATOM      1  C   UNL     1      18.791  10.344  37.737  0.00  0.00    +0.000 C 
ATOM      2  C   UNL     1      19.641   9.774  36.673  0.00  0.00    +0.000 C 
ATOM      3  C   UNL     1      21.001  10.268  36.931  0.00  0.00    +0.000 A 
ATOM      4  C   UNL     1      22.227   9.965  36.270  0.00  0.00    +0.000 A 
ATOM      5  C   UNL     1      23.392  10.565  36.675  0.00  0.00    +0.000 A 
ATOM      6 CL   UNL     1      24.951  10.262  35.922  0.00  0.00    +0.000 Cl
ATOM      7  C   UNL     1      23.407  11.473  37.722  0.00  0.00    +0.000 A 
ATOM      8  C   UNL     1      22.212  11.775  38.375  0.00  0.00    +0.000 A 
ATOM      9  C   UNL     1      21.013  11.153  37.957  0.00  0.00    +0.000 A 
ATOM     10  C   UNL     1      19.657  11.309  38.535  0.00  0.00    +0.000 C 
ENDROOT
BRANCH   1  11
ATOM     11  C   UNL     1      17.568  11.039  37.234  0.00  0.00    +0.000 A 
ATOM     12  C   UNL     1      17.430  12.395  37.000  0.00  0.00    +0.000 A 
ATOM     13  N   UNL     1      16.163  12.624  36.587  0.00  0.00    +0.000 NA
ATOM     14  C   UNL     1      15.510  11.441  36.560  0.00  0.00    +0.000 A 
ATOM     15  N   UNL     1      16.398  10.490  36.958  0.00  0.00    +0.000 NA
ENDBRANCH   1  11
BRANCH   7  16
ATOM     16  N   UNL     1      24.615  12.082  38.103  0.00  0.00    +0.000 N 
ATOM     17  O   UNL     1      25.292  11.560  39.005  0.00  0.00    +0.000 OA
ATOM     18  O   UNL     1      25.055  13.218  37.519  0.00  0.00    +0.000 OA
ENDBRANCH   7  16
BRANCH   1  20
ATOM     19  C   UNL     1      18.273   9.853  40.050  0.00  0.00    +0.000 C 
ATOM     20  C   UNL     1      18.394   9.193  38.680  0.00  0.00    +0.000 C 
ENDBRANCH   1  20
TORSDOF 3
ENDMDL
MODEL 2
REMARK VINA RESULT:      -5.9      4.943      6.649
REMARK  Name = 
REMARK  3 active torsions:
REMARK  status: ('A' for Active; 'I' for Inactive)
REMARK    1  A    between atoms: C_2  and  C_3
REMARK    2  A    between atoms: C_3  and  C_4
REMARK    3  A    between atoms: C_14  and  N_15
REMARK                            x       y       z     vdW  Elec       q    Type
REMARK                         _______ _______ _______ _____ _____    ______ ____
ROOT
ATOM      1  C   UNL     1      18.047  10.299  37.983  0.00  0.00    +0.000 C 
ATOM      2  C   UNL     1      18.554   9.614  36.778  0.00  0.00    +0.000 C 
ATOM      3  C   UNL     1      17.703  10.062  35.666  0.00  0.00    +0.000 A 
ATOM      4  C   UNL     1      17.797   9.787  34.271  0.00  0.00    +0.000 A 
ATOM      5  C   UNL     1      16.868  10.306  33.405  0.00  0.00    +0.000 A 
ATOM      6 CL   UNL     1      16.894  10.019  31.671  0.00  0.00    +0.000 Cl
ATOM      7  C   UNL     1      15.827  11.100  33.858  0.00  0.00    +0.000 A 
ATOM      8  C   UNL     1      15.728  11.376  35.223  0.00  0.00    +0.000 A 
ATOM      9  C   UNL     1      16.688  10.841  36.113  0.00  0.00    +0.000 A 
ATOM     10  C   UNL     1      16.780  11.040  37.578  0.00  0.00    +0.000 C 
ENDROOT
BRANCH   1  11
ATOM     11  C   UNL     1      17.769   9.386  39.132  0.00  0.00    +0.000 A 
ATOM     12  C   UNL     1      16.798   9.557  40.103  0.00  0.00    +0.000 A 
ATOM     13  N   UNL     1      16.896   8.534  40.981  0.00  0.00    +0.000 NA
ATOM     14  C   UNL     1      17.906   7.730  40.579  0.00  0.00    +0.000 A 
ATOM     15  N   UNL     1      18.418   8.277  39.443  0.00  0.00    +0.000 NA
ENDBRANCH   1  11
BRANCH   7  16
ATOM     16  N   UNL     1      14.884  11.605  32.947  0.00  0.00    +0.000 N 
ATOM     17  O   UNL     1      14.809  12.834  32.780  0.00  0.00    +0.000 OA
ATOM     18  O   UNL     1      14.057  10.792  32.253  0.00  0.00    +0.000 OA
ENDBRANCH   7  16
BRANCH   1  20
ATOM     19  C   UNL     1      20.414  10.795  37.875  0.00  0.00    +0.000 C 
ATOM     20  C   UNL     1      19.091  11.355  38.390  0.00  0.00    +0.000 C 
ENDBRANCH   1  20
TORSDOF 3
ENDMDL
MODEL 3
REMARK VINA RESULT:      -5.7     18.533     20.513
REMARK  Name = 
REMARK  3 active torsions:
REMARK  status: ('A' for Active; 'I' for Inactive)
REMARK    1  A    between atoms: C_2  and  C_3
REMARK    2  A    between atoms: C_3  and  C_4
REMARK    3  A    between atoms: C_14  and  N_15
REMARK                            x       y       z     vdW  Elec       q    Type
REMARK                         _______ _______ _______ _____ _____    ______ ____
ROOT
ATOM      1  C   UNL     1      30.605  23.025  27.792  0.00  0.00    +0.000 C 
ATOM      2  C   UNL     1      30.449  24.446  27.426  0.00  0.00    +0.000 C 
ATOM      3  C   UNL     1      30.005  24.460  26.025  0.00  0.00    +0.000 A 
ATOM      4  C   UNL     1      29.620  25.554  25.196  0.00  0.00    +0.000 A 
ATOM      5  C   UNL     1      29.252  25.331  23.894  0.00  0.00    +0.000 A 
ATOM      6 CL   UNL     1      28.768  26.611  22.791  0.00  0.00    +0.000 Cl
ATOM      7  C   UNL     1      29.245  24.053  23.356  0.00  0.00    +0.000 A 
ATOM      8  C   UNL     1      29.618  22.977  24.162  0.00  0.00    +0.000 A 
ATOM      9  C   UNL     1      29.996  23.209  25.504  0.00  0.00    +0.000 A 
ATOM     10  C   UNL     1      30.390  22.209  26.525  0.00  0.00    +0.000 C 
ENDROOT
BRANCH   1  11
ATOM     11  C   UNL     1      31.927  22.693  28.404  0.00  0.00    +0.000 A 
ATOM     12  C   UNL     1      32.249  21.535  29.089  0.00  0.00    +0.000 A 
ATOM     13  N   UNL     1      33.528  21.640  29.513  0.00  0.00    +0.000 NA
ATOM     14  C   UNL     1      34.009  22.836  29.108  0.00  0.00    +0.000 A 
ATOM     15  N   UNL     1      33.005  23.456  28.429  0.00  0.00    +0.000 NA
ENDBRANCH   1  11
BRANCH   7  16
ATOM     16  N   UNL     1      28.875  23.860  22.014  0.00  0.00    +0.000 N 
ATOM     17  O   UNL     1      27.759  23.375  21.763  0.00  0.00    +0.000 OA
ATOM     18  O   UNL     1      29.700  24.184  20.994  0.00  0.00    +0.000 OA
ENDBRANCH   7  16
BRANCH   1  20
ATOM     19  C   UNL     1      29.351  23.894  29.672  0.00  0.00    +0.000 C 
ATOM     20  C   UNL     1      29.468  22.670  28.768  0.00  0.00    +0.000 C 
ENDBRANCH   1  20
TORSDOF 3
ENDMDL
MODEL 4
REMARK VINA RESULT:      -5.6     16.480     18.425
REMARK  Name = 
REMARK  3 active torsions:
REMARK  status: ('A' for Active; 'I' for Inactive)
REMARK    1  A    between atoms: C_2  and  C_3
REMARK    2  A    between atoms: C_3  and  C_4
REMARK    3  A    between atoms: C_14  and  N_15
REMARK                            x       y       z     vdW  Elec       q    Type
REMARK                         _______ _______ _______ _____ _____    ______ ____
ROOT
ATOM      1  C   UNL     1      27.697  23.422  29.429  0.00  0.00    +0.000 C 
ATOM      2  C   UNL     1      27.564  24.755  28.808  0.00  0.00    +0.000 C 
ATOM      3  C   UNL     1      27.379  24.517  27.369  0.00  0.00    +0.000 A 
ATOM      4  C   UNL     1      27.116  25.438  26.313  0.00  0.00    +0.000 A 
ATOM      5  C   UNL     1      26.995  24.988  25.023  0.00  0.00    +0.000 A 
ATOM      6 CL   UNL     1      26.678  26.044  23.654  0.00  0.00    +0.000 Cl
ATOM      7  C   UNL     1      27.127  23.643  24.715  0.00  0.00    +0.000 A 
ATOM      8  C   UNL     1      27.383  22.734  25.742  0.00  0.00    +0.000 A 
ATOM      9  C   UNL     1      27.505  23.200  27.071  0.00  0.00    +0.000 A 
ATOM     10  C   UNL     1      27.741  22.403  28.298  0.00  0.00    +0.000 C 
ENDROOT
BRANCH   1  11
ATOM     11  C   UNL     1      28.897  23.275  30.306  0.00  0.00    +0.000 A 
ATOM     12  C   UNL     1      29.129  23.934  31.500  0.00  0.00    +0.000 A 
ATOM     13  N   UNL     1      30.340  23.552  31.962  0.00  0.00    +0.000 NA
ATOM     14  C   UNL     1      30.867  22.669  31.084  0.00  0.00    +0.000 A 
ATOM     15  N   UNL     1      29.957  22.519  30.082  0.00  0.00    +0.000 NA
ENDBRANCH   1  11
BRANCH   7  16
ATOM     16  N   UNL     1      27.012  23.216  23.381  0.00  0.00    +0.000 N 
ATOM     17  O   UNL     1      28.044  23.082  22.703  0.00  0.00    +0.000 OA
ATOM     18  O   UNL     1      25.811  22.952  22.820  0.00  0.00    +0.000 OA
ENDBRANCH   7  16
BRANCH   1  20
ATOM     19  C   UNL     1      26.379  21.641  30.405  0.00  0.00    +0.000 C 
ATOM     20  C   UNL     1      26.414  23.158  30.239  0.00  0.00    +0.000 C 
ENDBRANCH   1  20
TORSDOF 3
ENDMDL
MODEL 5
REMARK VINA RESULT:      -5.6     17.779     19.593
REMARK  Name = 
REMARK  3 active torsions:
REMARK  status: ('A' for Active; 'I' for Inactive)
REMARK    1  A    between atoms: C_2  and  C_3
REMARK    2  A    between atoms: C_3  and  C_4
REMARK    3  A    between atoms: C_14  and  N_15
REMARK                            x       y       z     vdW  Elec       q    Type
REMARK                         _______ _______ _______ _____ _____    ______ ____
ROOT
ATOM      1  C   UNL     1      29.118  23.608  24.759  0.00  0.00    +0.000 C 
ATOM      2  C   UNL     1      29.715  24.535  25.739  0.00  0.00    +0.000 C 
ATOM      3  C   UNL     1      28.881  24.444  26.946  0.00  0.00    +0.000 A 
ATOM      4  C   UNL     1      29.047  25.055  28.224  0.00  0.00    +0.000 A 
ATOM      5  C   UNL     1      28.122  24.839  29.213  0.00  0.00    +0.000 A 
ATOM      6 CL   UNL     1      28.234  25.550  30.817  0.00  0.00    +0.000 Cl
ATOM      7  C   UNL     1      27.014  24.033  28.999  0.00  0.00    +0.000 A 
ATOM      8  C   UNL     1      26.845  23.431  27.752  0.00  0.00    +0.000 A 
ATOM      9  C   UNL     1      27.801  23.653  26.734  0.00  0.00    +0.000 A 
ATOM     10  C   UNL     1      27.823  23.085  25.366  0.00  0.00    +0.000 C 
ENDROOT
BRANCH   1  11
ATOM     11  C   UNL     1      28.854  24.219  23.422  0.00  0.00    +0.000 A 
ATOM     12  C   UNL     1      27.715  24.907  23.042  0.00  0.00    +0.000 A 
ATOM     13  N   UNL     1      27.853  25.265  21.746  0.00  0.00    +0.000 NA
ATOM     14  C   UNL     1      29.052  24.817  21.311  0.00  0.00    +0.000 A 
ATOM     15  N   UNL     1      29.642  24.184  22.361  0.00  0.00    +0.000 NA
ENDBRANCH   1  11
BRANCH   7  16
ATOM     16  N   UNL     1      26.077  23.843  30.029  0.00  0.00    +0.000 N 
ATOM     17  O   UNL     1      26.054  22.753  30.625  0.00  0.00    +0.000 OA
ATOM     18  O   UNL     1      25.203  24.811  30.383  0.00  0.00    +0.000 OA
ENDBRANCH   7  16
BRANCH   1  20
ATOM     19  C   UNL     1      31.459  22.998  24.874  0.00  0.00    +0.000 C 
ATOM     20  C   UNL     1      30.075  22.410  24.611  0.00  0.00    +0.000 C 
ENDBRANCH   1  20
TORSDOF 3
ENDMDL
MODEL 6
REMARK VINA RESULT:      -5.5     20.863     21.918
REMARK  Name = 
REMARK  3 active torsions:
REMARK  status: ('A' for Active; 'I' for Inactive)
REMARK    1  A    between atoms: C_2  and  C_3
REMARK    2  A    between atoms: C_3  and  C_4
REMARK    3  A    between atoms: C_14  and  N_15
REMARK                            x       y       z     vdW  Elec       q    Type
REMARK                         _______ _______ _______ _____ _____    ______ ____
ROOT
ATOM      1  C   UNL     1      23.231   2.264  16.924  0.00  0.00    +0.000 C 
ATOM      2  C   UNL     1      23.566   3.248  15.876  0.00  0.00    +0.000 C 
ATOM      3  C   UNL     1      24.676   4.050  16.411  0.00  0.00    +0.000 A 
ATOM      4  C   UNL     1      25.445   5.079  15.792  0.00  0.00    +0.000 A 
ATOM      5  C   UNL     1      26.437   5.712  16.496  0.00  0.00    +0.000 A 
ATOM      6 CL   UNL     1      27.434   6.995  15.826  0.00  0.00    +0.000 Cl
ATOM      7  C   UNL     1      26.714   5.374  17.812  0.00  0.00    +0.000 A 
ATOM      8  C   UNL     1      25.967   4.367  18.425  0.00  0.00    +0.000 A 
ATOM      9  C   UNL     1      24.946   3.715  17.696  0.00  0.00    +0.000 A 
ATOM     10  C   UNL     1      24.070   2.608  18.148  0.00  0.00    +0.000 C 
ENDROOT
BRANCH   1  11
ATOM     11  C   UNL     1      21.782   2.223  17.284  0.00  0.00    +0.000 A 
ATOM     12  C   UNL     1      20.861   1.271  16.884  0.00  0.00    +0.000 A 
ATOM     13  N   UNL     1      19.656   1.614  17.392  0.00  0.00    +0.000 NA
ATOM     14  C   UNL     1      19.806   2.757  18.098  0.00  0.00    +0.000 A 
ATOM     15  N   UNL     1      21.120   3.102  18.015  0.00  0.00    +0.000 NA
ENDBRANCH   1  11
BRANCH   7  16
ATOM     16  N   UNL     1      27.728   6.051  18.510  0.00  0.00    +0.000 N 
ATOM     17  O   UNL     1      28.832   5.499  18.651  0.00  0.00    +0.000 OA
ATOM     18  O   UNL     1      27.532   7.282  19.034  0.00  0.00    +0.000 OA
ENDBRANCH   7  16
BRANCH   1  20
ATOM     19  C   UNL     1      24.417   0.271  17.619  0.00  0.00    +0.000 C 
ATOM     20  C   UNL     1      23.690   0.881  16.424  0.00  0.00    +0.000 C 
ENDBRANCH   1  20
TORSDOF 3
ENDMDL
MODEL 7
REMARK VINA RESULT:      -5.4     17.918     19.092
REMARK  Name = 
REMARK  3 active torsions:
REMARK  status: ('A' for Active; 'I' for Inactive)
REMARK    1  A    between atoms: C_2  and  C_3
REMARK    2  A    between atoms: C_3  and  C_4
REMARK    3  A    between atoms: C_14  and  N_15
REMARK                            x       y       z     vdW  Elec       q    Type
REMARK                         _______ _______ _______ _____ _____    ______ ____
ROOT
ATOM      1  C   UNL     1      29.539  23.564  25.175  0.00  0.00    +0.000 C 
ATOM      2  C   UNL     1      29.632  24.576  26.246  0.00  0.00    +0.000 C 
ATOM      3  C   UNL     1      30.373  23.939  27.345  0.00  0.00    +0.000 A 
ATOM      4  C   UNL     1      30.824  24.482  28.583  0.00  0.00    +0.000 A 
ATOM      5  C   UNL     1      31.492  23.687  29.479  0.00  0.00    +0.000 A 
ATOM      6 CL   UNL     1      32.081  24.261  31.033  0.00  0.00    +0.000 Cl
ATOM      7  C   UNL     1      31.744  22.351  29.207  0.00  0.00    +0.000 A 
ATOM      8  C   UNL     1      31.308  21.812  27.996  0.00  0.00    +0.000 A 
ATOM      9  C   UNL     1      30.620  22.634  27.074  0.00  0.00    +0.000 A 
ATOM     10  C   UNL     1      30.109  22.267  25.732  0.00  0.00    +0.000 C 
ENDROOT
BRANCH   1  11
ATOM     11  C   UNL     1      28.153  23.344  24.663  0.00  0.00    +0.000 A 
ATOM     12  C   UNL     1      27.758  23.333  23.337  0.00  0.00    +0.000 A 
ATOM     13  N   UNL     1      26.421  23.138  23.299  0.00  0.00    +0.000 NA
ATOM     14  C   UNL     1      25.975  23.027  24.571  0.00  0.00    +0.000 A 
ATOM     15  N   UNL     1      27.061  23.155  25.382  0.00  0.00    +0.000 NA
ENDBRANCH   1  11
BRANCH   7  16
ATOM     16  N   UNL     1      32.420  21.560  30.151  0.00  0.00    +0.000 N 
ATOM     17  O   UNL     1      31.758  20.961  31.016  0.00  0.00    +0.000 OA
ATOM     18  O   UNL     1      33.766  21.438  30.145  0.00  0.00    +0.000 OA
ENDBRANCH   7  16
BRANCH   1  20
ATOM     19  C   UNL     1      30.535  25.535  24.182  0.00  0.00    +0.000 C 
ATOM     20  C   UNL     1      30.460  24.018  24.028  0.00  0.00    +0.000 C 
ENDBRANCH   1  20
TORSDOF 3
ENDMDL
MODEL 8
REMARK VINA RESULT:      -5.4     21.476     23.083
REMARK  Name = 
REMARK  3 active torsions:
REMARK  status: ('A' for Active; 'I' for Inactive)
REMARK    1  A    between atoms: C_2  and  C_3
REMARK    2  A    between atoms: C_3  and  C_4
REMARK    3  A    between atoms: C_14  and  N_15
REMARK                            x       y       z     vdW  Elec       q    Type
REMARK                         _______ _______ _______ _____ _____    ______ ____
ROOT
ATOM      1  C   UNL     1      27.301   5.550  17.364  0.00  0.00    +0.000 C 
ATOM      2  C   UNL     1      25.867   5.679  17.686  0.00  0.00    +0.000 C 
ATOM      3  C   UNL     1      25.308   4.322  17.609  0.00  0.00    +0.000 A 
ATOM      4  C   UNL     1      23.996   3.852  17.908  0.00  0.00    +0.000 A 
ATOM      5  C   UNL     1      23.688   2.526  17.745  0.00  0.00    +0.000 A 
ATOM      6 CL   UNL     1      22.099   1.851  18.080  0.00  0.00    +0.000 Cl
ATOM      7  C   UNL     1      24.631   1.619  17.289  0.00  0.00    +0.000 A 
ATOM      8  C   UNL     1      25.919   2.070  16.995  0.00  0.00    +0.000 A 
ATOM      9  C   UNL     1      26.234   3.437  17.165  0.00  0.00    +0.000 A 
ATOM     10  C   UNL     1      27.538   4.105  16.944  0.00  0.00    +0.000 C 
ENDROOT
BRANCH   1  11
ATOM     11  C   UNL     1      27.774   6.484  16.298  0.00  0.00    +0.000 A 
ATOM     12  C   UNL     1      26.983   7.169  15.394  0.00  0.00    +0.000 A 
ATOM     13  N   UNL     1      27.794   7.876  14.576  0.00  0.00    +0.000 NA
ATOM     14  C   UNL     1      29.073   7.646  14.950  0.00  0.00    +0.000 A 
ATOM     15  N   UNL     1      29.026   6.791  16.009  0.00  0.00    +0.000 NA
ENDBRANCH   1  11
BRANCH   7  16
ATOM     16  N   UNL     1      24.280   0.269  17.119  0.00  0.00    +0.000 N 
ATOM     17  O   UNL     1      24.761  -0.578  17.891  0.00  0.00    +0.000 OA
ATOM     18  O   UNL     1      23.440  -0.131  16.139  0.00  0.00    +0.000 OA
ENDBRANCH   7  16
BRANCH   1  20
ATOM     19  C   UNL     1      27.772   7.233  19.039  0.00  0.00    +0.000 C 
ATOM     20  C   UNL     1      28.092   5.789  18.664  0.00  0.00    +0.000 C 
ENDBRANCH   1  20
TORSDOF 3
ENDMDL
MODEL 9
REMARK VINA RESULT:      -5.4     21.492     22.732
REMARK  Name = 
REMARK  3 active torsions:
REMARK  status: ('A' for Active; 'I' for Inactive)
REMARK    1  A    between atoms: C_2  and  C_3
REMARK    2  A    between atoms: C_3  and  C_4
REMARK    3  A    between atoms: C_14  and  N_15
REMARK                            x       y       z     vdW  Elec       q    Type
REMARK                         _______ _______ _______ _____ _____    ______ ____
ROOT
ATOM      1  C   UNL     1      18.405  -8.307  26.739  0.00  0.00    +0.000 C 
ATOM      2  C   UNL     1      19.580  -9.193  26.860  0.00  0.00    +0.000 C 
ATOM      3  C   UNL     1      19.406  -9.931  28.120  0.00  0.00    +0.000 A 
ATOM      4  C   UNL     1      20.193 -10.975  28.687  0.00  0.00    +0.000 A 
ATOM      5  C   UNL     1      19.847 -11.513  29.900  0.00  0.00    +0.000 A 
ATOM      6 CL   UNL     1      20.755 -12.798  30.685  0.00  0.00    +0.000 Cl
ATOM      7  C   UNL     1      18.739 -11.060  30.599  0.00  0.00    +0.000 A 
ATOM      8  C   UNL     1      17.962 -10.039  30.050  0.00  0.00    +0.000 A 
ATOM      9  C   UNL     1      18.320  -9.487  28.799  0.00  0.00    +0.000 A 
ATOM     10  C   UNL     1      17.615  -8.430  28.035  0.00  0.00    +0.000 C 
ENDROOT
BRANCH   1  11
ATOM     11  C   UNL     1      18.744  -6.877  26.473  0.00  0.00    +0.000 A 
ATOM     12  C   UNL     1      19.811  -6.410  25.726  0.00  0.00    +0.000 A 
ATOM     13  N   UNL     1      19.786  -5.059  25.759  0.00  0.00    +0.000 NA
ATOM     14  C   UNL     1      18.729  -4.675  26.508  0.00  0.00    +0.000 A 
ATOM     15  N   UNL     1      18.110  -5.811  26.928  0.00  0.00    +0.000 NA
ENDBRANCH   1  11
BRANCH   7  16
ATOM     16  N   UNL     1      18.420 -11.623  31.846  0.00  0.00    +0.000 N 
ATOM     17  O   UNL     1      18.888 -11.107  32.875  0.00  0.00    +0.000 OA
ATOM     18  O   UNL     1      17.622 -12.709  31.954  0.00  0.00    +0.000 OA
ENDBRANCH   7  16
BRANCH   1  20
ATOM     19  C   UNL     1      16.101  -8.480  26.015  0.00  0.00    +0.000 C 
ATOM     20  C   UNL     1      17.522  -8.861  25.606  0.00  0.00    +0.000 C 
ENDBRANCH   1  20
TORSDOF 3
ENDMDL
MODEL 10
REMARK VINA RESULT:      -5.3     19.187     21.400
REMARK  Name = 
REMARK  3 active torsions:
REMARK  status: ('A' for Active; 'I' for Inactive)
REMARK    1  A    between atoms: C_2  and  C_3
REMARK    2  A    between atoms: C_3  and  C_4
REMARK    3  A    between atoms: C_14  and  N_15
REMARK                            x       y       z     vdW  Elec       q    Type
REMARK                         _______ _______ _______ _____ _____    ______ ____
ROOT
ATOM      1  C   UNL     1      33.199  -4.147  34.179  0.00  0.00    +0.000 C 
ATOM      2  C   UNL     1      32.020  -4.983  33.879  0.00  0.00    +0.000 C 
ATOM      3  C   UNL     1      32.305  -5.643  32.597  0.00  0.00    +0.000 A 
ATOM      4  C   UNL     1      31.554  -6.621  31.882  0.00  0.00    +0.000 A 
ATOM      5  C   UNL     1      32.010  -7.092  30.677  0.00  0.00    +0.000 A 
ATOM      6 CL   UNL     1      31.155  -8.292  29.718  0.00  0.00    +0.000 Cl
ATOM      7  C   UNL     1      33.198  -6.634  30.129  0.00  0.00    +0.000 A 
ATOM      8  C   UNL     1      33.940  -5.677  30.822  0.00  0.00    +0.000 A 
ATOM      9  C   UNL     1      33.469  -5.195  32.065  0.00  0.00    +0.000 A 
ATOM     10  C   UNL     1      34.118  -4.214  32.966  0.00  0.00    +0.000 C 
ENDROOT
BRANCH   1  11
ATOM     11  C   UNL     1      32.874  -2.726  34.505  0.00  0.00    +0.000 A 
ATOM     12  C   UNL     1      32.064  -2.283  35.536  0.00  0.00    +0.000 A 
ATOM     13  N   UNL     1      31.996  -0.935  35.467  0.00  0.00    +0.000 NA
ATOM     14  C   UNL     1      32.745  -0.529  34.417  0.00  0.00    +0.000 A 
ATOM     15  N   UNL     1      33.271  -1.649  33.851  0.00  0.00    +0.000 NA
ENDBRANCH   1  11
BRANCH   7  16
ATOM     16  N   UNL     1      33.631  -7.126  28.886  0.00  0.00    +0.000 N 
ATOM     17  O   UNL     1      34.384  -8.114  28.861  0.00  0.00    +0.000 OA
ATOM     18  O   UNL     1      33.253  -6.552  27.722  0.00  0.00    +0.000 OA
ENDBRANCH   7  16
BRANCH   1  20
ATOM     19  C   UNL     1      35.344  -4.199  35.302  0.00  0.00    +0.000 C 
ATOM     20  C   UNL     1      33.943  -4.802  35.358  0.00  0.00    +0.000 C 
ENDBRANCH   1  20
TORSDOF 3
ENDMDL
