MODEL 1
REMARK VINA RESULT:      -7.6      0.000      0.000
REMARK  Name = 
REMARK  2 active torsions:
REMARK  status: ('A' for Active; 'I' for Inactive)
REMARK    1  A    between atoms: C_6  and  N_7
REMARK    2  A    between atoms: C_8  and  C_10
REMARK                            x       y       z     vdW  Elec       q    Type
REMARK                         _______ _______ _______ _____ _____    ______ ____
ROOT
ATOM      1  N   UNL     1      14.915  11.146  34.630  0.00  0.00    +0.000 NA
ATOM      2  C   UNL     1      15.047  11.928  35.804  0.00  0.00    +0.000 C 
ATOM      3  O   UNL     1      15.332  13.134  35.633  0.00  0.00    +0.000 OA
ENDROOT
BRANCH   2   4
ATOM      4  C   UNL     1      14.858  11.347  37.165  0.00  0.00    +0.000 A 
ATOM      5  C   UNL     1      13.595  11.312  37.697  0.00  0.00    +0.000 A 
ATOM      6  N   UNL     1      12.346  11.767  37.128  0.00  0.00    +0.000 NA
ATOM      7  S   UNL     1      13.831  10.589  39.220  0.00  0.00    +0.000 S 
ATOM      8  C   UNL     1      15.514  10.349  39.152  0.00  0.00    +0.000 A 
ATOM      9  C   UNL     1      15.852  10.840  37.937  0.00  0.00    +0.000 A 
ATOM     10  C   UNL     1      17.329  10.762  37.581  0.00  0.00    +0.000 C 
ATOM     11  C   UNL     1      17.889   9.503  38.207  0.00  0.00    +0.000 C 
ATOM     12  C   UNL     1      17.855   9.753  39.710  0.00  0.00    +0.000 C 
ATOM     13  C   UNL     1      16.439   9.753  40.150  0.00  0.00    +0.000 C 
ENDBRANCH   2   4
BRANCH   1  19
ATOM     14  C   UNL     1      13.870  14.608  31.318  0.00  0.00    +0.000 C 
ATOM     15  C   UNL     1      14.624  13.390  31.679  0.00  0.00    +0.000 A 
ATOM     16  C   UNL     1      15.491  12.795  30.815  0.00  0.00    +0.000 A 
ATOM     17  C   UNL     1      16.167  11.672  31.190  0.00  0.00    +0.000 A 
ATOM     18  C   UNL     1      15.970  11.143  32.441  0.00  0.00    +0.000 A 
ATOM     19  C   UNL     1      15.099  11.717  33.340  0.00  0.00    +0.000 A 
ATOM     20  C   UNL     1      14.425  12.847  32.953  0.00  0.00    +0.000 A 
ENDBRANCH   1  19
TORSDOF 2
ENDMDL
MODEL 2
REMARK VINA RESULT:      -7.3     29.242     31.973
REMARK  Name = 
REMARK  2 active torsions:
REMARK  status: ('A' for Active; 'I' for Inactive)
REMARK    1  A    between atoms: C_6  and  N_7
REMARK    2  A    between atoms: C_8  and  C_10
REMARK                            x       y       z     vdW  Elec       q    Type
REMARK                         _______ _______ _______ _____ _____    ______ ____
ROOT
ATOM      1  N   UNL     1      29.992  21.444  11.197  0.00  0.00    +0.000 NA
ATOM      2  C   UNL     1      30.772  21.906  10.107  0.00  0.00    +0.000 C 
ATOM      3  O   UNL     1      30.518  23.061   9.698  0.00  0.00    +0.000 OA
ENDROOT
BRANCH   2   4
ATOM      4  C   UNL     1      31.835  21.065   9.484  0.00  0.00    +0.000 A 
ATOM      5  C   UNL     1      32.998  20.852  10.177  0.00  0.00    +0.000 A 
ATOM      6  N   UNL     1      33.389  21.331  11.484  0.00  0.00    +0.000 NA
ATOM      7  S   UNL     1      33.905  19.866   9.127  0.00  0.00    +0.000 S 
ATOM      8  C   UNL     1      32.800  19.746   7.840  0.00  0.00    +0.000 A 
ATOM      9  C   UNL     1      31.745  20.480   8.263  0.00  0.00    +0.000 A 
ATOM     10  C   UNL     1      30.569  20.561   7.301  0.00  0.00    +0.000 C 
ATOM     11  C   UNL     1      30.482  19.242   6.565  0.00  0.00    +0.000 C 
ATOM     12  C   UNL     1      31.720  19.196   5.677  0.00  0.00    +0.000 C 
ATOM     13  C   UNL     1      32.910  19.026   6.544  0.00  0.00    +0.000 C 
ENDBRANCH   2   4
BRANCH   1  19
ATOM     14  C   UNL     1      28.603  24.795  14.496  0.00  0.00    +0.000 C 
ATOM     15  C   UNL     1      28.247  23.902  13.375  0.00  0.00    +0.000 A 
ATOM     16  C   UNL     1      26.982  23.834  12.880  0.00  0.00    +0.000 A 
ATOM     17  C   UNL     1      26.698  22.995  11.843  0.00  0.00    +0.000 A 
ATOM     18  C   UNL     1      27.692  22.219  11.301  0.00  0.00    +0.000 A 
ATOM     19  C   UNL     1      28.983  22.260  11.778  0.00  0.00    +0.000 A 
ATOM     20  C   UNL     1      29.258  23.108  12.821  0.00  0.00    +0.000 A 
ENDBRANCH   1  19
TORSDOF 2
ENDMDL
MODEL 3
REMARK VINA RESULT:      -6.9     29.584     31.935
REMARK  Name = 
REMARK  2 active torsions:
REMARK  status: ('A' for Active; 'I' for Inactive)
REMARK    1  A    between atoms: C_6  and  N_7
REMARK    2  A    between atoms: C_8  and  C_10
REMARK                            x       y       z     vdW  Elec       q    Type
REMARK                         _______ _______ _______ _____ _____    ______ ____
ROOT
ATOM      1  N   UNL     1      30.727  21.121  11.152  0.00  0.00    +0.000 NA
ATOM      2  C   UNL     1      31.475  21.576  10.037  0.00  0.00    +0.000 C 
ATOM      3  O   UNL     1      31.199  22.722   9.619  0.00  0.00    +0.000 OA
ENDROOT
BRANCH   2   4
ATOM      4  C   UNL     1      32.529  20.735   9.398  0.00  0.00    +0.000 A 
ATOM      5  C   UNL     1      32.275  20.180   8.172  0.00  0.00    +0.000 A 
ATOM      6  N   UNL     1      31.092  20.277   7.347  0.00  0.00    +0.000 NA
ATOM      7  S   UNL     1      33.706  19.325   7.825  0.00  0.00    +0.000 S 
ATOM      8  C   UNL     1      34.590  19.688   9.232  0.00  0.00    +0.000 A 
ATOM      9  C   UNL     1      33.744  20.470   9.941  0.00  0.00    +0.000 A 
ATOM     10  C   UNL     1      34.268  20.964  11.281  0.00  0.00    +0.000 C 
ATOM     11  C   UNL     1      35.759  21.183  11.142  0.00  0.00    +0.000 C 
ATOM     12  C   UNL     1      36.355  19.791  10.971  0.00  0.00    +0.000 C 
ATOM     13  C   UNL     1      35.959  19.275   9.638  0.00  0.00    +0.000 C 
ENDBRANCH   2   4
BRANCH   1  19
ATOM     14  C   UNL     1      26.127  22.819  11.262  0.00  0.00    +0.000 C 
ATOM     15  C   UNL     1      27.483  22.801  11.849  0.00  0.00    +0.000 A 
ATOM     16  C   UNL     1      27.805  23.542  12.944  0.00  0.00    +0.000 A 
ATOM     17  C   UNL     1      29.069  23.495  13.453  0.00  0.00    +0.000 A 
ATOM     18  C   UNL     1      30.015  22.699  12.858  0.00  0.00    +0.000 A 
ATOM     19  C   UNL     1      29.725  21.937  11.748  0.00  0.00    +0.000 A 
ATOM     20  C   UNL     1      28.450  21.991  11.244  0.00  0.00    +0.000 A 
ENDBRANCH   1  19
TORSDOF 2
ENDMDL
MODEL 4
REMARK VINA RESULT:      -6.7      2.745      4.349
REMARK  Name = 
REMARK  2 active torsions:
REMARK  status: ('A' for Active; 'I' for Inactive)
REMARK    1  A    between atoms: C_6  and  N_7
REMARK    2  A    between atoms: C_8  and  C_10
REMARK                            x       y       z     vdW  Elec       q    Type
REMARK                         _______ _______ _______ _____ _____    ______ ____
ROOT
ATOM      1  N   UNL     1      17.102   9.930  36.635  0.00  0.00    +0.000 NA
ATOM      2  C   UNL     1      17.927  10.588  37.581  0.00  0.00    +0.000 C 
ATOM      3  O   UNL     1      18.032  11.828  37.451  0.00  0.00    +0.000 OA
ENDROOT
BRANCH   2   4
ATOM      4  C   UNL     1      18.630   9.846  38.667  0.00  0.00    +0.000 A 
ATOM      5  C   UNL     1      19.971   9.600  38.536  0.00  0.00    +0.000 A 
ATOM      6  N   UNL     1      20.869   9.959  37.461  0.00  0.00    +0.000 NA
ATOM      7  S   UNL     1      20.356   8.754  39.962  0.00  0.00    +0.000 S 
ATOM      8  C   UNL     1      18.820   8.730  40.690  0.00  0.00    +0.000 A 
ATOM      9  C   UNL     1      18.040   9.386  39.799  0.00  0.00    +0.000 A 
ATOM     10  C   UNL     1      16.575   9.529  40.184  0.00  0.00    +0.000 C 
ATOM     11  C   UNL     1      16.504   9.675  41.689  0.00  0.00    +0.000 C 
ATOM     12  C   UNL     1      16.930   8.321  42.243  0.00  0.00    +0.000 C 
ATOM     13  C   UNL     1      18.380   8.147  41.984  0.00  0.00    +0.000 C 
ENDBRANCH   2   4
BRANCH   1  19
ATOM     14  C   UNL     1      16.279  10.774  31.875  0.00  0.00    +0.000 C 
ATOM     15  C   UNL     1      15.998  11.110  33.285  0.00  0.00    +0.000 A 
ATOM     16  C   UNL     1      15.124  12.093  33.633  0.00  0.00    +0.000 A 
ATOM     17  C   UNL     1      14.894  12.370  34.948  0.00  0.00    +0.000 A 
ATOM     18  C   UNL     1      15.547  11.655  35.920  0.00  0.00    +0.000 A 
ATOM     19  C   UNL     1      16.439  10.654  35.606  0.00  0.00    +0.000 A 
ATOM     20  C   UNL     1      16.663  10.383  34.279  0.00  0.00    +0.000 A 
ENDBRANCH   1  19
TORSDOF 2
ENDMDL
MODEL 5
REMARK VINA RESULT:      -6.7     20.670     22.890
REMARK  Name = 
REMARK  2 active torsions:
REMARK  status: ('A' for Active; 'I' for Inactive)
REMARK    1  A    between atoms: C_6  and  N_7
REMARK    2  A    between atoms: C_8  and  C_10
REMARK                            x       y       z     vdW  Elec       q    Type
REMARK                         _______ _______ _______ _____ _____    ______ ____
ROOT
ATOM      1  N   UNL     1      34.144  -2.353  34.635  0.00  0.00    +0.000 NA
ATOM      2  C   UNL     1      33.153  -1.442  35.079  0.00  0.00    +0.000 C 
ATOM      3  O   UNL     1      31.968  -1.832  34.992  0.00  0.00    +0.000 OA
ENDROOT
BRANCH   2   4
ATOM      4  C   UNL     1      33.503  -0.095  35.617  0.00  0.00    +0.000 A 
ATOM      5  C   UNL     1      33.859   0.015  36.936  0.00  0.00    +0.000 A 
ATOM      6  N   UNL     1      33.960  -1.012  37.949  0.00  0.00    +0.000 NA
ATOM      7  S   UNL     1      34.168   1.679  37.121  0.00  0.00    +0.000 S 
ATOM      8  C   UNL     1      33.841   2.196  35.534  0.00  0.00    +0.000 A 
ATOM      9  C   UNL     1      33.498   1.054  34.896  0.00  0.00    +0.000 A 
ATOM     10  C   UNL     1      33.143   1.201  33.424  0.00  0.00    +0.000 C 
ATOM     11  C   UNL     1      34.004   2.304  32.848  0.00  0.00    +0.000 C 
ATOM     12  C   UNL     1      33.508   3.585  33.507  0.00  0.00    +0.000 C 
ATOM     13  C   UNL     1      33.900   3.556  34.937  0.00  0.00    +0.000 C 
ENDBRANCH   2   4
BRANCH   1  19
ATOM     14  C   UNL     1      33.124  -5.292  30.845  0.00  0.00    +0.000 C 
ATOM     15  C   UNL     1      33.284  -5.119  32.303  0.00  0.00    +0.000 A 
ATOM     16  C   UNL     1      33.104  -6.147  33.176  0.00  0.00    +0.000 A 
ATOM     17  C   UNL     1      33.262  -5.942  34.515  0.00  0.00    +0.000 A 
ATOM     18  C   UNL     1      33.603  -4.697  34.979  0.00  0.00    +0.000 A 
ATOM     19  C   UNL     1      33.792  -3.633  34.125  0.00  0.00    +0.000 A 
ATOM     20  C   UNL     1      33.631  -3.850  32.780  0.00  0.00    +0.000 A 
ENDBRANCH   1  19
TORSDOF 2
ENDMDL
MODEL 6
REMARK VINA RESULT:      -6.7      4.054      5.500
REMARK  Name = 
REMARK  2 active torsions:
REMARK  status: ('A' for Active; 'I' for Inactive)
REMARK    1  A    between atoms: C_6  and  N_7
REMARK    2  A    between atoms: C_8  and  C_10
REMARK                            x       y       z     vdW  Elec       q    Type
REMARK                         _______ _______ _______ _____ _____    ______ ____
ROOT
ATOM      1  N   UNL     1      18.134   9.894  36.956  0.00  0.00    +0.000 NA
ATOM      2  C   UNL     1      19.059  10.639  37.729  0.00  0.00    +0.000 C 
ATOM      3  O   UNL     1      18.926  11.883  37.700  0.00  0.00    +0.000 OA
ENDROOT
BRANCH   2   4
ATOM      4  C   UNL     1      20.131   9.980  38.531  0.00  0.00    +0.000 A 
ATOM      5  C   UNL     1      19.826   9.518  39.784  0.00  0.00    +0.000 A 
ATOM      6  N   UNL     1      18.571   9.564  40.500  0.00  0.00    +0.000 NA
ATOM      7  S   UNL     1      21.298   8.856  40.327  0.00  0.00    +0.000 S 
ATOM      8  C   UNL     1      22.262   9.177  38.963  0.00  0.00    +0.000 A 
ATOM      9  C   UNL     1      21.409   9.794  38.114  0.00  0.00    +0.000 A 
ATOM     10  C   UNL     1      21.997  10.211  36.774  0.00  0.00    +0.000 C 
ATOM     11  C   UNL     1      23.033   9.180  36.383  0.00  0.00    +0.000 C 
ATOM     12  C   UNL     1      24.168   9.351  37.386  0.00  0.00    +0.000 C 
ATOM     13  C   UNL     1      23.695   8.876  38.709  0.00  0.00    +0.000 C 
ENDBRANCH   2   4
BRANCH   1  19
ATOM     14  C   UNL     1      16.350  11.407  32.646  0.00  0.00    +0.000 C 
ATOM     15  C   UNL     1      16.197  11.304  34.112  0.00  0.00    +0.000 A 
ATOM     16  C   UNL     1      15.115  11.810  34.762  0.00  0.00    +0.000 A 
ATOM     17  C   UNL     1      15.014  11.693  36.117  0.00  0.00    +0.000 A 
ATOM     18  C   UNL     1      16.009  11.064  36.822  0.00  0.00    +0.000 A 
ATOM     19  C   UNL     1      17.120  10.541  36.198  0.00  0.00    +0.000 A 
ATOM     20  C   UNL     1      17.210  10.663  34.835  0.00  0.00    +0.000 A 
ENDBRANCH   1  19
TORSDOF 2
ENDMDL
MODEL 7
REMARK VINA RESULT:      -6.7      4.005      5.500
REMARK  Name = 
REMARK  2 active torsions:
REMARK  status: ('A' for Active; 'I' for Inactive)
REMARK    1  A    between atoms: C_6  and  N_7
REMARK    2  A    between atoms: C_8  and  C_10
REMARK                            x       y       z     vdW  Elec       q    Type
REMARK                         _______ _______ _______ _____ _____    ______ ____
ROOT
ATOM      1  N   UNL     1      17.968   9.951  37.153  0.00  0.00    +0.000 NA
ATOM      2  C   UNL     1      18.987  10.673  37.823  0.00  0.00    +0.000 C 
ATOM      3  O   UNL     1      18.942  11.919  37.714  0.00  0.00    +0.000 OA
ENDROOT
BRANCH   2   4
ATOM      4  C   UNL     1      20.053   9.988  38.611  0.00  0.00    +0.000 A 
ATOM      5  C   UNL     1      19.746   9.512  39.859  0.00  0.00    +0.000 A 
ATOM      6  N   UNL     1      18.494   9.565  40.579  0.00  0.00    +0.000 NA
ATOM      7  S   UNL     1      21.211   8.824  40.387  0.00  0.00    +0.000 S 
ATOM      8  C   UNL     1      22.174   9.152  39.024  0.00  0.00    +0.000 A 
ATOM      9  C   UNL     1      21.327   9.793  38.187  0.00  0.00    +0.000 A 
ATOM     10  C   UNL     1      21.916  10.221  36.852  0.00  0.00    +0.000 C 
ATOM     11  C   UNL     1      22.938   9.183  36.442  0.00  0.00    +0.000 C 
ATOM     12  C   UNL     1      24.077   9.325  37.443  0.00  0.00    +0.000 C 
ATOM     13  C   UNL     1      23.603   8.837  38.761  0.00  0.00    +0.000 C 
ENDBRANCH   2   4
BRANCH   1  19
ATOM     14  C   UNL     1      13.628  12.225  36.940  0.00  0.00    +0.000 C 
ATOM     15  C   UNL     1      14.840  11.744  36.244  0.00  0.00    +0.000 A 
ATOM     16  C   UNL     1      15.023  11.923  34.908  0.00  0.00    +0.000 A 
ATOM     17  C   UNL     1      16.157  11.464  34.306  0.00  0.00    +0.000 A 
ATOM     18  C   UNL     1      17.112  10.820  35.052  0.00  0.00    +0.000 A 
ATOM     19  C   UNL     1      16.960  10.621  36.406  0.00  0.00    +0.000 A 
ATOM     20  C   UNL     1      15.816  11.088  37.001  0.00  0.00    +0.000 A 
ENDBRANCH   1  19
TORSDOF 2
ENDMDL
MODEL 8
REMARK VINA RESULT:      -6.6     18.708     20.919
REMARK  Name = 
REMARK  2 active torsions:
REMARK  status: ('A' for Active; 'I' for Inactive)
REMARK    1  A    between atoms: C_6  and  N_7
REMARK    2  A    between atoms: C_8  and  C_10
REMARK                            x       y       z     vdW  Elec       q    Type
REMARK                         _______ _______ _______ _____ _____    ______ ____
ROOT
ATOM      1  N   UNL     1      29.521  23.424  27.659  0.00  0.00    +0.000 NA
ATOM      2  C   UNL     1      28.417  22.747  27.083  0.00  0.00    +0.000 C 
ATOM      3  O   UNL     1      28.212  21.582  27.491  0.00  0.00    +0.000 OA
ENDROOT
BRANCH   2   4
ATOM      4  C   UNL     1      27.551  23.385  26.050  0.00  0.00    +0.000 A 
ATOM      5  C   UNL     1      26.341  23.903  26.433  0.00  0.00    +0.000 A 
ATOM      6  N   UNL     1      25.731  23.937  27.743  0.00  0.00    +0.000 NA
ATOM      7  S   UNL     1      25.700  24.517  24.980  0.00  0.00    +0.000 S 
ATOM      8  C   UNL     1      26.969  24.107  23.925  0.00  0.00    +0.000 A 
ATOM      9  C   UNL     1      27.867  23.499  24.735  0.00  0.00    +0.000 A 
ATOM     10  C   UNL     1      29.140  23.011  24.061  0.00  0.00    +0.000 C 
ATOM     11  C   UNL     1      29.476  23.981  22.949  0.00  0.00    +0.000 C 
ATOM     12  C   UNL     1      28.378  23.794  21.909  0.00  0.00    +0.000 C 
ATOM     13  C   UNL     1      27.114  24.334  22.463  0.00  0.00    +0.000 C 
ENDBRANCH   2   4
BRANCH   1  19
ATOM     14  C   UNL     1      30.380  22.210  32.332  0.00  0.00    +0.000 C 
ATOM     15  C   UNL     1      30.807  22.177  30.918  0.00  0.00    +0.000 A 
ATOM     16  C   UNL     1      31.958  21.567  30.526  0.00  0.00    +0.000 A 
ATOM     17  C   UNL     1      32.313  21.560  29.209  0.00  0.00    +0.000 A 
ATOM     18  C   UNL     1      31.508  22.171  28.282  0.00  0.00    +0.000 A 
ATOM     19  C   UNL     1      30.336  22.799  28.643  0.00  0.00    +0.000 A 
ATOM     20  C   UNL     1      29.987  22.799  29.970  0.00  0.00    +0.000 A 
ENDBRANCH   1  19
TORSDOF 2
ENDMDL
MODEL 9
REMARK VINA RESULT:      -6.5     18.078     19.757
REMARK  Name = 
REMARK  2 active torsions:
REMARK  status: ('A' for Active; 'I' for Inactive)
REMARK    1  A    between atoms: C_6  and  N_7
REMARK    2  A    between atoms: C_8  and  C_10
REMARK                            x       y       z     vdW  Elec       q    Type
REMARK                         _______ _______ _______ _____ _____    ______ ____
ROOT
ATOM      1  N   UNL     1      28.827  23.478  29.448  0.00  0.00    +0.000 NA
ATOM      2  C   UNL     1      27.658  22.844  28.957  0.00  0.00    +0.000 C 
ATOM      3  O   UNL     1      27.507  21.644  29.277  0.00  0.00    +0.000 OA
ENDROOT
BRANCH   2   4
ATOM      4  C   UNL     1      26.666  23.564  28.107  0.00  0.00    +0.000 A 
ATOM      5  C   UNL     1      25.745  24.377  28.714  0.00  0.00    +0.000 A 
ATOM      6  N   UNL     1      25.564  24.669  30.118  0.00  0.00    +0.000 NA
ATOM      7  S   UNL     1      24.837  24.984  27.409  0.00  0.00    +0.000 S 
ATOM      8  C   UNL     1      25.638  24.201  26.130  0.00  0.00    +0.000 A 
ATOM      9  C   UNL     1      26.599  23.482  26.754  0.00  0.00    +0.000 A 
ATOM     10  C   UNL     1      27.500  22.656  25.848  0.00  0.00    +0.000 C 
ATOM     11  C   UNL     1      27.675  23.418  24.552  0.00  0.00    +0.000 C 
ATOM     12  C   UNL     1      26.306  23.391  23.883  0.00  0.00    +0.000 C 
ATOM     13  C   UNL     1      25.388  24.253  24.665  0.00  0.00    +0.000 C 
ENDBRANCH   2   4
BRANCH   1  19
ATOM     14  C   UNL     1      33.209  21.353  30.025  0.00  0.00    +0.000 C 
ATOM     15  C   UNL     1      31.896  21.718  30.595  0.00  0.00    +0.000 A 
ATOM     16  C   UNL     1      31.551  21.402  31.873  0.00  0.00    +0.000 A 
ATOM     17  C   UNL     1      30.328  21.760  32.358  0.00  0.00    +0.000 A 
ATOM     18  C   UNL     1      29.447  22.439  31.555  0.00  0.00    +0.000 A 
ATOM     19  C   UNL     1      29.761  22.774  30.257  0.00  0.00    +0.000 A 
ATOM     20  C   UNL     1      30.995  22.410  29.778  0.00  0.00    +0.000 A 
ENDBRANCH   1  19
TORSDOF 2
ENDMDL
MODEL 10
REMARK VINA RESULT:      -6.4      2.559      6.841
REMARK  Name = 
REMARK  2 active torsions:
REMARK  status: ('A' for Active; 'I' for Inactive)
REMARK    1  A    between atoms: C_6  and  N_7
REMARK    2  A    between atoms: C_8  and  C_10
REMARK                            x       y       z     vdW  Elec       q    Type
REMARK                         _______ _______ _______ _____ _____    ______ ____
ROOT
ATOM      1  N   UNL     1      17.314  11.197  36.074  0.00  0.00    +0.000 NA
ATOM      2  C   UNL     1      15.934  11.292  35.762  0.00  0.00    +0.000 C 
ATOM      3  O   UNL     1      15.141  10.891  36.643  0.00  0.00    +0.000 OA
ENDROOT
BRANCH   2   4
ATOM      4  C   UNL     1      15.455  11.840  34.460  0.00  0.00    +0.000 A 
ATOM      5  C   UNL     1      15.820  11.202  33.303  0.00  0.00    +0.000 A 
ATOM      6  N   UNL     1      16.636  10.022  33.123  0.00  0.00    +0.000 NA
ATOM      7  S   UNL     1      15.076  12.136  32.089  0.00  0.00    +0.000 S 
ATOM      8  C   UNL     1      14.324  13.307  33.067  0.00  0.00    +0.000 A 
ATOM      9  C   UNL     1      14.672  12.939  34.321  0.00  0.00    +0.000 A 
ATOM     10  C   UNL     1      14.134  13.819  35.440  0.00  0.00    +0.000 C 
ATOM     11  C   UNL     1      12.770  14.320  35.019  0.00  0.00    +0.000 C 
ATOM     12  C   UNL     1      13.034  15.271  33.858  0.00  0.00    +0.000 C 
ATOM     13  C   UNL     1      13.479  14.471  32.692  0.00  0.00    +0.000 C 
ENDBRANCH   2   4
BRANCH   1  19
ATOM     14  C   UNL     1      16.312   9.434  40.539  0.00  0.00    +0.000 C 
ATOM     15  C   UNL     1      17.317   9.800  39.521  0.00  0.00    +0.000 A 
ATOM     16  C   UNL     1      18.652   9.651  39.738  0.00  0.00    +0.000 A 
ATOM     17  C   UNL     1      19.546  10.002  38.770  0.00  0.00    +0.000 A 
ATOM     18  C   UNL     1      19.095  10.506  37.576  0.00  0.00    +0.000 A 
ATOM     19  C   UNL     1      17.751  10.671  37.321  0.00  0.00    +0.000 A 
ATOM     20  C   UNL     1      16.861  10.315  38.302  0.00  0.00    +0.000 A 
ENDBRANCH   1  19
TORSDOF 2
ENDMDL
