MODEL 1
REMARK VINA RESULT:      -7.5      0.000      0.000
REMARK  Name = 
REMARK  0 active torsions:
REMARK  status: ('A' for Active; 'I' for Inactive)
REMARK                            x       y       z     vdW  Elec       q    Type
REMARK                         _______ _______ _______ _____ _____    ______ ____
ROOT
ATOM      1  C   UNL     1      31.012  22.795  25.836  0.00  0.00    +0.000 C 
ATOM      2  C   UNL     1      29.765  23.221  26.564  0.00  0.00    +0.000 C 
ATOM      3  C   UNL     1      28.768  23.613  25.847  0.00  0.00    +0.000 C 
ATOM      4  C   UNL     1      28.495  23.751  24.400  0.00  0.00    +0.000 A 
ATOM      5  C   UNL     1      29.326  24.082  23.374  0.00  0.00    +0.000 A 
ATOM      6  C   UNL     1      28.836  24.098  22.059  0.00  0.00    +0.000 A 
ATOM      7  O   UNL     1      29.661  24.432  20.992  0.00  0.00    +0.000 OA
ATOM      8  C   UNL     1      27.515  23.769  21.890  0.00  0.00    +0.000 A 
ATOM      9  C   UNL     1      26.680  23.432  22.970  0.00  0.00    +0.000 A 
ATOM     10  C   UNL     1      27.153  23.417  24.244  0.00  0.00    +0.000 A 
ATOM     11  N   UNL     1      26.600  23.158  25.553  0.00  0.00    +0.000 NA
ATOM     12  C   UNL     1      27.402  24.061  26.439  0.00  0.00    +0.000 C 
ATOM     13  C   UNL     1      27.357  23.743  27.832  0.00  0.00    +0.000 C 
ATOM     14  C   UNL     1      26.067  23.890  28.636  0.00  0.00    +0.000 C 
ATOM     15  C   UNL     1      28.347  23.299  28.597  0.00  0.00    +0.000 C 
ATOM     16  C   UNL     1      28.173  23.049  30.043  0.00  0.00    +0.000 C 
ATOM     17  C   UNL     1      29.245  22.594  30.687  0.00  0.00    +0.000 C 
ATOM     18  N   UNL     1      30.498  22.345  30.064  0.00  0.00    +0.000 N 
ATOM     19  C   UNL     1      31.595  21.853  30.911  0.00  0.00    +0.000 C 
ATOM     20  C   UNL     1      30.681  22.564  28.670  0.00  0.00    +0.000 C 
ATOM     21  C   UNL     1      29.635  23.017  28.001  0.00  0.00    +0.000 C 
ENDROOT
TORSDOF 0
ENDMDL
MODEL 2
REMARK VINA RESULT:      -7.2      2.657      6.159
REMARK  Name = 
REMARK  0 active torsions:
REMARK  status: ('A' for Active; 'I' for Inactive)
REMARK                            x       y       z     vdW  Elec       q    Type
REMARK                         _______ _______ _______ _____ _____    ______ ____
ROOT
ATOM      1  C   UNL     1      31.706  23.668  25.099  0.00  0.00    +0.000 C 
ATOM      2  C   UNL     1      30.237  23.352  25.176  0.00  0.00    +0.000 C 
ATOM      3  C   UNL     1      29.794  22.876  26.290  0.00  0.00    +0.000 C 
ATOM      4  C   UNL     1      30.378  22.551  27.609  0.00  0.00    +0.000 A 
ATOM      5  C   UNL     1      31.614  22.082  27.933  0.00  0.00    +0.000 A 
ATOM      6  C   UNL     1      31.956  21.897  29.282  0.00  0.00    +0.000 A 
ATOM      7  O   UNL     1      33.211  21.419  29.643  0.00  0.00    +0.000 OA
ATOM      8  C   UNL     1      30.996  22.211  30.209  0.00  0.00    +0.000 A 
ATOM      9  C   UNL     1      29.727  22.694  29.844  0.00  0.00    +0.000 A 
ATOM     10  C   UNL     1      29.394  22.872  28.539  0.00  0.00    +0.000 A 
ATOM     11  N   UNL     1      28.220  23.305  27.817  0.00  0.00    +0.000 NA
ATOM     12  C   UNL     1      28.302  22.520  26.544  0.00  0.00    +0.000 C 
ATOM     13  C   UNL     1      27.501  23.019  25.470  0.00  0.00    +0.000 C 
ATOM     14  C   UNL     1      25.977  22.990  25.539  0.00  0.00    +0.000 C 
ATOM     15  C   UNL     1      27.916  23.552  24.326  0.00  0.00    +0.000 C 
ATOM     16  C   UNL     1      26.975  23.991  23.275  0.00  0.00    +0.000 C 
ATOM     17  C   UNL     1      27.525  24.518  22.186  0.00  0.00    +0.000 C 
ATOM     18  N   UNL     1      28.926  24.673  22.001  0.00  0.00    +0.000 N 
ATOM     19  C   UNL     1      29.386  25.264  20.734  0.00  0.00    +0.000 C 
ATOM     20  C   UNL     1      29.848  24.272  23.006  0.00  0.00    +0.000 C 
ATOM     21  C   UNL     1      29.333  23.743  24.104  0.00  0.00    +0.000 C 
ENDROOT
TORSDOF 0
ENDMDL
MODEL 3
REMARK VINA RESULT:      -6.9     19.666     21.708
REMARK  Name = 
REMARK  0 active torsions:
REMARK  status: ('A' for Active; 'I' for Inactive)
REMARK                            x       y       z     vdW  Elec       q    Type
REMARK                         _______ _______ _______ _____ _____    ______ ____
ROOT
ATOM      1  C   UNL     1      15.590   9.846  40.551  0.00  0.00    +0.000 C 
ATOM      2  C   UNL     1      16.770   9.734  39.624  0.00  0.00    +0.000 C 
ATOM      3  C   UNL     1      16.662  10.282  38.462  0.00  0.00    +0.000 C 
ATOM      4  C   UNL     1      15.624  11.058  37.751  0.00  0.00    +0.000 A 
ATOM      5  C   UNL     1      14.267  10.970  37.805  0.00  0.00    +0.000 A 
ATOM      6  C   UNL     1      13.481  11.866  37.063  0.00  0.00    +0.000 A 
ATOM      7  O   UNL     1      12.093  11.801  37.098  0.00  0.00    +0.000 OA
ATOM      8  C   UNL     1      14.152  12.798  36.313  0.00  0.00    +0.000 A 
ATOM      9  C   UNL     1      15.557  12.864  36.277  0.00  0.00    +0.000 A 
ATOM     10  C   UNL     1      16.318  11.997  36.993  0.00  0.00    +0.000 A 
ATOM     11  N   UNL     1      17.732  11.758  37.170  0.00  0.00    +0.000 NA
ATOM     12  C   UNL     1      17.795  10.278  37.397  0.00  0.00    +0.000 C 
ATOM     13  C   UNL     1      19.007   9.806  37.989  0.00  0.00    +0.000 C 
ATOM     14  C   UNL     1      20.334   9.875  37.239  0.00  0.00    +0.000 C 
ATOM     15  C   UNL     1      19.169   9.273  39.195  0.00  0.00    +0.000 C 
ATOM     16  C   UNL     1      20.480   8.782  39.669  0.00  0.00    +0.000 C 
ATOM     17  C   UNL     1      20.502   8.284  40.902  0.00  0.00    +0.000 C 
ATOM     18  N   UNL     1      19.363   8.212  41.749  0.00  0.00    +0.000 N 
ATOM     19  C   UNL     1      19.542   7.622  43.085  0.00  0.00    +0.000 C 
ATOM     20  C   UNL     1      18.096   8.693  41.317  0.00  0.00    +0.000 C 
ATOM     21  C   UNL     1      18.039   9.195  40.095  0.00  0.00    +0.000 C 
ENDROOT
TORSDOF 0
ENDMDL
MODEL 4
REMARK VINA RESULT:      -6.9      2.094      3.512
REMARK  Name = 
REMARK  0 active torsions:
REMARK  status: ('A' for Active; 'I' for Inactive)
REMARK                            x       y       z     vdW  Elec       q    Type
REMARK                         _______ _______ _______ _____ _____    ______ ____
ROOT
ATOM      1  C   UNL     1      28.242  22.530  26.432  0.00  0.00    +0.000 C 
ATOM      2  C   UNL     1      29.595  23.039  26.013  0.00  0.00    +0.000 C 
ATOM      3  C   UNL     1      29.682  23.595  24.853  0.00  0.00    +0.000 C 
ATOM      4  C   UNL     1      28.743  23.903  23.753  0.00  0.00    +0.000 A 
ATOM      5  C   UNL     1      27.649  23.224  23.313  0.00  0.00    +0.000 A 
ATOM      6  C   UNL     1      26.875  23.752  22.268  0.00  0.00    +0.000 A 
ATOM      7  O   UNL     1      25.753  23.081  21.798  0.00  0.00    +0.000 OA
ATOM      8  C   UNL     1      27.284  24.952  21.746  0.00  0.00    +0.000 A 
ATOM      9  C   UNL     1      28.420  25.631  22.221  0.00  0.00    +0.000 A 
ATOM     10  C   UNL     1      29.170  25.120  23.232  0.00  0.00    +0.000 A 
ATOM     11  N   UNL     1      30.373  25.510  23.931  0.00  0.00    +0.000 NA
ATOM     12  C   UNL     1      30.998  24.194  24.280  0.00  0.00    +0.000 C 
ATOM     13  C   UNL     1      31.988  24.246  25.310  0.00  0.00    +0.000 C 
ATOM     14  C   UNL     1      33.318  24.964  25.094  0.00  0.00    +0.000 C 
ATOM     15  C   UNL     1      31.922  23.723  26.528  0.00  0.00    +0.000 C 
ATOM     16  C   UNL     1      33.044  23.814  27.486  0.00  0.00    +0.000 C 
ATOM     17  C   UNL     1      32.838  23.257  28.676  0.00  0.00    +0.000 C 
ATOM     18  N   UNL     1      31.630  22.609  29.050  0.00  0.00    +0.000 N 
ATOM     19  C   UNL     1      31.556  22.030  30.401  0.00  0.00    +0.000 C 
ATOM     20  C   UNL     1      30.533  22.525  28.149  0.00  0.00    +0.000 C 
ATOM     21  C   UNL     1      30.705  23.069  26.956  0.00  0.00    +0.000 C 
ENDROOT
TORSDOF 0
ENDMDL
MODEL 5
REMARK VINA RESULT:      -6.9     32.201     32.628
REMARK  Name = 
REMARK  0 active torsions:
REMARK  status: ('A' for Active; 'I' for Inactive)
REMARK                            x       y       z     vdW  Elec       q    Type
REMARK                         _______ _______ _______ _____ _____    ______ ____
ROOT
ATOM      1  C   UNL     1      20.726 -10.306  24.524  0.00  0.00    +0.000 C 
ATOM      2  C   UNL     1      20.375  -8.972  25.126  0.00  0.00    +0.000 C 
ATOM      3  C   UNL     1      21.287  -8.060  25.113  0.00  0.00    +0.000 C 
ATOM      4  C   UNL     1      22.676  -7.960  24.618  0.00  0.00    +0.000 A 
ATOM      5  C   UNL     1      23.657  -8.902  24.549  0.00  0.00    +0.000 A 
ATOM      6  C   UNL     1      24.898  -8.573  23.982  0.00  0.00    +0.000 A 
ATOM      7  O   UNL     1      25.918  -9.514  23.898  0.00  0.00    +0.000 OA
ATOM      8  C   UNL     1      25.044  -7.290  23.522  0.00  0.00    +0.000 A 
ATOM      9  C   UNL     1      24.012  -6.338  23.607  0.00  0.00    +0.000 A 
ATOM     10  C   UNL     1      22.811  -6.654  24.157  0.00  0.00    +0.000 A 
ATOM     11  N   UNL     1      21.577  -5.953  24.429  0.00  0.00    +0.000 NA
ATOM     12  C   UNL     1      21.079  -6.624  25.672  0.00  0.00    +0.000 C 
ATOM     13  C   UNL     1      19.694  -6.418  25.959  0.00  0.00    +0.000 C 
ATOM     14  C   UNL     1      19.161  -5.039  26.338  0.00  0.00    +0.000 C 
ATOM     15  C   UNL     1      18.718  -7.319  25.945  0.00  0.00    +0.000 C 
ATOM     16  C   UNL     1      17.327  -6.978  26.308  0.00  0.00    +0.000 C 
ATOM     17  C   UNL     1      16.447  -7.973  26.238  0.00  0.00    +0.000 C 
ATOM     18  N   UNL     1      16.778  -9.297  25.839  0.00  0.00    +0.000 N 
ATOM     19  C   UNL     1      15.697 -10.295  25.822  0.00  0.00    +0.000 C 
ATOM     20  C   UNL     1      18.108  -9.642  25.471  0.00  0.00    +0.000 C 
ATOM     21  C   UNL     1      19.007  -8.674  25.530  0.00  0.00    +0.000 C 
ENDROOT
TORSDOF 0
ENDMDL
MODEL 6
REMARK VINA RESULT:      -6.9     22.124     24.338
REMARK  Name = 
REMARK  0 active torsions:
REMARK  status: ('A' for Active; 'I' for Inactive)
REMARK                            x       y       z     vdW  Elec       q    Type
REMARK                         _______ _______ _______ _____ _____    ______ ____
ROOT
ATOM      1  C   UNL     1      15.942   9.477  41.691  0.00  0.00    +0.000 C 
ATOM      2  C   UNL     1      16.660   8.171  41.483  0.00  0.00    +0.000 C 
ATOM      3  C   UNL     1      17.504   8.111  40.509  0.00  0.00    +0.000 C 
ATOM      4  C   UNL     1      18.003   9.049  39.482  0.00  0.00    +0.000 A 
ATOM      5  C   UNL     1      17.368  10.061  38.830  0.00  0.00    +0.000 A 
ATOM      6  C   UNL     1      18.079  10.858  37.920  0.00  0.00    +0.000 A 
ATOM      7  O   UNL     1      17.457  11.898  37.239  0.00  0.00    +0.000 OA
ATOM      8  C   UNL     1      19.405  10.556  37.743  0.00  0.00    +0.000 A 
ATOM      9  C   UNL     1      20.035   9.504  38.431  0.00  0.00    +0.000 A 
ATOM     10  C   UNL     1      19.347   8.731  39.311  0.00  0.00    +0.000 A 
ATOM     11  N   UNL     1      19.647   7.589  40.144  0.00  0.00    +0.000 NA
ATOM     12  C   UNL     1      18.346   6.847  40.173  0.00  0.00    +0.000 C 
ATOM     13  C   UNL     1      18.215   5.891  41.228  0.00  0.00    +0.000 C 
ATOM     14  C   UNL     1      19.079   4.633  41.268  0.00  0.00    +0.000 C 
ATOM     15  C   UNL     1      17.389   5.934  42.268  0.00  0.00    +0.000 C 
ATOM     16  C   UNL     1      17.327   4.850  43.269  0.00  0.00    +0.000 C 
ATOM     17  C   UNL     1      16.464   5.028  44.265  0.00  0.00    +0.000 C 
ATOM     18  N   UNL     1      15.637   6.176  44.402  0.00  0.00    +0.000 N 
ATOM     19  C   UNL     1      14.722   6.225  45.554  0.00  0.00    +0.000 C 
ATOM     20  C   UNL     1      15.693   7.238  43.457  0.00  0.00    +0.000 C 
ATOM     21  C   UNL     1      16.541   7.092  42.454  0.00  0.00    +0.000 C 
ENDROOT
TORSDOF 0
ENDMDL
MODEL 7
REMARK VINA RESULT:      -6.8      2.314      4.049
REMARK  Name = 
REMARK  0 active torsions:
REMARK  status: ('A' for Active; 'I' for Inactive)
REMARK                            x       y       z     vdW  Elec       q    Type
REMARK                         _______ _______ _______ _____ _____    ______ ____
ROOT
ATOM      1  C   UNL     1      24.699  25.426  26.271  0.00  0.00    +0.000 C 
ATOM      2  C   UNL     1      25.637  24.602  27.112  0.00  0.00    +0.000 C 
ATOM      3  C   UNL     1      26.505  23.878  26.491  0.00  0.00    +0.000 C 
ATOM      4  C   UNL     1      26.862  23.635  25.077  0.00  0.00    +0.000 A 
ATOM      5  C   UNL     1      26.080  23.601  23.964  0.00  0.00    +0.000 A 
ATOM      6  C   UNL     1      26.668  23.398  22.706  0.00  0.00    +0.000 A 
ATOM      7  O   UNL     1      25.895  23.359  21.551  0.00  0.00    +0.000 OA
ATOM      8  C   UNL     1      28.031  23.245  22.680  0.00  0.00    +0.000 A 
ATOM      9  C   UNL     1      28.814  23.284  23.848  0.00  0.00    +0.000 A 
ATOM     10  C   UNL     1      28.245  23.478  25.067  0.00  0.00    +0.000 A 
ATOM     11  N   UNL     1      28.714  23.545  26.432  0.00  0.00    +0.000 NA
ATOM     12  C   UNL     1      27.560  22.990  27.208  0.00  0.00    +0.000 C 
ATOM     13  C   UNL     1      27.567  23.290  28.606  0.00  0.00    +0.000 C 
ATOM     14  C   UNL     1      28.634  22.714  29.534  0.00  0.00    +0.000 C 
ATOM     15  C   UNL     1      26.719  24.060  29.277  0.00  0.00    +0.000 C 
ATOM     16  C   UNL     1      26.816  24.253  30.739  0.00  0.00    +0.000 C 
ATOM     17  C   UNL     1      25.909  25.061  31.280  0.00  0.00    +0.000 C 
ATOM     18  N   UNL     1      24.893  25.723  30.538  0.00  0.00    +0.000 N 
ATOM     19  C   UNL     1      23.953  26.577  31.281  0.00  0.00    +0.000 C 
ATOM     20  C   UNL     1      24.792  25.563  29.129  0.00  0.00    +0.000 C 
ATOM     21  C   UNL     1      25.679  24.766  28.558  0.00  0.00    +0.000 C 
ENDROOT
TORSDOF 0
ENDMDL
MODEL 8
REMARK VINA RESULT:      -6.7      3.035      5.159
REMARK  Name = 
REMARK  0 active torsions:
REMARK  status: ('A' for Active; 'I' for Inactive)
REMARK                            x       y       z     vdW  Elec       q    Type
REMARK                         _______ _______ _______ _____ _____    ______ ____
ROOT
ATOM      1  C   UNL     1      23.850  26.018  26.012  0.00  0.00    +0.000 C 
ATOM      2  C   UNL     1      24.571  25.330  27.139  0.00  0.00    +0.000 C 
ATOM      3  C   UNL     1      25.480  24.472  26.822  0.00  0.00    +0.000 C 
ATOM      4  C   UNL     1      26.057  23.959  25.561  0.00  0.00    +0.000 A 
ATOM      5  C   UNL     1      25.476  23.750  24.347  0.00  0.00    +0.000 A 
ATOM      6  C   UNL     1      26.255  23.298  23.272  0.00  0.00    +0.000 A 
ATOM      7  O   UNL     1      25.690  23.074  22.021  0.00  0.00    +0.000 OA
ATOM      8  C   UNL     1      27.588  23.092  23.520  0.00  0.00    +0.000 A 
ATOM      9  C   UNL     1      28.160  23.317  24.785  0.00  0.00    +0.000 A 
ATOM     10  C   UNL     1      27.407  23.753  25.828  0.00  0.00    +0.000 A 
ATOM     11  N   UNL     1      27.639  24.053  27.222  0.00  0.00    +0.000 NA
ATOM     12  C   UNL     1      26.333  23.693  27.862  0.00  0.00    +0.000 C 
ATOM     13  C   UNL     1      26.122  24.245  29.164  0.00  0.00    +0.000 C 
ATOM     14  C   UNL     1      26.972  23.811  30.355  0.00  0.00    +0.000 C 
ATOM     15  C   UNL     1      25.226  25.157  29.525  0.00  0.00    +0.000 C 
ATOM     16  C   UNL     1      25.085  25.612  30.924  0.00  0.00    +0.000 C 
ATOM     17  C   UNL     1      24.157  26.538  31.143  0.00  0.00    +0.000 C 
ATOM     18  N   UNL     1      23.331  27.089  30.125  0.00  0.00    +0.000 N 
ATOM     19  C   UNL     1      22.339  28.100  30.525  0.00  0.00    +0.000 C 
ATOM     20  C   UNL     1      23.461  26.676  28.771  0.00  0.00    +0.000 C 
ATOM     21  C   UNL     1      24.376  25.756  28.519  0.00  0.00    +0.000 C 
ENDROOT
TORSDOF 0
ENDMDL
MODEL 9
REMARK VINA RESULT:      -6.7      3.110      6.657
REMARK  Name = 
REMARK  0 active torsions:
REMARK  status: ('A' for Active; 'I' for Inactive)
REMARK                            x       y       z     vdW  Elec       q    Type
REMARK                         _______ _______ _______ _____ _____    ______ ____
ROOT
ATOM      1  C   UNL     1      25.947  25.851  26.046  0.00  0.00    +0.000 C 
ATOM      2  C   UNL     1      27.221  25.095  25.782  0.00  0.00    +0.000 C 
ATOM      3  C   UNL     1      27.657  24.326  26.722  0.00  0.00    +0.000 C 
ATOM      4  C   UNL     1      27.201  23.949  28.077  0.00  0.00    +0.000 A 
ATOM      5  C   UNL     1      26.538  24.676  29.017  0.00  0.00    +0.000 A 
ATOM      6  C   UNL     1      26.164  24.071  30.227  0.00  0.00    +0.000 A 
ATOM      7  O   UNL     1      25.486  24.789  31.207  0.00  0.00    +0.000 OA
ATOM      8  C   UNL     1      26.498  22.751  30.386  0.00  0.00    +0.000 A 
ATOM      9  C   UNL     1      27.184  22.025  29.395  0.00  0.00    +0.000 A 
ATOM     10  C   UNL     1      27.548  22.610  28.224  0.00  0.00    +0.000 A 
ATOM     11  N   UNL     1      28.261  22.198  27.037  0.00  0.00    +0.000 NA
ATOM     12  C   UNL     1      28.942  23.460  26.602  0.00  0.00    +0.000 C 
ATOM     13  C   UNL     1      29.400  23.467  25.248  0.00  0.00    +0.000 C 
ATOM     14  C   UNL     1      30.530  22.549  24.789  0.00  0.00    +0.000 C 
ATOM     15  C   UNL     1      28.954  24.212  24.243  0.00  0.00    +0.000 C 
ATOM     16  C   UNL     1      29.550  24.151  22.892  0.00  0.00    +0.000 C 
ATOM     17  C   UNL     1      28.997  24.941  21.977  0.00  0.00    +0.000 C 
ATOM     18  N   UNL     1      27.898  25.805  22.234  0.00  0.00    +0.000 N 
ATOM     19  C   UNL     1      27.402  26.629  21.120  0.00  0.00    +0.000 C 
ATOM     20  C   UNL     1      27.299  25.867  23.523  0.00  0.00    +0.000 C 
ATOM     21  C   UNL     1      27.826  25.093  24.457  0.00  0.00    +0.000 C 
ENDROOT
TORSDOF 0
ENDMDL
MODEL 10
REMARK VINA RESULT:      -6.7      2.951      6.850
REMARK  Name = 
REMARK  0 active torsions:
REMARK  status: ('A' for Active; 'I' for Inactive)
REMARK                            x       y       z     vdW  Elec       q    Type
REMARK                         _______ _______ _______ _____ _____    ______ ____
ROOT
ATOM      1  C   UNL     1      27.382  22.648  28.554  0.00  0.00    +0.000 C 
ATOM      2  C   UNL     1      28.502  22.954  27.597  0.00  0.00    +0.000 C 
ATOM      3  C   UNL     1      29.704  22.914  28.063  0.00  0.00    +0.000 C 
ATOM      4  C   UNL     1      30.322  22.612  29.372  0.00  0.00    +0.000 A 
ATOM      5  C   UNL     1      29.871  22.848  30.634  0.00  0.00    +0.000 A 
ATOM      6  C   UNL     1      30.626  22.416  31.735  0.00  0.00    +0.000 A 
ATOM      7  O   UNL     1      30.191  22.642  33.036  0.00  0.00    +0.000 OA
ATOM      8  C   UNL     1      31.802  21.765  31.459  0.00  0.00    +0.000 A 
ATOM      9  C   UNL     1      32.243  21.537  30.143  0.00  0.00    +0.000 A 
ATOM     10  C   UNL     1      31.513  21.955  29.077  0.00  0.00    +0.000 A 
ATOM     11  N   UNL     1      31.662  21.922  27.640  0.00  0.00    +0.000 NA
ATOM     12  C   UNL     1      30.973  23.179  27.204  0.00  0.00    +0.000 C 
ATOM     13  C   UNL     1      30.613  23.226  25.821  0.00  0.00    +0.000 C 
ATOM     14  C   UNL     1      31.677  23.279  24.728  0.00  0.00    +0.000 C 
ATOM     15  C   UNL     1      29.392  23.229  25.298  0.00  0.00    +0.000 C 
ATOM     16  C   UNL     1      29.159  23.325  23.842  0.00  0.00    +0.000 C 
ATOM     17  C   UNL     1      27.887  23.303  23.455  0.00  0.00    +0.000 C 
ATOM     18  N   UNL     1      26.788  23.192  24.349  0.00  0.00    +0.000 N 
ATOM     19  C   UNL     1      25.435  23.194  23.770  0.00  0.00    +0.000 C 
ATOM     20  C   UNL     1      26.991  23.083  25.752  0.00  0.00    +0.000 C 
ATOM     21  C   UNL     1      28.245  23.101  26.171  0.00  0.00    +0.000 C 
ENDROOT
TORSDOF 0
ENDMDL
