MODEL 1
REMARK VINA RESULT:      -7.0      0.000      0.000
REMARK  Name = 
REMARK  7 active torsions:
REMARK  status: ('A' for Active; 'I' for Inactive)
REMARK    1  A    between atoms: C_5  and  C_6
REMARK    2  A    between atoms: C_6  and  S_7
REMARK    3  A    between atoms: S_7  and  C_8
REMARK    4  A    between atoms: N_19  and  C_20
REMARK    5  A    between atoms: C_20  and  C_21
REMARK    6  A    between atoms: C_21  and  C_22
REMARK    7  A    between atoms: C_22  and  C_23
REMARK                            x       y       z     vdW  Elec       q    Type
REMARK                         _______ _______ _______ _____ _____    ______ ____
ROOT
ATOM      1  C   UNL     1      36.545   2.829  16.373  0.00  0.00    +0.000 A 
ATOM      2  N   UNL     1      37.252   3.486  17.310  0.00  0.00    +0.000 NA
ATOM      3  C   UNL     1      38.158   4.291  16.736  0.00  0.00    +0.000 A 
ATOM      4  C   UNL     1      38.009   4.128  15.367  0.00  0.00    +0.000 A 
ATOM      5  C   UNL     1      38.832   4.852  14.521  0.00  0.00    +0.000 A 
ATOM      6  O   UNL     1      38.685   4.694  13.282  0.00  0.00    +0.000 OA
ATOM      7  N   UNL     1      39.746   5.687  15.054  0.00  0.00    +0.000 NA
ATOM      8  C   UNL     1      39.886   5.841  16.384  0.00  0.00    +0.000 A 
ATOM      9  O   UNL     1      40.739   6.619  16.834  0.00  0.00    +0.000 OA
ATOM     10  N   UNL     1      39.086   5.136  17.204  0.00  0.00    +0.000 N 
ATOM     11  C   UNL     1      39.215   5.283  18.657  0.00  0.00    +0.000 C 
ATOM     12  N   UNL     1      37.012   3.225  15.178  0.00  0.00    +0.000 N 
ENDROOT
BRANCH   1  13
ATOM     13  S   UNL     1      35.239   1.658  16.704  0.00  0.00    +0.000 S 
BRANCH  13  14
ATOM     14  C   UNL     1      35.669   0.519  18.021  0.00  0.00    +0.000 C 
BRANCH  14  19
ATOM     15  C   UNL     1      36.420  -4.907  16.212  0.00  0.00    +0.000 C 
ATOM     16  C   UNL     1      36.167  -3.503  16.627  0.00  0.00    +0.000 A 
ATOM     17  C   UNL     1      36.990  -2.995  17.619  0.00  0.00    +0.000 A 
ATOM     18  C   UNL     1      36.820  -1.690  18.064  0.00  0.00    +0.000 A 
ATOM     19  C   UNL     1      35.845  -0.871  17.543  0.00  0.00    +0.000 A 
ATOM     20  C   UNL     1      35.035  -1.390  16.557  0.00  0.00    +0.000 A 
ATOM     21  C   UNL     1      35.200  -2.703  16.103  0.00  0.00    +0.000 A 
ENDBRANCH  14  19
ENDBRANCH  13  14
ENDBRANCH   1  13
BRANCH  12  22
ATOM     22  C   UNL     1      36.550   2.780  13.873  0.00  0.00    +0.000 C 
BRANCH  22  23
ATOM     23  C   UNL     1      37.415   1.625  13.426  0.00  0.00    +0.000 C 
BRANCH  23  24
ATOM     24  C   UNL     1      36.707   0.297  13.608  0.00  0.00    +0.000 C 
BRANCH  24  25
ATOM     25  C   UNL     1      37.689  -0.736  14.053  0.00  0.00    +0.000 A 
ATOM     26  C   UNL     1      37.739  -1.993  13.514  0.00  0.00    +0.000 A 
ATOM     27  C   UNL     1      38.664  -2.904  13.963  0.00  0.00    +0.000 A 
ATOM     28  C   UNL     1      39.567  -2.598  14.959  0.00  0.00    +0.000 A 
ATOM     29  C   UNL     1      39.482  -1.321  15.473  0.00  0.00    +0.000 A 
ATOM     30  C   UNL     1      38.567  -0.388  15.044  0.00  0.00    +0.000 A 
ENDBRANCH  24  25
ENDBRANCH  23  24
ENDBRANCH  22  23
ENDBRANCH  12  22
TORSDOF 7
ENDMDL
MODEL 2
REMARK VINA RESULT:      -6.4      3.051      6.755
REMARK  Name = 
REMARK  7 active torsions:
REMARK  status: ('A' for Active; 'I' for Inactive)
REMARK    1  A    between atoms: C_5  and  C_6
REMARK    2  A    between atoms: C_6  and  S_7
REMARK    3  A    between atoms: S_7  and  C_8
REMARK    4  A    between atoms: N_19  and  C_20
REMARK    5  A    between atoms: C_20  and  C_21
REMARK    6  A    between atoms: C_21  and  C_22
REMARK    7  A    between atoms: C_22  and  C_23
REMARK                            x       y       z     vdW  Elec       q    Type
REMARK                         _______ _______ _______ _____ _____    ______ ____
ROOT
ATOM      1  C   UNL     1      38.537   1.635  14.638  0.00  0.00    +0.000 A 
ATOM      2  N   UNL     1      39.854   1.394  14.509  0.00  0.00    +0.000 NA
ATOM      3  C   UNL     1      40.064   0.121  14.140  0.00  0.00    +0.000 A 
ATOM      4  C   UNL     1      38.810  -0.463  14.033  0.00  0.00    +0.000 A 
ATOM      5  C   UNL     1      38.731  -1.794  13.662  0.00  0.00    +0.000 A 
ATOM      6  O   UNL     1      37.588  -2.311  13.569  0.00  0.00    +0.000 OA
ATOM      7  N   UNL     1      39.869  -2.475  13.416  0.00  0.00    +0.000 NA
ATOM      8  C   UNL     1      41.083  -1.902  13.520  0.00  0.00    +0.000 A 
ATOM      9  O   UNL     1      42.104  -2.562  13.287  0.00  0.00    +0.000 OA
ATOM     10  N   UNL     1      41.158  -0.608  13.883  0.00  0.00    +0.000 N 
ATOM     11  C   UNL     1      42.465   0.043  14.005  0.00  0.00    +0.000 C 
ATOM     12  N   UNL     1      37.896   0.491  14.345  0.00  0.00    +0.000 N 
ENDROOT
BRANCH   1  13
ATOM     13  S   UNL     1      37.820   3.199  15.114  0.00  0.00    +0.000 S 
BRANCH  13  14
ATOM     14  C   UNL     1      38.993   4.549  14.980  0.00  0.00    +0.000 C 
BRANCH  14  19
ATOM     15  C   UNL     1      40.528   6.603  20.147  0.00  0.00    +0.000 C 
ATOM     16  C   UNL     1      40.194   6.111  18.786  0.00  0.00    +0.000 A 
ATOM     17  C   UNL     1      39.073   5.304  18.678  0.00  0.00    +0.000 A 
ATOM     18  C   UNL     1      38.692   4.802  17.440  0.00  0.00    +0.000 A 
ATOM     19  C   UNL     1      39.404   5.086  16.297  0.00  0.00    +0.000 A 
ATOM     20  C   UNL     1      40.516   5.890  16.420  0.00  0.00    +0.000 A 
ATOM     21  C   UNL     1      40.906   6.399  17.663  0.00  0.00    +0.000 A 
ENDBRANCH  14  19
ENDBRANCH  13  14
ENDBRANCH   1  13
BRANCH  12  22
ATOM     22  C   UNL     1      36.459   0.274  14.352  0.00  0.00    +0.000 C 
BRANCH  22  23
ATOM     23  C   UNL     1      35.995   0.176  15.787  0.00  0.00    +0.000 C 
BRANCH  23  24
ATOM     24  C   UNL     1      35.647  -1.252  16.161  0.00  0.00    +0.000 C 
BRANCH  24  25
ATOM     25  C   UNL     1      36.525  -1.702  17.282  0.00  0.00    +0.000 A 
ATOM     26  C   UNL     1      36.382  -1.246  18.565  0.00  0.00    +0.000 A 
ATOM     27  C   UNL     1      37.219  -1.694  19.558  0.00  0.00    +0.000 A 
ATOM     28  C   UNL     1      38.222  -2.608  19.312  0.00  0.00    +0.000 A 
ATOM     29  C   UNL     1      38.330  -3.041  18.006  0.00  0.00    +0.000 A 
ATOM     30  C   UNL     1      37.507  -2.610  16.992  0.00  0.00    +0.000 A 
ENDBRANCH  24  25
ENDBRANCH  23  24
ENDBRANCH  22  23
ENDBRANCH  12  22
TORSDOF 7
ENDMDL
MODEL 3
REMARK VINA RESULT:      -6.3      2.796      4.896
REMARK  Name = 
REMARK  7 active torsions:
REMARK  status: ('A' for Active; 'I' for Inactive)
REMARK    1  A    between atoms: C_5  and  C_6
REMARK    2  A    between atoms: C_6  and  S_7
REMARK    3  A    between atoms: S_7  and  C_8
REMARK    4  A    between atoms: N_19  and  C_20
REMARK    5  A    between atoms: C_20  and  C_21
REMARK    6  A    between atoms: C_21  and  C_22
REMARK    7  A    between atoms: C_22  and  C_23
REMARK                            x       y       z     vdW  Elec       q    Type
REMARK                         _______ _______ _______ _____ _____    ______ ____
ROOT
ATOM      1  C   UNL     1      37.621   2.700  12.475  0.00  0.00    +0.000 A 
ATOM      2  N   UNL     1      37.487   3.387  11.326  0.00  0.00    +0.000 NA
ATOM      3  C   UNL     1      36.705   4.461  11.511  0.00  0.00    +0.000 A 
ATOM      4  C   UNL     1      36.331   4.443  12.847  0.00  0.00    +0.000 A 
ATOM      5  C   UNL     1      35.509   5.453  13.317  0.00  0.00    +0.000 A 
ATOM      6  O   UNL     1      35.178   5.424  14.530  0.00  0.00    +0.000 OA
ATOM      7  N   UNL     1      35.103   6.417  12.466  0.00  0.00    +0.000 NA
ATOM      8  C   UNL     1      35.469   6.429  11.171  0.00  0.00    +0.000 A 
ATOM      9  O   UNL     1      35.074   7.332  10.421  0.00  0.00    +0.000 OA
ATOM     10  N   UNL     1      36.268   5.446  10.715  0.00  0.00    +0.000 N 
ATOM     11  C   UNL     1      36.684   5.433   9.310  0.00  0.00    +0.000 C 
ATOM     12  N   UNL     1      36.909   3.350  13.409  0.00  0.00    +0.000 N 
ENDROOT
BRANCH   1  13
ATOM     13  S   UNL     1      38.577   1.205  12.672  0.00  0.00    +0.000 S 
BRANCH  13  14
ATOM     14  C   UNL     1      37.539  -0.254  12.777  0.00  0.00    +0.000 C 
BRANCH  14  19
ATOM     15  C   UNL     1      38.887  -3.549  17.315  0.00  0.00    +0.000 C 
ATOM     16  C   UNL     1      38.507  -2.763  16.114  0.00  0.00    +0.000 A 
ATOM     17  C   UNL     1      38.851  -1.421  16.119  0.00  0.00    +0.000 A 
ATOM     18  C   UNL     1      38.532  -0.616  15.033  0.00  0.00    +0.000 A 
ATOM     19  C   UNL     1      37.875  -1.116  13.932  0.00  0.00    +0.000 A 
ATOM     20  C   UNL     1      37.541  -2.453  13.941  0.00  0.00    +0.000 A 
ATOM     21  C   UNL     1      37.858  -3.270  15.031  0.00  0.00    +0.000 A 
ENDBRANCH  14  19
ENDBRANCH  13  14
ENDBRANCH   1  13
BRANCH  12  22
ATOM     22  C   UNL     1      36.758   2.974  14.805  0.00  0.00    +0.000 C 
BRANCH  22  23
ATOM     23  C   UNL     1      35.630   1.975  14.914  0.00  0.00    +0.000 C 
BRANCH  23  24
ATOM     24  C   UNL     1      34.978   2.022  16.282  0.00  0.00    +0.000 C 
BRANCH  24  25
ATOM     25  C   UNL     1      35.332   0.788  17.046  0.00  0.00    +0.000 A 
ATOM     26  C   UNL     1      36.014   0.821  18.232  0.00  0.00    +0.000 A 
ATOM     27  C   UNL     1      36.313  -0.346  18.892  0.00  0.00    +0.000 A 
ATOM     28  C   UNL     1      35.946  -1.580  18.399  0.00  0.00    +0.000 A 
ATOM     29  C   UNL     1      35.260  -1.566  17.201  0.00  0.00    +0.000 A 
ATOM     30  C   UNL     1      34.947  -0.415  16.519  0.00  0.00    +0.000 A 
ENDBRANCH  24  25
ENDBRANCH  23  24
ENDBRANCH  22  23
ENDBRANCH  12  22
TORSDOF 7
ENDMDL
MODEL 4
REMARK VINA RESULT:      -6.1      2.913      6.287
REMARK  Name = 
REMARK  7 active torsions:
REMARK  status: ('A' for Active; 'I' for Inactive)
REMARK    1  A    between atoms: C_5  and  C_6
REMARK    2  A    between atoms: C_6  and  S_7
REMARK    3  A    between atoms: S_7  and  C_8
REMARK    4  A    between atoms: N_19  and  C_20
REMARK    5  A    between atoms: C_20  and  C_21
REMARK    6  A    between atoms: C_21  and  C_22
REMARK    7  A    between atoms: C_22  and  C_23
REMARK                            x       y       z     vdW  Elec       q    Type
REMARK                         _______ _______ _______ _____ _____    ______ ____
ROOT
ATOM      1  C   UNL     1      36.900   2.314  15.341  0.00  0.00    +0.000 A 
ATOM      2  N   UNL     1      36.663   1.808  16.565  0.00  0.00    +0.000 NA
ATOM      3  C   UNL     1      36.622   0.468  16.517  0.00  0.00    +0.000 A 
ATOM      4  C   UNL     1      36.846   0.119  15.194  0.00  0.00    +0.000 A 
ATOM      5  C   UNL     1      36.857  -1.224  14.857  0.00  0.00    +0.000 A 
ATOM      6  O   UNL     1      37.062  -1.524  13.653  0.00  0.00    +0.000 OA
ATOM      7  N   UNL     1      36.651  -2.143  15.821  0.00  0.00    +0.000 NA
ATOM      8  C   UNL     1      36.434  -1.799  17.104  0.00  0.00    +0.000 A 
ATOM      9  O   UNL     1      36.248  -2.674  17.960  0.00  0.00    +0.000 OA
ATOM     10  N   UNL     1      36.423  -0.493  17.430  0.00  0.00    +0.000 N 
ATOM     11  C   UNL     1      36.190  -0.087  18.819  0.00  0.00    +0.000 C 
ATOM     12  N   UNL     1      37.013   1.274  14.499  0.00  0.00    +0.000 N 
ENDROOT
BRANCH   1  13
ATOM     13  S   UNL     1      37.033   4.052  14.957  0.00  0.00    +0.000 S 
BRANCH  13  14
ATOM     14  C   UNL     1      38.738   4.603  14.890  0.00  0.00    +0.000 C 
BRANCH  14  19
ATOM     15  C   UNL     1      40.620   6.440  20.024  0.00  0.00    +0.000 C 
ATOM     16  C   UNL     1      40.196   6.003  18.669  0.00  0.00    +0.000 A 
ATOM     17  C   UNL     1      39.043   5.238  18.599  0.00  0.00    +0.000 A 
ATOM     18  C   UNL     1      38.579   4.789  17.370  0.00  0.00    +0.000 A 
ATOM     19  C   UNL     1      39.237   5.084  16.198  0.00  0.00    +0.000 A 
ATOM     20  C   UNL     1      40.382   5.845  16.283  0.00  0.00    +0.000 A 
ATOM     21  C   UNL     1      40.857   6.301  17.518  0.00  0.00    +0.000 A 
ENDBRANCH  14  19
ENDBRANCH  13  14
ENDBRANCH   1  13
BRANCH  12  22
ATOM     22  C   UNL     1      37.271   1.337  13.070  0.00  0.00    +0.000 C 
BRANCH  22  23
ATOM     23  C   UNL     1      38.760   1.467  12.856  0.00  0.00    +0.000 C 
BRANCH  23  24
ATOM     24  C   UNL     1      39.269   0.445  11.858  0.00  0.00    +0.000 C 
BRANCH  24  25
ATOM     25  C   UNL     1      39.986  -0.646  12.584  0.00  0.00    +0.000 A 
ATOM     26  C   UNL     1      40.206  -1.882  12.036  0.00  0.00    +0.000 A 
ATOM     27  C   UNL     1      40.871  -2.848  12.750  0.00  0.00    +0.000 A 
ATOM     28  C   UNL     1      41.340  -2.622  14.026  0.00  0.00    +0.000 A 
ATOM     29  C   UNL     1      41.099  -1.364  14.539  0.00  0.00    +0.000 A 
ATOM     30  C   UNL     1      40.436  -0.377  13.848  0.00  0.00    +0.000 A 
ENDBRANCH  24  25
ENDBRANCH  23  24
ENDBRANCH  22  23
ENDBRANCH  12  22
TORSDOF 7
ENDMDL
MODEL 5
REMARK VINA RESULT:      -6.1      3.579      6.873
REMARK  Name = 
REMARK  7 active torsions:
REMARK  status: ('A' for Active; 'I' for Inactive)
REMARK    1  A    between atoms: C_5  and  C_6
REMARK    2  A    between atoms: C_6  and  S_7
REMARK    3  A    between atoms: S_7  and  C_8
REMARK    4  A    between atoms: N_19  and  C_20
REMARK    5  A    between atoms: C_20  and  C_21
REMARK    6  A    between atoms: C_21  and  C_22
REMARK    7  A    between atoms: C_22  and  C_23
REMARK                            x       y       z     vdW  Elec       q    Type
REMARK                         _______ _______ _______ _____ _____    ______ ____
ROOT
ATOM      1  C   UNL     1      37.667  -1.075  14.935  0.00  0.00    +0.000 A 
ATOM      2  N   UNL     1      38.107  -2.034  15.770  0.00  0.00    +0.000 NA
ATOM      3  C   UNL     1      37.689  -1.793  17.022  0.00  0.00    +0.000 A 
ATOM      4  C   UNL     1      36.949  -0.622  16.965  0.00  0.00    +0.000 A 
ATOM      5  C   UNL     1      36.392  -0.135  18.135  0.00  0.00    +0.000 A 
ATOM      6  O   UNL     1      35.723   0.928  18.069  0.00  0.00    +0.000 OA
ATOM      7  N   UNL     1      36.585  -0.813  19.284  0.00  0.00    +0.000 NA
ATOM      8  C   UNL     1      37.304  -1.950  19.333  0.00  0.00    +0.000 A 
ATOM      9  O   UNL     1      37.458  -2.543  20.409  0.00  0.00    +0.000 OA
ATOM     10  N   UNL     1      37.846  -2.421  18.195  0.00  0.00    +0.000 N 
ATOM     11  C   UNL     1      38.634  -3.657  18.216  0.00  0.00    +0.000 C 
ATOM     12  N   UNL     1      36.955  -0.207  15.672  0.00  0.00    +0.000 N 
ENDROOT
BRANCH   1  13
ATOM     13  S   UNL     1      37.994  -1.010  13.181  0.00  0.00    +0.000 S 
BRANCH  13  14
ATOM     14  C   UNL     1      39.397  -2.025  12.717  0.00  0.00    +0.000 C 
BRANCH  14  19
ATOM     15  C   UNL     1      44.391  -0.207  14.957  0.00  0.00    +0.000 C 
ATOM     16  C   UNL     1      43.087  -0.601  14.367  0.00  0.00    +0.000 A 
ATOM     17  C   UNL     1      42.813  -1.959  14.321  0.00  0.00    +0.000 A 
ATOM     18  C   UNL     1      41.615  -2.410  13.784  0.00  0.00    +0.000 A 
ATOM     19  C   UNL     1      40.673  -1.539  13.287  0.00  0.00    +0.000 A 
ATOM     20  C   UNL     1      40.958  -0.192  13.340  0.00  0.00    +0.000 A 
ATOM     21  C   UNL     1      42.163   0.271  13.879  0.00  0.00    +0.000 A 
ENDBRANCH  14  19
ENDBRANCH  13  14
ENDBRANCH   1  13
BRANCH  12  22
ATOM     22  C   UNL     1      36.286   0.993  15.196  0.00  0.00    +0.000 C 
BRANCH  22  23
ATOM     23  C   UNL     1      37.283   2.128  15.192  0.00  0.00    +0.000 C 
BRANCH  23  24
ATOM     24  C   UNL     1      36.712   3.371  15.845  0.00  0.00    +0.000 C 
BRANCH  24  25
ATOM     25  C   UNL     1      37.818   4.171  16.449  0.00  0.00    +0.000 A 
ATOM     26  C   UNL     1      37.989   4.299  17.801  0.00  0.00    +0.000 A 
ATOM     27  C   UNL     1      39.025   5.049  18.302  0.00  0.00    +0.000 A 
ATOM     28  C   UNL     1      39.924   5.695  17.480  0.00  0.00    +0.000 A 
ATOM     29  C   UNL     1      39.716   5.539  16.125  0.00  0.00    +0.000 A 
ATOM     30  C   UNL     1      38.688   4.795  15.595  0.00  0.00    +0.000 A 
ENDBRANCH  24  25
ENDBRANCH  23  24
ENDBRANCH  22  23
ENDBRANCH  12  22
TORSDOF 7
ENDMDL
MODEL 6
REMARK VINA RESULT:      -6.0      2.745      6.676
REMARK  Name = 
REMARK  7 active torsions:
REMARK  status: ('A' for Active; 'I' for Inactive)
REMARK    1  A    between atoms: C_5  and  C_6
REMARK    2  A    between atoms: C_6  and  S_7
REMARK    3  A    between atoms: S_7  and  C_8
REMARK    4  A    between atoms: N_19  and  C_20
REMARK    5  A    between atoms: C_20  and  C_21
REMARK    6  A    between atoms: C_21  and  C_22
REMARK    7  A    between atoms: C_22  and  C_23
REMARK                            x       y       z     vdW  Elec       q    Type
REMARK                         _______ _______ _______ _____ _____    ______ ____
ROOT
ATOM      1  C   UNL     1      38.449   4.244  14.936  0.00  0.00    +0.000 A 
ATOM      2  N   UNL     1      39.588   3.824  14.358  0.00  0.00    +0.000 NA
ATOM      3  C   UNL     1      39.398   2.644  13.750  0.00  0.00    +0.000 A 
ATOM      4  C   UNL     1      38.069   2.309  13.960  0.00  0.00    +0.000 A 
ATOM      5  C   UNL     1      37.596   1.120  13.432  0.00  0.00    +0.000 A 
ATOM      6  O   UNL     1      36.388   0.830  13.630  0.00  0.00    +0.000 OA
ATOM      7  N   UNL     1      38.438   0.332  12.735  0.00  0.00    +0.000 NA
ATOM      8  C   UNL     1      39.727   0.662  12.534  0.00  0.00    +0.000 A 
ATOM      9  O   UNL     1      40.469  -0.091  11.888  0.00  0.00    +0.000 OA
ATOM     10  N   UNL     1      40.186   1.818  13.048  0.00  0.00    +0.000 N 
ATOM     11  C   UNL     1      41.585   2.204  12.846  0.00  0.00    +0.000 C 
ATOM     12  N   UNL     1      37.515   3.311  14.690  0.00  0.00    +0.000 N 
ENDROOT
BRANCH   1  13
ATOM     13  S   UNL     1      38.261   5.766  15.851  0.00  0.00    +0.000 S 
BRANCH  13  14
ATOM     14  C   UNL     1      38.402   5.514  17.620  0.00  0.00    +0.000 C 
BRANCH  14  19
ATOM     15  C   UNL     1      43.597   7.035  19.613  0.00  0.00    +0.000 C 
ATOM     16  C   UNL     1      42.234   6.645  19.174  0.00  0.00    +0.000 A 
ATOM     17  C   UNL     1      42.053   6.458  17.812  0.00  0.00    +0.000 A 
ATOM     18  C   UNL     1      40.807   6.092  17.319  0.00  0.00    +0.000 A 
ATOM     19  C   UNL     1      39.728   5.905  18.152  0.00  0.00    +0.000 A 
ATOM     20  C   UNL     1      39.923   6.093  19.503  0.00  0.00    +0.000 A 
ATOM     21  C   UNL     1      41.174   6.462  20.007  0.00  0.00    +0.000 A 
ENDBRANCH  14  19
ENDBRANCH  13  14
ENDBRANCH   1  13
BRANCH  12  22
ATOM     22  C   UNL     1      36.127   3.336  15.122  0.00  0.00    +0.000 C 
BRANCH  22  23
ATOM     23  C   UNL     1      36.045   2.747  16.510  0.00  0.00    +0.000 C 
BRANCH  23  24
ATOM     24  C   UNL     1      34.881   1.784  16.637  0.00  0.00    +0.000 C 
BRANCH  24  25
ATOM     25  C   UNL     1      35.366   0.484  17.189  0.00  0.00    +0.000 A 
ATOM     26  C   UNL     1      35.175  -0.711  16.548  0.00  0.00    +0.000 A 
ATOM     27  C   UNL     1      35.643  -1.878  17.102  0.00  0.00    +0.000 A 
ATOM     28  C   UNL     1      36.314  -1.898  18.306  0.00  0.00    +0.000 A 
ATOM     29  C   UNL     1      36.485  -0.672  18.917  0.00  0.00    +0.000 A 
ATOM     30  C   UNL     1      36.028   0.511  18.386  0.00  0.00    +0.000 A 
ENDBRANCH  24  25
ENDBRANCH  23  24
ENDBRANCH  22  23
ENDBRANCH  12  22
TORSDOF 7
ENDMDL
MODEL 7
REMARK VINA RESULT:      -6.0     26.657     28.712
REMARK  Name = 
REMARK  7 active torsions:
REMARK  status: ('A' for Active; 'I' for Inactive)
REMARK    1  A    between atoms: C_5  and  C_6
REMARK    2  A    between atoms: C_6  and  S_7
REMARK    3  A    between atoms: S_7  and  C_8
REMARK    4  A    between atoms: N_19  and  C_20
REMARK    5  A    between atoms: C_20  and  C_21
REMARK    6  A    between atoms: C_21  and  C_22
REMARK    7  A    between atoms: C_22  and  C_23
REMARK                            x       y       z     vdW  Elec       q    Type
REMARK                         _______ _______ _______ _____ _____    ______ ____
ROOT
ATOM      1  C   UNL     1      29.331  14.031  39.786  0.00  0.00    +0.000 A 
ATOM      2  N   UNL     1      29.552  12.859  40.408  0.00  0.00    +0.000 NA
ATOM      3  C   UNL     1      28.403  12.357  40.885  0.00  0.00    +0.000 A 
ATOM      4  C   UNL     1      27.412  13.265  40.542  0.00  0.00    +0.000 A 
ATOM      5  C   UNL     1      26.108  12.991  40.917  0.00  0.00    +0.000 A 
ATOM      6  O   UNL     1      25.219  13.823  40.599  0.00  0.00    +0.000 OA
ATOM      7  N   UNL     1      25.846  11.858  41.598  0.00  0.00    +0.000 NA
ATOM      8  C   UNL     1      26.812  10.981  41.928  0.00  0.00    +0.000 A 
ATOM      9  O   UNL     1      26.530   9.951  42.555  0.00  0.00    +0.000 OA
ATOM     10  N   UNL     1      28.079  11.248  41.563  0.00  0.00    +0.000 N 
ATOM     11  C   UNL     1      29.153  10.312  41.907  0.00  0.00    +0.000 C 
ATOM     12  N   UNL     1      28.014  14.279  39.870  0.00  0.00    +0.000 N 
ENDROOT
BRANCH   1  13
ATOM     13  S   UNL     1      30.586  15.035  39.010  0.00  0.00    +0.000 S 
BRANCH  13  14
ATOM     14  C   UNL     1      30.632  14.807  37.232  0.00  0.00    +0.000 C 
BRANCH  14  19
ATOM     15  C   UNL     1      28.109  19.169  34.424  0.00  0.00    +0.000 C 
ATOM     16  C   UNL     1      28.753  18.003  35.082  0.00  0.00    +0.000 A 
ATOM     17  C   UNL     1      29.136  18.173  36.403  0.00  0.00    +0.000 A 
ATOM     18  C   UNL     1      29.745  17.131  37.091  0.00  0.00    +0.000 A 
ATOM     19  C   UNL     1      29.983  15.914  36.494  0.00  0.00    +0.000 A 
ATOM     20  C   UNL     1      29.596  15.760  35.181  0.00  0.00    +0.000 A 
ATOM     21  C   UNL     1      28.983  16.805  34.481  0.00  0.00    +0.000 A 
ENDBRANCH  14  19
ENDBRANCH  13  14
ENDBRANCH   1  13
BRANCH  12  22
ATOM     22  C   UNL     1      27.312  15.437  39.339  0.00  0.00    +0.000 C 
BRANCH  22  23
ATOM     23  C   UNL     1      26.859  15.120  37.933  0.00  0.00    +0.000 C 
BRANCH  23  24
ATOM     24  C   UNL     1      25.816  16.109  37.450  0.00  0.00    +0.000 C 
BRANCH  24  25
ATOM     25  C   UNL     1      25.675  16.001  35.967  0.00  0.00    +0.000 A 
ATOM     26  C   UNL     1      26.001  14.869  35.271  0.00  0.00    +0.000 A 
ATOM     27  C   UNL     1      25.852  14.826  33.907  0.00  0.00    +0.000 A 
ATOM     28  C   UNL     1      25.374  15.902  33.189  0.00  0.00    +0.000 A 
ATOM     29  C   UNL     1      25.056  17.022  33.930  0.00  0.00    +0.000 A 
ATOM     30  C   UNL     1      25.196  17.094  35.296  0.00  0.00    +0.000 A 
ENDBRANCH  24  25
ENDBRANCH  23  24
ENDBRANCH  22  23
ENDBRANCH  12  22
TORSDOF 7
ENDMDL
MODEL 8
REMARK VINA RESULT:      -6.0      2.062      4.138
REMARK  Name = 
REMARK  7 active torsions:
REMARK  status: ('A' for Active; 'I' for Inactive)
REMARK    1  A    between atoms: C_5  and  C_6
REMARK    2  A    between atoms: C_6  and  S_7
REMARK    3  A    between atoms: S_7  and  C_8
REMARK    4  A    between atoms: N_19  and  C_20
REMARK    5  A    between atoms: C_20  and  C_21
REMARK    6  A    between atoms: C_21  and  C_22
REMARK    7  A    between atoms: C_22  and  C_23
REMARK                            x       y       z     vdW  Elec       q    Type
REMARK                         _______ _______ _______ _____ _____    ______ ____
ROOT
ATOM      1  C   UNL     1      37.674   2.453  13.371  0.00  0.00    +0.000 A 
ATOM      2  N   UNL     1      38.462   3.468  13.768  0.00  0.00    +0.000 NA
ATOM      3  C   UNL     1      38.290   3.711  15.076  0.00  0.00    +0.000 A 
ATOM      4  C   UNL     1      37.345   2.798  15.519  0.00  0.00    +0.000 A 
ATOM      5  C   UNL     1      36.974   2.827  16.853  0.00  0.00    +0.000 A 
ATOM      6  O   UNL     1      36.116   1.992  17.241  0.00  0.00    +0.000 OA
ATOM      7  N   UNL     1      37.542   3.735  17.672  0.00  0.00    +0.000 NA
ATOM      8  C   UNL     1      38.459   4.618  17.236  0.00  0.00    +0.000 A 
ATOM      9  O   UNL     1      38.956   5.437  18.020  0.00  0.00    +0.000 OA
ATOM     10  N   UNL     1      38.818   4.590  15.939  0.00  0.00    +0.000 N 
ATOM     11  C   UNL     1      39.814   5.540  15.435  0.00  0.00    +0.000 C 
ATOM     12  N   UNL     1      36.988   2.041  14.450  0.00  0.00    +0.000 N 
ENDROOT
BRANCH   1  13
ATOM     13  S   UNL     1      37.589   1.806  11.709  0.00  0.00    +0.000 S 
BRANCH  13  14
ATOM     14  C   UNL     1      39.069   0.899  11.260  0.00  0.00    +0.000 C 
BRANCH  14  19
ATOM     15  C   UNL     1      40.628  -2.949  15.264  0.00  0.00    +0.000 C 
ATOM     16  C   UNL     1      40.191  -2.016  14.195  0.00  0.00    +0.000 A 
ATOM     17  C   UNL     1      40.562  -0.689  14.343  0.00  0.00    +0.000 A 
ATOM     18  C   UNL     1      40.193   0.248  13.386  0.00  0.00    +0.000 A 
ATOM     19  C   UNL     1      39.459  -0.104  12.277  0.00  0.00    +0.000 A 
ATOM     20  C   UNL     1      39.099  -1.427  12.142  0.00  0.00    +0.000 A 
ATOM     21  C   UNL     1      39.466  -2.377  13.102  0.00  0.00    +0.000 A 
ENDBRANCH  14  19
ENDBRANCH  13  14
ENDBRANCH   1  13
BRANCH  12  22
ATOM     22  C   UNL     1      36.012   0.965  14.501  0.00  0.00    +0.000 C 
BRANCH  22  23
ATOM     23  C   UNL     1      36.750  -0.345  14.642  0.00  0.00    +0.000 C 
BRANCH  23  24
ATOM     24  C   UNL     1      35.924  -1.369  15.397  0.00  0.00    +0.000 C 
BRANCH  24  25
ATOM     25  C   UNL     1      36.811  -2.150  16.310  0.00  0.00    +0.000 A 
ATOM     26  C   UNL     1      37.528  -1.571  17.323  0.00  0.00    +0.000 A 
ATOM     27  C   UNL     1      38.329  -2.338  18.132  0.00  0.00    +0.000 A 
ATOM     28  C   UNL     1      38.445  -3.702  17.965  0.00  0.00    +0.000 A 
ATOM     29  C   UNL     1      37.705  -4.244  16.934  0.00  0.00    +0.000 A 
ATOM     30  C   UNL     1      36.896  -3.501  16.108  0.00  0.00    +0.000 A 
ENDBRANCH  24  25
ENDBRANCH  23  24
ENDBRANCH  22  23
ENDBRANCH  12  22
TORSDOF 7
ENDMDL
MODEL 9
REMARK VINA RESULT:      -6.0      2.241      5.687
REMARK  Name = 
REMARK  7 active torsions:
REMARK  status: ('A' for Active; 'I' for Inactive)
REMARK    1  A    between atoms: C_5  and  C_6
REMARK    2  A    between atoms: C_6  and  S_7
REMARK    3  A    between atoms: S_7  and  C_8
REMARK    4  A    between atoms: N_19  and  C_20
REMARK    5  A    between atoms: C_20  and  C_21
REMARK    6  A    between atoms: C_21  and  C_22
REMARK    7  A    between atoms: C_22  and  C_23
REMARK                            x       y       z     vdW  Elec       q    Type
REMARK                         _______ _______ _______ _____ _____    ______ ____
ROOT
ATOM      1  C   UNL     1      36.586   2.834  15.087  0.00  0.00    +0.000 A 
ATOM      2  N   UNL     1      36.528   1.980  14.049  0.00  0.00    +0.000 NA
ATOM      3  C   UNL     1      37.223   2.461  13.007  0.00  0.00    +0.000 A 
ATOM      4  C   UNL     1      37.742   3.680  13.417  0.00  0.00    +0.000 A 
ATOM      5  C   UNL     1      38.513   4.404  12.523  0.00  0.00    +0.000 A 
ATOM      6  O   UNL     1      38.977   5.507  12.908  0.00  0.00    +0.000 OA
ATOM      7  N   UNL     1      38.733   3.901  11.291  0.00  0.00    +0.000 NA
ATOM      8  C   UNL     1      38.226   2.717  10.899  0.00  0.00    +0.000 A 
ATOM      9  O   UNL     1      38.451   2.291   9.759  0.00  0.00    +0.000 OA
ATOM     10  N   UNL     1      37.477   2.016  11.769  0.00  0.00    +0.000 N 
ATOM     11  C   UNL     1      36.912   0.723  11.372  0.00  0.00    +0.000 C 
ATOM     12  N   UNL     1      37.333   3.880  14.696  0.00  0.00    +0.000 N 
ENDROOT
BRANCH   1  13
ATOM     13  S   UNL     1      35.799   2.583  16.669  0.00  0.00    +0.000 S 
BRANCH  13  14
ATOM     14  C   UNL     1      35.043   0.962  16.800  0.00  0.00    +0.000 C 
BRANCH  14  19
ATOM     15  C   UNL     1      38.567  -2.972  19.120  0.00  0.00    +0.000 C 
ATOM     16  C   UNL     1      37.689  -1.977  18.452  0.00  0.00    +0.000 A 
ATOM     17  C   UNL     1      36.836  -1.256  19.273  0.00  0.00    +0.000 A 
ATOM     18  C   UNL     1      35.983  -0.306  18.728  0.00  0.00    +0.000 A 
ATOM     19  C   UNL     1      35.955  -0.052  17.376  0.00  0.00    +0.000 A 
ATOM     20  C   UNL     1      36.809  -0.776  16.572  0.00  0.00    +0.000 A 
ATOM     21  C   UNL     1      37.671  -1.735  17.114  0.00  0.00    +0.000 A 
ENDBRANCH  14  19
ENDBRANCH  13  14
ENDBRANCH   1  13
BRANCH  12  22
ATOM     22  C   UNL     1      37.669   5.052  15.487  0.00  0.00    +0.000 C 
BRANCH  22  23
ATOM     23  C   UNL     1      38.858   4.719  16.358  0.00  0.00    +0.000 C 
BRANCH  23  24
ATOM     24  C   UNL     1      38.663   5.216  17.777  0.00  0.00    +0.000 C 
BRANCH  24  25
ATOM     25  C   UNL     1      39.936   5.820  18.273  0.00  0.00    +0.000 A 
ATOM     26  C   UNL     1      41.007   6.067  17.458  0.00  0.00    +0.000 A 
ATOM     27  C   UNL     1      42.154   6.624  17.969  0.00  0.00    +0.000 A 
ATOM     28  C   UNL     1      42.275   6.954  19.302  0.00  0.00    +0.000 A 
ATOM     29  C   UNL     1      41.172   6.689  20.087  0.00  0.00    +0.000 A 
ATOM     30  C   UNL     1      40.012   6.132  19.604  0.00  0.00    +0.000 A 
ENDBRANCH  24  25
ENDBRANCH  23  24
ENDBRANCH  22  23
ENDBRANCH  12  22
TORSDOF 7
ENDMDL
MODEL 10
REMARK VINA RESULT:      -6.0      2.596      3.649
REMARK  Name = 
REMARK  7 active torsions:
REMARK  status: ('A' for Active; 'I' for Inactive)
REMARK    1  A    between atoms: C_5  and  C_6
REMARK    2  A    between atoms: C_6  and  S_7
REMARK    3  A    between atoms: S_7  and  C_8
REMARK    4  A    between atoms: N_19  and  C_20
REMARK    5  A    between atoms: C_20  and  C_21
REMARK    6  A    between atoms: C_21  and  C_22
REMARK    7  A    between atoms: C_22  and  C_23
REMARK                            x       y       z     vdW  Elec       q    Type
REMARK                         _______ _______ _______ _____ _____    ______ ____
ROOT
ATOM      1  C   UNL     1      36.336   3.820  14.763  0.00  0.00    +0.000 A 
ATOM      2  N   UNL     1      35.363   4.734  14.597  0.00  0.00    +0.000 NA
ATOM      3  C   UNL     1      35.457   5.305  13.387  0.00  0.00    +0.000 A 
ATOM      4  C   UNL     1      36.547   4.716  12.764  0.00  0.00    +0.000 A 
ATOM      5  C   UNL     1      36.877   5.125  11.483  0.00  0.00    +0.000 A 
ATOM      6  O   UNL     1      37.868   4.582  10.931  0.00  0.00    +0.000 OA
ATOM      7  N   UNL     1      36.131   6.077  10.887  0.00  0.00    +0.000 NA
ATOM      8  C   UNL     1      35.074   6.645  11.496  0.00  0.00    +0.000 A 
ATOM      9  O   UNL     1      34.415   7.516  10.915  0.00  0.00    +0.000 OA
ATOM     10  N   UNL     1      34.755   6.246  12.742  0.00  0.00    +0.000 N 
ATOM     11  C   UNL     1      33.609   6.846  13.431  0.00  0.00    +0.000 C 
ATOM     12  N   UNL     1      37.064   3.810  13.634  0.00  0.00    +0.000 N 
ENDROOT
BRANCH   1  13
ATOM     13  S   UNL     1      36.576   2.829  16.228  0.00  0.00    +0.000 S 
BRANCH  13  14
ATOM     14  C   UNL     1      35.101   1.914  16.676  0.00  0.00    +0.000 C 
BRANCH  14  19
ATOM     15  C   UNL     1      35.581  -3.775  15.851  0.00  0.00    +0.000 C 
ATOM     16  C   UNL     1      35.506  -2.300  16.004  0.00  0.00    +0.000 A 
ATOM     17  C   UNL     1      34.692  -1.824  17.019  0.00  0.00    +0.000 A 
ATOM     18  C   UNL     1      34.567  -0.456  17.228  0.00  0.00    +0.000 A 
ATOM     19  C   UNL     1      35.237   0.458  16.448  0.00  0.00    +0.000 A 
ATOM     20  C   UNL     1      36.044  -0.031  15.443  0.00  0.00    +0.000 A 
ATOM     21  C   UNL     1      36.174  -1.406  15.226  0.00  0.00    +0.000 A 
ENDBRANCH  14  19
ENDBRANCH  13  14
ENDBRANCH   1  13
BRANCH  12  22
ATOM     22  C   UNL     1      38.223   2.979  13.355  0.00  0.00    +0.000 C 
BRANCH  22  23
ATOM     23  C   UNL     1      37.744   1.654  12.810  0.00  0.00    +0.000 C 
BRANCH  23  24
ATOM     24  C   UNL     1      38.891   0.840  12.244  0.00  0.00    +0.000 C 
BRANCH  24  25
ATOM     25  C   UNL     1      39.142  -0.344  13.118  0.00  0.00    +0.000 A 
ATOM     26  C   UNL     1      39.689  -0.240  14.369  0.00  0.00    +0.000 A 
ATOM     27  C   UNL     1      39.899  -1.364  15.130  0.00  0.00    +0.000 A 
ATOM     28  C   UNL     1      39.574  -2.625  14.677  0.00  0.00    +0.000 A 
ATOM     29  C   UNL     1      39.025  -2.684  13.412  0.00  0.00    +0.000 A 
ATOM     30  C   UNL     1      38.804  -1.577  12.628  0.00  0.00    +0.000 A 
ENDBRANCH  24  25
ENDBRANCH  23  24
ENDBRANCH  22  23
ENDBRANCH  12  22
TORSDOF 7
ENDMDL
