MODEL 1
REMARK VINA RESULT:      -8.1      0.000      0.000
REMARK  Name = 
REMARK  3 active torsions:
REMARK  status: ('A' for Active; 'I' for Inactive)
REMARK    1  A    between atoms: C_2  and  C_3
REMARK    2  A    between atoms: C_3  and  C_9
REMARK    3  A    between atoms: C_11  and  C_12
REMARK                            x       y       z     vdW  Elec       q    Type
REMARK                         _______ _______ _______ _____ _____    ______ ____
ROOT
ATOM      1  C   UNL     1      16.527  10.658  35.778  0.00  0.00    +0.000 A 
ATOM      2  N   UNL     1      15.821  11.398  34.967  0.00  0.00    +0.000 NA
ATOM      3  C   UNL     1      16.010  11.354  33.693  0.00  0.00    +0.000 A 
ATOM      4  C   UNL     1      16.978  10.498  33.228  0.00  0.00    +0.000 A 
ATOM      5  S   UNL     1      17.554   9.810  34.712  0.00  0.00    +0.000 S 
ENDROOT
BRANCH   3   6
ATOM      6  C   UNL     1      15.235  12.189  32.761  0.00  0.00    +0.000 A 
ATOM      7  C   UNL     1      15.314  12.037  31.391  0.00  0.00    +0.000 A 
ATOM      8  C   UNL     1      14.609  12.798  30.494  0.00  0.00    +0.000 A 
ATOM      9  C   UNL     1      13.767  13.778  30.954  0.00  0.00    +0.000 A 
ATOM     10  C   UNL     1      13.656  13.965  32.325  0.00  0.00    +0.000 A 
ATOM     11  C   UNL     1      14.374  13.187  33.198  0.00  0.00    +0.000 A 
ATOM     12  O   UNL     1      14.254  13.380  34.580  0.00  0.00    +0.000 OA
ENDBRANCH   3   6
BRANCH   1  13
ATOM     13  C   UNL     1      16.442  10.555  37.250  0.00  0.00    +0.000 C 
ATOM     14  C   UNL     1      17.400  10.073  37.999  0.00  0.00    +0.000 C 
ATOM     15  C   UNL     1      17.311   9.945  39.469  0.00  0.00    +0.000 C 
ATOM     16  C   UNL     1      18.697   9.823  39.998  0.00  0.00    +0.000 C 
ATOM     17  C   UNL     1      19.452   9.179  38.846  0.00  0.00    +0.000 C 
ATOM     18  C   UNL     1      18.754   9.581  37.583  0.00  0.00    +0.000 C 
BRANCH  13  20
ATOM     19  N   UNL     1      14.188  11.376  38.268  0.00  0.00    +0.000 NA
ATOM     20  C   UNL     1      15.193  11.016  37.825  0.00  0.00    +0.000 C 
ENDBRANCH  13  20
ENDBRANCH   1  13
TORSDOF 3
ENDMDL
MODEL 2
REMARK VINA RESULT:      -7.9     28.136     31.286
REMARK  Name = 
REMARK  3 active torsions:
REMARK  status: ('A' for Active; 'I' for Inactive)
REMARK    1  A    between atoms: C_2  and  C_3
REMARK    2  A    between atoms: C_3  and  C_9
REMARK    3  A    between atoms: C_11  and  C_12
REMARK                            x       y       z     vdW  Elec       q    Type
REMARK                         _______ _______ _______ _____ _____    ______ ____
ROOT
ATOM      1  C   UNL     1      31.159  21.579   9.768  0.00  0.00    +0.000 A 
ATOM      2  N   UNL     1      30.269  22.271  10.425  0.00  0.00    +0.000 NA
ATOM      3  C   UNL     1      30.042  22.045  11.674  0.00  0.00    +0.000 A 
ATOM      4  C   UNL     1      30.773  21.053  12.279  0.00  0.00    +0.000 A 
ATOM      5  S   UNL     1      31.755  20.510  10.957  0.00  0.00    +0.000 S 
ENDROOT
BRANCH   3   6
ATOM      6  C   UNL     1      29.034  22.804  12.432  0.00  0.00    +0.000 A 
ATOM      7  C   UNL     1      29.365  23.599  13.512  0.00  0.00    +0.000 A 
ATOM      8  C   UNL     1      28.453  24.318  14.241  0.00  0.00    +0.000 A 
ATOM      9  C   UNL     1      27.124  24.264  13.904  0.00  0.00    +0.000 A 
ATOM     10  C   UNL     1      26.747  23.478  12.824  0.00  0.00    +0.000 A 
ATOM     11  C   UNL     1      27.683  22.771  12.112  0.00  0.00    +0.000 A 
ATOM     12  O   UNL     1      27.295  21.983  11.021  0.00  0.00    +0.000 OA
ENDBRANCH   3   6
BRANCH   1  13
ATOM     13  C   UNL     1      31.571  21.703   8.354  0.00  0.00    +0.000 C 
ATOM     14  C   UNL     1      31.112  20.941   7.396  0.00  0.00    +0.000 C 
ATOM     15  C   UNL     1      31.540  21.045   5.984  0.00  0.00    +0.000 C 
ATOM     16  C   UNL     1      30.501  20.386   5.146  0.00  0.00    +0.000 C 
ATOM     17  C   UNL     1      29.915  19.339   6.081  0.00  0.00    +0.000 C 
ATOM     18  C   UNL     1      30.083  19.853   7.478  0.00  0.00    +0.000 C 
BRANCH  13  20
ATOM     19  N   UNL     1      33.347  23.555   7.900  0.00  0.00    +0.000 NA
ATOM     20  C   UNL     1      32.554  22.736   8.092  0.00  0.00    +0.000 C 
ENDBRANCH  13  20
ENDBRANCH   1  13
TORSDOF 3
ENDMDL
MODEL 3
REMARK VINA RESULT:      -7.6      2.659      3.197
REMARK  Name = 
REMARK  3 active torsions:
REMARK  status: ('A' for Active; 'I' for Inactive)
REMARK    1  A    between atoms: C_2  and  C_3
REMARK    2  A    between atoms: C_3  and  C_9
REMARK    3  A    between atoms: C_11  and  C_12
REMARK                            x       y       z     vdW  Elec       q    Type
REMARK                         _______ _______ _______ _____ _____    ______ ____
ROOT
ATOM      1  C   UNL     1      16.944  11.271  37.018  0.00  0.00    +0.000 A 
ATOM      2  N   UNL     1      16.810  11.462  35.734  0.00  0.00    +0.000 NA
ATOM      3  C   UNL     1      15.653  11.688  35.214  0.00  0.00    +0.000 A 
ATOM      4  C   UNL     1      14.574  11.723  36.063  0.00  0.00    +0.000 A 
ATOM      5  S   UNL     1      15.342  11.413  37.587  0.00  0.00    +0.000 S 
ENDROOT
BRANCH   3   6
ATOM      6  C   UNL     1      15.476  11.893  33.767  0.00  0.00    +0.000 A 
ATOM      7  C   UNL     1      14.590  12.820  33.253  0.00  0.00    +0.000 A 
ATOM      8  C   UNL     1      14.399  13.035  31.913  0.00  0.00    +0.000 A 
ATOM      9  C   UNL     1      15.114  12.302  31.001  0.00  0.00    +0.000 A 
ATOM     10  C   UNL     1      16.018  11.359  31.473  0.00  0.00    +0.000 A 
ATOM     11  C   UNL     1      16.189  11.167  32.821  0.00  0.00    +0.000 A 
ATOM     12  O   UNL     1      17.104  10.216  33.290  0.00  0.00    +0.000 OA
ENDBRANCH   3   6
BRANCH   1  13
ATOM     13  C   UNL     1      18.177  11.022  37.795  0.00  0.00    +0.000 C 
ATOM     14  C   UNL     1      19.052  11.951  38.083  0.00  0.00    +0.000 C 
ATOM     15  C   UNL     1      20.298  11.701  38.838  0.00  0.00    +0.000 C 
ATOM     16  C   UNL     1      20.774  13.007  39.371  0.00  0.00    +0.000 C 
ATOM     17  C   UNL     1      20.240  14.009  38.359  0.00  0.00    +0.000 C 
ATOM     18  C   UNL     1      19.002  13.414  37.762  0.00  0.00    +0.000 C 
BRANCH  13  20
ATOM     19  N   UNL     1      18.514   8.543  38.526  0.00  0.00    +0.000 NA
ATOM     20  C   UNL     1      18.370   9.647  38.210  0.00  0.00    +0.000 C 
ENDBRANCH  13  20
ENDBRANCH   1  13
TORSDOF 3
ENDMDL
MODEL 4
REMARK VINA RESULT:      -7.6      1.991      2.886
REMARK  Name = 
REMARK  3 active torsions:
REMARK  status: ('A' for Active; 'I' for Inactive)
REMARK    1  A    between atoms: C_2  and  C_3
REMARK    2  A    between atoms: C_3  and  C_9
REMARK    3  A    between atoms: C_11  and  C_12
REMARK                            x       y       z     vdW  Elec       q    Type
REMARK                         _______ _______ _______ _____ _____    ______ ____
ROOT
ATOM      1  C   UNL     1      16.271  10.988  36.731  0.00  0.00    +0.000 A 
ATOM      2  N   UNL     1      16.204  11.156  35.439  0.00  0.00    +0.000 NA
ATOM      3  C   UNL     1      15.265  11.863  34.909  0.00  0.00    +0.000 A 
ATOM      4  C   UNL     1      14.345  12.429  35.758  0.00  0.00    +0.000 A 
ATOM      5  S   UNL     1      14.928  11.877  37.295  0.00  0.00    +0.000 S 
ENDROOT
BRANCH   3   6
ATOM      6  C   UNL     1      15.162  12.055  33.454  0.00  0.00    +0.000 A 
ATOM      7  C   UNL     1      14.314  12.988  32.889  0.00  0.00    +0.000 A 
ATOM      8  C   UNL     1      14.191  13.192  31.539  0.00  0.00    +0.000 A 
ATOM      9  C   UNL     1      14.941  12.440  30.670  0.00  0.00    +0.000 A 
ATOM     10  C   UNL     1      15.807  11.491  31.194  0.00  0.00    +0.000 A 
ATOM     11  C   UNL     1      15.909  11.310  32.551  0.00  0.00    +0.000 A 
ATOM     12  O   UNL     1      16.788  10.352  33.073  0.00  0.00    +0.000 OA
ENDBRANCH   3   6
BRANCH   1  13
ATOM     13  C   UNL     1      17.274  10.239  37.518  0.00  0.00    +0.000 C 
ATOM     14  C   UNL     1      17.099   9.887  38.766  0.00  0.00    +0.000 C 
ATOM     15  C   UNL     1      18.109   9.160  39.564  0.00  0.00    +0.000 C 
ATOM     16  C   UNL     1      17.409   8.532  40.718  0.00  0.00    +0.000 C 
ATOM     17  C   UNL     1      16.229   9.463  40.954  0.00  0.00    +0.000 C 
ATOM     18  C   UNL     1      15.898  10.097  39.638  0.00  0.00    +0.000 C 
BRANCH  13  20
ATOM     19  N   UNL     1      19.486   9.697  36.252  0.00  0.00    +0.000 NA
ATOM     20  C   UNL     1      18.499   9.929  36.809  0.00  0.00    +0.000 C 
ENDBRANCH  13  20
ENDBRANCH   1  13
TORSDOF 3
ENDMDL
MODEL 5
REMARK VINA RESULT:      -7.3      3.803      5.294
REMARK  Name = 
REMARK  3 active torsions:
REMARK  status: ('A' for Active; 'I' for Inactive)
REMARK    1  A    between atoms: C_2  and  C_3
REMARK    2  A    between atoms: C_3  and  C_9
REMARK    3  A    between atoms: C_11  and  C_12
REMARK                            x       y       z     vdW  Elec       q    Type
REMARK                         _______ _______ _______ _____ _____    ______ ____
ROOT
ATOM      1  C   UNL     1      20.046  11.005  38.119  0.00  0.00    +0.000 A 
ATOM      2  N   UNL     1      19.062  11.430  37.376  0.00  0.00    +0.000 NA
ATOM      3  C   UNL     1      17.897  10.883  37.440  0.00  0.00    +0.000 A 
ATOM      4  C   UNL     1      17.736   9.841  38.321  0.00  0.00    +0.000 A 
ATOM      5  S   UNL     1      19.328   9.734  39.002  0.00  0.00    +0.000 S 
ENDROOT
BRANCH   3   6
ATOM      6  C   UNL     1      16.776  11.336  36.602  0.00  0.00    +0.000 A 
ATOM      7  C   UNL     1      15.801  12.195  37.071  0.00  0.00    +0.000 A 
ATOM      8  C   UNL     1      14.743  12.636  36.320  0.00  0.00    +0.000 A 
ATOM      9  C   UNL     1      14.615  12.217  35.020  0.00  0.00    +0.000 A 
ATOM     10  C   UNL     1      15.573  11.354  34.506  0.00  0.00    +0.000 A 
ATOM     11  C   UNL     1      16.622  10.930  35.283  0.00  0.00    +0.000 A 
ATOM     12  O   UNL     1      17.586  10.062  34.756  0.00  0.00    +0.000 OA
ENDBRANCH   3   6
BRANCH   1  13
ATOM     13  C   UNL     1      21.432  11.513  38.202  0.00  0.00    +0.000 C 
ATOM     14  C   UNL     1      22.416  11.054  37.473  0.00  0.00    +0.000 C 
ATOM     15  C   UNL     1      23.809  11.541  37.569  0.00  0.00    +0.000 C 
ATOM     16  C   UNL     1      24.512  11.156  36.314  0.00  0.00    +0.000 C 
ATOM     17  C   UNL     1      23.775   9.899  35.878  0.00  0.00    +0.000 C 
ATOM     18  C   UNL     1      22.378  10.001  36.406  0.00  0.00    +0.000 C 
BRANCH  13  20
ATOM     19  N   UNL     1      21.791  13.410  39.952  0.00  0.00    +0.000 NA
ATOM     20  C   UNL     1      21.642  12.564  39.178  0.00  0.00    +0.000 C 
ENDBRANCH  13  20
ENDBRANCH   1  13
TORSDOF 3
ENDMDL
MODEL 6
REMARK VINA RESULT:      -7.2      5.377      7.700
REMARK  Name = 
REMARK  3 active torsions:
REMARK  status: ('A' for Active; 'I' for Inactive)
REMARK    1  A    between atoms: C_2  and  C_3
REMARK    2  A    between atoms: C_3  and  C_9
REMARK    3  A    between atoms: C_11  and  C_12
REMARK                            x       y       z     vdW  Elec       q    Type
REMARK                         _______ _______ _______ _____ _____    ______ ____
ROOT
ATOM      1  C   UNL     1      20.118  10.498  37.825  0.00  0.00    +0.000 A 
ATOM      2  N   UNL     1      19.458  10.039  38.853  0.00  0.00    +0.000 NA
ATOM      3  C   UNL     1      18.348   9.402  38.699  0.00  0.00    +0.000 A 
ATOM      4  C   UNL     1      17.894   9.226  37.415  0.00  0.00    +0.000 A 
ATOM      5  S   UNL     1      19.142  10.020  36.509  0.00  0.00    +0.000 S 
ENDROOT
BRANCH   3   6
ATOM      6  C   UNL     1      17.580   8.887  39.844  0.00  0.00    +0.000 A 
ATOM      7  C   UNL     1      16.568   9.611  40.442  0.00  0.00    +0.000 A 
ATOM      8  C   UNL     1      15.834   9.164  41.510  0.00  0.00    +0.000 A 
ATOM      9  C   UNL     1      16.098   7.926  42.041  0.00  0.00    +0.000 A 
ATOM     10  C   UNL     1      17.106   7.163  41.470  0.00  0.00    +0.000 A 
ATOM     11  C   UNL     1      17.823   7.637  40.400  0.00  0.00    +0.000 A 
ATOM     12  O   UNL     1      18.838   6.860  39.827  0.00  0.00    +0.000 OA
ENDBRANCH   3   6
BRANCH   1  13
ATOM     13  C   UNL     1      21.404  11.226  37.799  0.00  0.00    +0.000 C 
ATOM     14  C   UNL     1      22.495  10.751  37.256  0.00  0.00    +0.000 C 
ATOM     15  C   UNL     1      23.790  11.465  37.250  0.00  0.00    +0.000 C 
ATOM     16  C   UNL     1      24.629  10.871  36.173  0.00  0.00    +0.000 C 
ATOM     17  C   UNL     1      24.120   9.440  36.087  0.00  0.00    +0.000 C 
ATOM     18  C   UNL     1      22.689   9.455  36.527  0.00  0.00    +0.000 C 
BRANCH  13  20
ATOM     19  N   UNL     1      21.362  13.565  38.948  0.00  0.00    +0.000 NA
ATOM     20  C   UNL     1      21.386  12.523  38.447  0.00  0.00    +0.000 C 
ENDBRANCH  13  20
ENDBRANCH   1  13
TORSDOF 3
ENDMDL
MODEL 7
REMARK VINA RESULT:      -7.2     28.560     31.660
REMARK  Name = 
REMARK  3 active torsions:
REMARK  status: ('A' for Active; 'I' for Inactive)
REMARK    1  A    between atoms: C_2  and  C_3
REMARK    2  A    between atoms: C_3  and  C_9
REMARK    3  A    between atoms: C_11  and  C_12
REMARK                            x       y       z     vdW  Elec       q    Type
REMARK                         _______ _______ _______ _____ _____    ______ ____
ROOT
ATOM      1  C   UNL     1      32.022  21.952  10.126  0.00  0.00    +0.000 A 
ATOM      2  N   UNL     1      30.861  22.427  10.484  0.00  0.00    +0.000 NA
ATOM      3  C   UNL     1      30.140  21.824  11.366  0.00  0.00    +0.000 A 
ATOM      4  C   UNL     1      30.643  20.668  11.910  0.00  0.00    +0.000 A 
ATOM      5  S   UNL     1      32.160  20.542  11.078  0.00  0.00    +0.000 S 
ENDROOT
BRANCH   3   6
ATOM      6  C   UNL     1      28.822  22.335  11.776  0.00  0.00    +0.000 A 
ATOM      7  C   UNL     1      27.666  22.048  11.076  0.00  0.00    +0.000 A 
ATOM      8  C   UNL     1      26.424  22.508  11.428  0.00  0.00    +0.000 A 
ATOM      9  C   UNL     1      26.286  23.305  12.536  0.00  0.00    +0.000 A 
ATOM     10  C   UNL     1      27.422  23.619  13.270  0.00  0.00    +0.000 A 
ATOM     11  C   UNL     1      28.653  23.142  12.894  0.00  0.00    +0.000 A 
ATOM     12  O   UNL     1      29.793  23.461  13.641  0.00  0.00    +0.000 OA
ENDBRANCH   3   6
BRANCH   1  13
ATOM     13  C   UNL     1      32.993  22.506   9.158  0.00  0.00    +0.000 C 
ATOM     14  C   UNL     1      32.892  22.352   7.863  0.00  0.00    +0.000 C 
ATOM     15  C   UNL     1      33.874  22.883   6.893  0.00  0.00    +0.000 C 
ATOM     16  C   UNL     1      33.210  22.936   5.561  0.00  0.00    +0.000 C 
ATOM     17  C   UNL     1      32.183  21.818   5.641  0.00  0.00    +0.000 C 
ATOM     18  C   UNL     1      31.813  21.663   7.084  0.00  0.00    +0.000 C 
BRANCH  13  20
ATOM     19  N   UNL     1      34.975  23.808  10.239  0.00  0.00    +0.000 NA
ATOM     20  C   UNL     1      34.099  23.231   9.750  0.00  0.00    +0.000 C 
ENDBRANCH  13  20
ENDBRANCH   1  13
TORSDOF 3
ENDMDL
MODEL 8
REMARK VINA RESULT:      -7.2     20.551     23.015
REMARK  Name = 
REMARK  3 active torsions:
REMARK  status: ('A' for Active; 'I' for Inactive)
REMARK    1  A    between atoms: C_2  and  C_3
REMARK    2  A    between atoms: C_3  and  C_9
REMARK    3  A    between atoms: C_11  and  C_12
REMARK                            x       y       z     vdW  Elec       q    Type
REMARK                         _______ _______ _______ _____ _____    ______ ____
ROOT
ATOM      1  C   UNL     1      33.863  -2.524  34.529  0.00  0.00    +0.000 A 
ATOM      2  N   UNL     1      33.487  -3.138  33.441  0.00  0.00    +0.000 NA
ATOM      3  C   UNL     1      33.790  -4.374  33.237  0.00  0.00    +0.000 A 
ATOM      4  C   UNL     1      34.519  -5.014  34.208  0.00  0.00    +0.000 A 
ATOM      5  S   UNL     1      34.715  -3.740  35.369  0.00  0.00    +0.000 S 
ENDROOT
BRANCH   3   6
ATOM      6  C   UNL     1      33.387  -5.082  32.011  0.00  0.00    +0.000 A 
ATOM      7  C   UNL     1      34.136  -5.039  30.851  0.00  0.00    +0.000 A 
ATOM      8  C   UNL     1      33.790  -5.684  29.692  0.00  0.00    +0.000 A 
ATOM      9  C   UNL     1      32.636  -6.425  29.649  0.00  0.00    +0.000 A 
ATOM     10  C   UNL     1      31.854  -6.498  30.792  0.00  0.00    +0.000 A 
ATOM     11  C   UNL     1      32.226  -5.841  31.939  0.00  0.00    +0.000 A 
ATOM     12  O   UNL     1      31.432  -5.922  33.090  0.00  0.00    +0.000 OA
ENDBRANCH   3   6
BRANCH   1  13
ATOM     13  C   UNL     1      33.597  -1.131  34.947  0.00  0.00    +0.000 C 
ATOM     14  C   UNL     1      33.792  -0.093  34.176  0.00  0.00    +0.000 C 
ATOM     15  C   UNL     1      33.552   1.303  34.598  0.00  0.00    +0.000 C 
ATOM     16  C   UNL     1      33.419   2.132  33.369  0.00  0.00    +0.000 C 
ATOM     17  C   UNL     1      34.268   1.382  32.354  0.00  0.00    +0.000 C 
ATOM     18  C   UNL     1      34.258  -0.061  32.751  0.00  0.00    +0.000 C 
BRANCH  13  20
ATOM     19  N   UNL     1      32.742  -0.856  37.394  0.00  0.00    +0.000 NA
ATOM     20  C   UNL     1      33.112  -0.983  36.306  0.00  0.00    +0.000 C 
ENDBRANCH  13  20
ENDBRANCH   1  13
TORSDOF 3
ENDMDL
MODEL 9
REMARK VINA RESULT:      -7.1     20.555     23.150
REMARK  Name = 
REMARK  3 active torsions:
REMARK  status: ('A' for Active; 'I' for Inactive)
REMARK    1  A    between atoms: C_2  and  C_3
REMARK    2  A    between atoms: C_3  and  C_9
REMARK    3  A    between atoms: C_11  and  C_12
REMARK                            x       y       z     vdW  Elec       q    Type
REMARK                         _______ _______ _______ _____ _____    ______ ____
ROOT
ATOM      1  C   UNL     1      33.237  -4.466  33.324  0.00  0.00    +0.000 A 
ATOM      2  N   UNL     1      33.153  -3.179  33.128  0.00  0.00    +0.000 NA
ATOM      3  C   UNL     1      33.737  -2.347  33.921  0.00  0.00    +0.000 A 
ATOM      4  C   UNL     1      34.448  -2.870  34.973  0.00  0.00    +0.000 A 
ATOM      5  S   UNL     1      34.206  -4.569  34.725  0.00  0.00    +0.000 S 
ENDROOT
BRANCH   3   6
ATOM      6  C   UNL     1      33.645  -0.891  33.726  0.00  0.00    +0.000 A 
ATOM      7  C   UNL     1      34.362  -0.228  32.749  0.00  0.00    +0.000 A 
ATOM      8  C   UNL     1      34.303   1.126  32.542  0.00  0.00    +0.000 A 
ATOM      9  C   UNL     1      33.493   1.897  33.336  0.00  0.00    +0.000 A 
ATOM     10  C   UNL     1      32.753   1.272  34.331  0.00  0.00    +0.000 A 
ATOM     11  C   UNL     1      32.832  -0.085  34.514  0.00  0.00    +0.000 A 
ATOM     12  O   UNL     1      32.080  -0.709  35.517  0.00  0.00    +0.000 OA
ENDBRANCH   3   6
BRANCH   1  13
ATOM     13  C   UNL     1      32.661  -5.566  32.521  0.00  0.00    +0.000 C 
ATOM     14  C   UNL     1      33.002  -5.813  31.283  0.00  0.00    +0.000 C 
ATOM     15  C   UNL     1      32.411  -6.896  30.468  0.00  0.00    +0.000 C 
ATOM     16  C   UNL     1      33.342  -7.172  29.339  0.00  0.00    +0.000 C 
ATOM     17  C   UNL     1      34.030  -5.833  29.122  0.00  0.00    +0.000 C 
ATOM     18  C   UNL     1      34.029  -5.120  30.439  0.00  0.00    +0.000 C 
BRANCH  13  20
ATOM     19  N   UNL     1      30.864  -7.008  33.737  0.00  0.00    +0.000 NA
ATOM     20  C   UNL     1      31.658  -6.360  33.202  0.00  0.00    +0.000 C 
ENDBRANCH  13  20
ENDBRANCH   1  13
TORSDOF 3
ENDMDL
MODEL 10
REMARK VINA RESULT:      -7.0     21.242     24.021
REMARK  Name = 
REMARK  3 active torsions:
REMARK  status: ('A' for Active; 'I' for Inactive)
REMARK    1  A    between atoms: C_2  and  C_3
REMARK    2  A    between atoms: C_3  and  C_9
REMARK    3  A    between atoms: C_11  and  C_12
REMARK                            x       y       z     vdW  Elec       q    Type
REMARK                         _______ _______ _______ _____ _____    ______ ____
ROOT
ATOM      1  C   UNL     1      33.677  -4.770  32.997  0.00  0.00    +0.000 A 
ATOM      2  N   UNL     1      33.913  -3.546  33.380  0.00  0.00    +0.000 NA
ATOM      3  C   UNL     1      33.143  -2.955  34.228  0.00  0.00    +0.000 A 
ATOM      4  C   UNL     1      32.072  -3.665  34.709  0.00  0.00    +0.000 A 
ATOM      5  S   UNL     1      32.268  -5.171  33.872  0.00  0.00    +0.000 S 
ENDROOT
BRANCH   3   6
ATOM      6  C   UNL     1      33.383  -1.570  34.664  0.00  0.00    +0.000 A 
ATOM      7  C   UNL     1      33.057  -0.480  33.881  0.00  0.00    +0.000 A 
ATOM      8  C   UNL     1      33.268   0.822  34.254  0.00  0.00    +0.000 A 
ATOM      9  C   UNL     1      33.836   1.093  35.473  0.00  0.00    +0.000 A 
ATOM     10  C   UNL     1      34.179   0.027  36.294  0.00  0.00    +0.000 A 
ATOM     11  C   UNL     1      33.954  -1.266  35.893  0.00  0.00    +0.000 A 
ATOM     12  O   UNL     1      34.300  -2.336  36.729  0.00  0.00    +0.000 OA
ENDBRANCH   3   6
BRANCH   1  13
ATOM     13  C   UNL     1      34.449  -5.614  32.060  0.00  0.00    +0.000 C 
ATOM     14  C   UNL     1      34.057  -5.892  30.844  0.00  0.00    +0.000 C 
ATOM     15  C   UNL     1      34.813  -6.756  29.912  0.00  0.00    +0.000 C 
ATOM     16  C   UNL     1      34.336  -6.461  28.533  0.00  0.00    +0.000 C 
ATOM     17  C   UNL     1      32.900  -6.011  28.753  0.00  0.00    +0.000 C 
ATOM     18  C   UNL     1      32.830  -5.415  30.125  0.00  0.00    +0.000 C 
BRANCH  13  20
ATOM     19  N   UNL     1      36.671  -6.564  33.037  0.00  0.00    +0.000 NA
ATOM     20  C   UNL     1      35.689  -6.143  32.594  0.00  0.00    +0.000 C 
ENDBRANCH  13  20
ENDBRANCH   1  13
TORSDOF 3
ENDMDL
