MODEL 1
REMARK VINA RESULT:      -8.0      0.000      0.000
REMARK  Name = 
REMARK  8 active torsions:
REMARK  status: ('A' for Active; 'I' for Inactive)
REMARK    1  A    between atoms: C_5  and  N_6
REMARK    2  A    between atoms: C_7  and  C_9
REMARK    3  A    between atoms: C_9  and  C_10
REMARK    4  A    between atoms: C_9  and  N_17
REMARK    5  A    between atoms: C_10  and  C_11
REMARK    6  A    between atoms: C_18  and  O_20
REMARK    7  A    between atoms: O_20  and  C_21
REMARK    8  A    between atoms: C_21  and  C_22
REMARK                            x       y       z     vdW  Elec       q    Type
REMARK                         _______ _______ _______ _____ _____    ______ ____
ROOT
ATOM      1  C   UNL     1      37.176   3.965  14.083  0.00  0.00    +0.000 C 
ENDROOT
BRANCH   1   3
ATOM      2  N   UNL     1      38.393   5.576  15.731  0.00  0.00    +0.000 NA
ATOM      3  C   UNL     1      38.141   4.312  15.261  0.00  0.00    +0.000 C 
ATOM      4  O   UNL     1      38.718   3.397  15.807  0.00  0.00    +0.000 OA
BRANCH   2   9
ATOM      5  C   UNL     1      41.609   6.480  20.284  0.00  0.00    +0.000 C 
ATOM      6  C   UNL     1      40.812   6.253  19.025  0.00  0.00    +0.000 A 
ATOM      7  C   UNL     1      39.490   5.931  19.205  0.00  0.00    +0.000 A 
ATOM      8  C   UNL     1      38.748   5.720  18.047  0.00  0.00    +0.000 A 
ATOM      9  C   UNL     1      39.265   5.816  16.786  0.00  0.00    +0.000 A 
ATOM     10  C   UNL     1      40.599   6.141  16.653  0.00  0.00    +0.000 A 
ATOM     11  C   UNL     1      41.384   6.363  17.777  0.00  0.00    +0.000 A 
ATOM     12  C   UNL     1      42.819   6.714  17.684  0.00  0.00    +0.000 C 
ENDBRANCH   2   9
ENDBRANCH   1   3
BRANCH   1  13
ATOM     13  N   UNL     1      36.920   2.465  14.355  0.00  0.00    +0.000 NA
ATOM     14  C   UNL     1      36.999   1.530  13.316  0.00  0.00    +0.000 C 
ATOM     15  O   UNL     1      37.292   2.024  12.205  0.00  0.00    +0.000 OA
BRANCH  14  16
ATOM     16  O   UNL     1      36.766   0.166  13.530  0.00  0.00    +0.000 OA
BRANCH  16  17
ATOM     17  C   UNL     1      37.321  -0.359  14.725  0.00  0.00    +0.000 C 
BRANCH  17  18
ATOM     18  C   UNL     1      36.222  -0.879  15.599  0.00  0.00    +0.000 A 
ATOM     19  C   UNL     1      35.803  -2.180  15.420  0.00  0.00    +0.000 A 
ATOM     20  C   UNL     1      34.803  -2.753  16.173  0.00  0.00    +0.000 A 
ATOM     21  C   UNL     1      34.211  -1.971  17.142  0.00  0.00    +0.000 A 
ATOM     22  C   UNL     1      34.624  -0.668  17.328  0.00  0.00    +0.000 A 
ATOM     23  C   UNL     1      35.629  -0.102  16.566  0.00  0.00    +0.000 A 
ENDBRANCH  17  18
ENDBRANCH  16  17
ENDBRANCH  14  16
ENDBRANCH   1  13
BRANCH   1  24
ATOM     24  C   UNL     1      35.749   4.469  14.721  0.00  0.00    +0.000 C 
BRANCH  24  25
ATOM     25  C   UNL     1      35.209   5.440  13.746  0.00  0.00    +0.000 A 
ATOM     26  C   UNL     1      34.139   6.255  14.034  0.00  0.00    +0.000 A 
ATOM     27  C   UNL     1      33.647   7.162  13.099  0.00  0.00    +0.000 A 
ATOM     28  C   UNL     1      34.267   7.218  11.869  0.00  0.00    +0.000 A 
ATOM     29  C   UNL     1      35.337   6.427  11.532  0.00  0.00    +0.000 A 
ATOM     30  C   UNL     1      35.788   5.538  12.507  0.00  0.00    +0.000 A 
ENDBRANCH  24  25
ENDBRANCH   1  24
TORSDOF 8
ENDMDL
MODEL 2
REMARK VINA RESULT:      -7.7      1.723      7.816
REMARK  Name = 
REMARK  8 active torsions:
REMARK  status: ('A' for Active; 'I' for Inactive)
REMARK    1  A    between atoms: C_5  and  N_6
REMARK    2  A    between atoms: C_7  and  C_9
REMARK    3  A    between atoms: C_9  and  C_10
REMARK    4  A    between atoms: C_9  and  N_17
REMARK    5  A    between atoms: C_10  and  C_11
REMARK    6  A    between atoms: C_18  and  O_20
REMARK    7  A    between atoms: O_20  and  C_21
REMARK    8  A    between atoms: C_21  and  C_22
REMARK                            x       y       z     vdW  Elec       q    Type
REMARK                         _______ _______ _______ _____ _____    ______ ____
ROOT
ATOM      1  C   UNL     1      36.365   2.824  15.501  0.00  0.00    +0.000 C 
ENDROOT
BRANCH   1   3
ATOM      2  N   UNL     1      36.518   5.042  14.141  0.00  0.00    +0.000 NA
ATOM      3  C   UNL     1      35.783   4.104  14.819  0.00  0.00    +0.000 C 
ATOM      4  O   UNL     1      34.588   4.288  14.892  0.00  0.00    +0.000 OA
BRANCH   2   9
ATOM      5  C   UNL     1      34.298   9.812  12.089  0.00  0.00    +0.000 C 
ATOM      6  C   UNL     1      34.863   8.502  12.575  0.00  0.00    +0.000 A 
ATOM      7  C   UNL     1      35.555   8.553  13.760  0.00  0.00    +0.000 A 
ATOM      8  C   UNL     1      36.078   7.346  14.215  0.00  0.00    +0.000 A 
ATOM      9  C   UNL     1      35.936   6.160  13.554  0.00  0.00    +0.000 A 
ATOM     10  C   UNL     1      35.234   6.156  12.367  0.00  0.00    +0.000 A 
ATOM     11  C   UNL     1      34.689   7.333  11.868  0.00  0.00    +0.000 A 
ATOM     12  C   UNL     1      33.927   7.377  10.600  0.00  0.00    +0.000 C 
ENDBRANCH   2   9
ENDBRANCH   1   3
BRANCH   1  13
ATOM     13  N   UNL     1      36.847   3.411  16.847  0.00  0.00    +0.000 NA
ATOM     14  C   UNL     1      38.185   3.783  17.022  0.00  0.00    +0.000 C 
ATOM     15  O   UNL     1      38.902   3.602  16.014  0.00  0.00    +0.000 OA
BRANCH  14  16
ATOM     16  O   UNL     1      38.654   4.311  18.231  0.00  0.00    +0.000 OA
BRANCH  16  17
ATOM     17  C   UNL     1      38.777   5.724  18.263  0.00  0.00    +0.000 C 
BRANCH  17  18
ATOM     18  C   UNL     1      40.190   6.094  18.596  0.00  0.00    +0.000 A 
ATOM     19  C   UNL     1      41.091   6.235  17.562  0.00  0.00    +0.000 A 
ATOM     20  C   UNL     1      42.411   6.576  17.764  0.00  0.00    +0.000 A 
ATOM     21  C   UNL     1      42.823   6.778  19.064  0.00  0.00    +0.000 A 
ATOM     22  C   UNL     1      41.927   6.639  20.104  0.00  0.00    +0.000 A 
ATOM     23  C   UNL     1      40.604   6.297  19.892  0.00  0.00    +0.000 A 
ENDBRANCH  17  18
ENDBRANCH  16  17
ENDBRANCH  14  16
ENDBRANCH   1  13
BRANCH   1  24
ATOM     24  C   UNL     1      34.987   2.175  16.117  0.00  0.00    +0.000 C 
BRANCH  24  25
ATOM     25  C   UNL     1      35.229   0.717  16.158  0.00  0.00    +0.000 A 
ATOM     26  C   UNL     1      36.070   0.084  15.273  0.00  0.00    +0.000 A 
ATOM     27  C   UNL     1      36.282  -1.290  15.331  0.00  0.00    +0.000 A 
ATOM     28  C   UNL     1      35.619  -2.003  16.308  0.00  0.00    +0.000 A 
ATOM     29  C   UNL     1      34.769  -1.420  17.215  0.00  0.00    +0.000 A 
ATOM     30  C   UNL     1      34.595  -0.040  17.110  0.00  0.00    +0.000 A 
ENDBRANCH  24  25
ENDBRANCH   1  24
TORSDOF 8
ENDMDL
MODEL 3
REMARK VINA RESULT:      -7.5      1.964      6.321
REMARK  Name = 
REMARK  8 active torsions:
REMARK  status: ('A' for Active; 'I' for Inactive)
REMARK    1  A    between atoms: C_5  and  N_6
REMARK    2  A    between atoms: C_7  and  C_9
REMARK    3  A    between atoms: C_9  and  C_10
REMARK    4  A    between atoms: C_9  and  N_17
REMARK    5  A    between atoms: C_10  and  C_11
REMARK    6  A    between atoms: C_18  and  O_20
REMARK    7  A    between atoms: O_20  and  C_21
REMARK    8  A    between atoms: C_21  and  C_22
REMARK                            x       y       z     vdW  Elec       q    Type
REMARK                         _______ _______ _______ _____ _____    ______ ____
ROOT
ATOM      1  C   UNL     1      36.671   3.719  16.142  0.00  0.00    +0.000 C 
ENDROOT
BRANCH   1   3
ATOM      2  N   UNL     1      38.514   5.433  16.816  0.00  0.00    +0.000 NA
ATOM      3  C   UNL     1      37.820   4.272  17.043  0.00  0.00    +0.000 C 
ATOM      4  O   UNL     1      38.130   3.629  18.022  0.00  0.00    +0.000 OA
BRANCH   2   9
ATOM      5  C   UNL     1      42.345   7.218  20.562  0.00  0.00    +0.000 C 
ATOM      6  C   UNL     1      41.378   6.742  19.509  0.00  0.00    +0.000 A 
ATOM      7  C   UNL     1      40.087   6.542  19.930  0.00  0.00    +0.000 A 
ATOM      8  C   UNL     1      39.188   6.102  18.963  0.00  0.00    +0.000 A 
ATOM      9  C   UNL     1      39.528   5.870  17.661  0.00  0.00    +0.000 A 
ATOM     10  C   UNL     1      40.837   6.083  17.282  0.00  0.00    +0.000 A 
ATOM     11  C   UNL     1      41.775   6.523  18.208  0.00  0.00    +0.000 A 
ATOM     12  C   UNL     1      43.190   6.767  17.848  0.00  0.00    +0.000 C 
ENDBRANCH   2   9
ENDBRANCH   1   3
BRANCH   1  13
ATOM     13  N   UNL     1      36.776   4.668  14.927  0.00  0.00    +0.000 NA
ATOM     14  C   UNL     1      35.644   4.971  14.161  0.00  0.00    +0.000 C 
ATOM     15  O   UNL     1      34.595   4.420  14.559  0.00  0.00    +0.000 OA
BRANCH  14  16
ATOM     16  O   UNL     1      35.709   5.823  13.051  0.00  0.00    +0.000 OA
BRANCH  16  17
ATOM     17  C   UNL     1      34.514   6.533  12.768  0.00  0.00    +0.000 C 
BRANCH  17  18
ATOM     18  C   UNL     1      34.490   7.804  13.559  0.00  0.00    +0.000 A 
ATOM     19  C   UNL     1      33.668   7.871  14.664  0.00  0.00    +0.000 A 
ATOM     20  C   UNL     1      33.576   8.993  15.459  0.00  0.00    +0.000 A 
ATOM     21  C   UNL     1      34.347  10.081  15.113  0.00  0.00    +0.000 A 
ATOM     22  C   UNL     1      35.172  10.022  14.008  0.00  0.00    +0.000 A 
ATOM     23  C   UNL     1      35.258   8.892  13.217  0.00  0.00    +0.000 A 
ENDBRANCH  17  18
ENDBRANCH  16  17
ENDBRANCH  14  16
ENDBRANCH   1  13
BRANCH   1  24
ATOM     24  C   UNL     1      37.452   2.471  15.413  0.00  0.00    +0.000 C 
BRANCH  24  25
ATOM     25  C   UNL     1      36.674   1.264  15.769  0.00  0.00    +0.000 A 
ATOM     26  C   UNL     1      36.989   0.016  15.287  0.00  0.00    +0.000 A 
ATOM     27  C   UNL     1      36.242  -1.105  15.635  0.00  0.00    +0.000 A 
ATOM     28  C   UNL     1      35.170  -0.926  16.484  0.00  0.00    +0.000 A 
ATOM     29  C   UNL     1      34.814   0.298  16.993  0.00  0.00    +0.000 A 
ATOM     30  C   UNL     1      35.598   1.386  16.610  0.00  0.00    +0.000 A 
ENDBRANCH  24  25
ENDBRANCH   1  24
TORSDOF 8
ENDMDL
MODEL 4
REMARK VINA RESULT:      -7.5      1.564      6.975
REMARK  Name = 
REMARK  8 active torsions:
REMARK  status: ('A' for Active; 'I' for Inactive)
REMARK    1  A    between atoms: C_5  and  N_6
REMARK    2  A    between atoms: C_7  and  C_9
REMARK    3  A    between atoms: C_9  and  C_10
REMARK    4  A    between atoms: C_9  and  N_17
REMARK    5  A    between atoms: C_10  and  C_11
REMARK    6  A    between atoms: C_18  and  O_20
REMARK    7  A    between atoms: O_20  and  C_21
REMARK    8  A    between atoms: C_21  and  C_22
REMARK                            x       y       z     vdW  Elec       q    Type
REMARK                         _______ _______ _______ _____ _____    ______ ____
ROOT
ATOM      1  C   UNL     1      36.636   5.030  15.034  0.00  0.00    +0.000 C 
ENDROOT
BRANCH   1   3
ATOM      2  N   UNL     1      35.629   2.694  15.600  0.00  0.00    +0.000 NA
ATOM      3  C   UNL     1      36.678   3.577  15.605  0.00  0.00    +0.000 C 
ATOM      4  O   UNL     1      37.718   3.193  16.095  0.00  0.00    +0.000 OA
BRANCH   2   9
ATOM      5  C   UNL     1      36.123  -2.656  17.337  0.00  0.00    +0.000 C 
ATOM      6  C   UNL     1      35.980  -1.208  16.947  0.00  0.00    +0.000 A 
ATOM      7  C   UNL     1      36.113  -0.934  15.608  0.00  0.00    +0.000 A 
ATOM      8  C   UNL     1      35.981   0.402  15.240  0.00  0.00    +0.000 A 
ATOM      9  C   UNL     1      35.734   1.412  16.125  0.00  0.00    +0.000 A 
ATOM     10  C   UNL     1      35.609   1.090  17.461  0.00  0.00    +0.000 A 
ATOM     11  C   UNL     1      35.731  -0.228  17.882  0.00  0.00    +0.000 A 
ATOM     12  C   UNL     1      35.603  -0.620  19.303  0.00  0.00    +0.000 C 
ENDBRANCH   2   9
ENDBRANCH   1   3
BRANCH   1  13
ATOM     13  N   UNL     1      38.128   5.423  15.139  0.00  0.00    +0.000 NA
ATOM     14  C   UNL     1      38.497   6.730  15.475  0.00  0.00    +0.000 C 
ATOM     15  O   UNL     1      37.531   7.499  15.677  0.00  0.00    +0.000 OA
BRANCH  14  16
ATOM     16  O   UNL     1      39.840   7.118  15.571  0.00  0.00    +0.000 OA
BRANCH  16  17
ATOM     17  C   UNL     1      40.728   6.104  16.011  0.00  0.00    +0.000 C 
BRANCH  17  18
ATOM     18  C   UNL     1      40.953   6.243  17.486  0.00  0.00    +0.000 A 
ATOM     19  C   UNL     1      42.224   6.544  17.928  0.00  0.00    +0.000 A 
ATOM     20  C   UNL     1      42.534   6.696  19.262  0.00  0.00    +0.000 A 
ATOM     21  C   UNL     1      41.512   6.535  20.173  0.00  0.00    +0.000 A 
ATOM     22  C   UNL     1      40.237   6.233  19.738  0.00  0.00    +0.000 A 
ATOM     23  C   UNL     1      39.936   6.083  18.398  0.00  0.00    +0.000 A 
ENDBRANCH  17  18
ENDBRANCH  16  17
ENDBRANCH  14  16
ENDBRANCH   1  13
BRANCH   1  24
ATOM     24  C   UNL     1      36.688   4.709  13.424  0.00  0.00    +0.000 C 
BRANCH  24  25
ATOM     25  C   UNL     1      35.701   5.624  12.813  0.00  0.00    +0.000 A 
ATOM     26  C   UNL     1      34.658   6.166  13.526  0.00  0.00    +0.000 A 
ATOM     27  C   UNL     1      33.740   7.025  12.928  0.00  0.00    +0.000 A 
ATOM     28  C   UNL     1      33.909   7.318  11.592  0.00  0.00    +0.000 A 
ATOM     29  C   UNL     1      34.933   6.804  10.835  0.00  0.00    +0.000 A 
ATOM     30  C   UNL     1      35.823   5.949  11.486  0.00  0.00    +0.000 A 
ENDBRANCH  24  25
ENDBRANCH   1  24
TORSDOF 8
ENDMDL
MODEL 5
REMARK VINA RESULT:      -7.4     23.222     26.276
REMARK  Name = 
REMARK  8 active torsions:
REMARK  status: ('A' for Active; 'I' for Inactive)
REMARK    1  A    between atoms: C_5  and  N_6
REMARK    2  A    between atoms: C_7  and  C_9
REMARK    3  A    between atoms: C_9  and  C_10
REMARK    4  A    between atoms: C_9  and  N_17
REMARK    5  A    between atoms: C_10  and  C_11
REMARK    6  A    between atoms: C_18  and  O_20
REMARK    7  A    between atoms: O_20  and  C_21
REMARK    8  A    between atoms: C_21  and  C_22
REMARK                            x       y       z     vdW  Elec       q    Type
REMARK                         _______ _______ _______ _____ _____    ______ ____
ROOT
ATOM      1  C   UNL     1      14.400   0.831  27.393  0.00  0.00    +0.000 C 
ENDROOT
BRANCH   1   3
ATOM      2  N   UNL     1      13.418   0.118  29.699  0.00  0.00    +0.000 NA
ATOM      3  C   UNL     1      14.490   0.348  28.875  0.00  0.00    +0.000 C 
ATOM      4  O   UNL     1      15.593   0.161  29.342  0.00  0.00    +0.000 OA
BRANCH   2   9
ATOM      5  C   UNL     1      13.817  -1.987  34.924  0.00  0.00    +0.000 C 
ATOM      6  C   UNL     1      13.749  -1.363  33.554  0.00  0.00    +0.000 A 
ATOM      7  C   UNL     1      13.101  -2.100  32.594  0.00  0.00    +0.000 A 
ATOM      8  C   UNL     1      13.034  -1.530  31.326  0.00  0.00    +0.000 A 
ATOM      9  C   UNL     1      13.569  -0.313  31.011  0.00  0.00    +0.000 A 
ATOM     10  C   UNL     1      14.212   0.392  32.008  0.00  0.00    +0.000 A 
ATOM     11  C   UNL     1      14.306  -0.131  33.291  0.00  0.00    +0.000 A 
ATOM     12  C   UNL     1      14.985   0.589  34.392  0.00  0.00    +0.000 C 
ENDBRANCH   2   9
ENDBRANCH   1   3
BRANCH   1  13
ATOM     13  N   UNL     1      15.046  -0.367  26.660  0.00  0.00    +0.000 NA
ATOM     14  C   UNL     1      16.297  -0.235  26.046  0.00  0.00    +0.000 C 
ATOM     15  O   UNL     1      16.804   0.902  26.159  0.00  0.00    +0.000 OA
BRANCH  14  16
ATOM     16  O   UNL     1      16.905  -1.300  25.370  0.00  0.00    +0.000 OA
BRANCH  16  17
ATOM     17  C   UNL     1      18.270  -1.513  25.688  0.00  0.00    +0.000 C 
BRANCH  17  18
ATOM     18  C   UNL     1      19.100  -1.365  24.450  0.00  0.00    +0.000 A 
ATOM     19  C   UNL     1      19.530  -0.103  24.098  0.00  0.00    +0.000 A 
ATOM     20  C   UNL     1      20.300   0.139  22.981  0.00  0.00    +0.000 A 
ATOM     21  C   UNL     1      20.641  -0.943  22.199  0.00  0.00    +0.000 A 
ATOM     22  C   UNL     1      20.214  -2.210  22.545  0.00  0.00    +0.000 A 
ATOM     23  C   UNL     1      19.442  -2.442  23.667  0.00  0.00    +0.000 A 
ENDBRANCH  17  18
ENDBRANCH  16  17
ENDBRANCH  14  16
ENDBRANCH   1  13
BRANCH   1  24
ATOM     24  C   UNL     1      12.856   0.395  27.041  0.00  0.00    +0.000 C 
BRANCH  24  25
ATOM     25  C   UNL     1      12.120   1.667  26.880  0.00  0.00    +0.000 A 
ATOM     26  C   UNL     1      10.840   1.719  26.380  0.00  0.00    +0.000 A 
ATOM     27  C   UNL     1      10.167   2.929  26.237  0.00  0.00    +0.000 A 
ATOM     28  C   UNL     1      10.825   4.080  26.612  0.00  0.00    +0.000 A 
ATOM     29  C   UNL     1      12.102   4.083  27.116  0.00  0.00    +0.000 A 
ATOM     30  C   UNL     1      12.729   2.843  27.238  0.00  0.00    +0.000 A 
ENDBRANCH  24  25
ENDBRANCH   1  24
TORSDOF 8
ENDMDL
MODEL 6
REMARK VINA RESULT:      -7.4     23.815     26.798
REMARK  Name = 
REMARK  8 active torsions:
REMARK  status: ('A' for Active; 'I' for Inactive)
REMARK    1  A    between atoms: C_5  and  N_6
REMARK    2  A    between atoms: C_7  and  C_9
REMARK    3  A    between atoms: C_9  and  C_10
REMARK    4  A    between atoms: C_9  and  N_17
REMARK    5  A    between atoms: C_10  and  C_11
REMARK    6  A    between atoms: C_18  and  O_20
REMARK    7  A    between atoms: O_20  and  C_21
REMARK    8  A    between atoms: C_21  and  C_22
REMARK                            x       y       z     vdW  Elec       q    Type
REMARK                         _______ _______ _______ _____ _____    ______ ____
ROOT
ATOM      1  C   UNL     1      13.492  -0.121  27.756  0.00  0.00    +0.000 C 
ENDROOT
BRANCH   1   3
ATOM      2  N   UNL     1      15.325  -0.258  25.908  0.00  0.00    +0.000 NA
ATOM      3  C   UNL     1      14.957  -0.070  27.216  0.00  0.00    +0.000 C 
ATOM      4  O   UNL     1      15.844   0.151  28.011  0.00  0.00    +0.000 OA
BRANCH   2   9
ATOM      5  C   UNL     1      20.687   0.408  24.266  0.00  0.00    +0.000 C 
ATOM      6  C   UNL     1      19.265   0.154  24.695  0.00  0.00    +0.000 A 
ATOM      7  C   UNL     1      18.534   1.268  25.026  0.00  0.00    +0.000 A 
ATOM      8  C   UNL     1      17.218   1.042  25.423  0.00  0.00    +0.000 A 
ATOM      9  C   UNL     1      16.650  -0.198  25.493  0.00  0.00    +0.000 A 
ATOM     10  C   UNL     1      17.423  -1.288  25.152  0.00  0.00    +0.000 A 
ATOM     11  C   UNL     1      18.741  -1.118  24.748  0.00  0.00    +0.000 A 
ATOM     12  C   UNL     1      19.607  -2.258  24.372  0.00  0.00    +0.000 C 
ENDBRANCH   2   9
ENDBRANCH   1   3
BRANCH   1  13
ATOM     13  N   UNL     1      13.736   0.088  29.268  0.00  0.00    +0.000 NA
ATOM     14  C   UNL     1      12.789  -0.339  30.206  0.00  0.00    +0.000 C 
ATOM     15  O   UNL     1      11.782  -0.884  29.705  0.00  0.00    +0.000 OA
BRANCH  14  16
ATOM     16  O   UNL     1      12.979  -0.158  31.582  0.00  0.00    +0.000 OA
BRANCH  16  17
ATOM     17  C   UNL     1      14.196   0.474  31.943  0.00  0.00    +0.000 C 
BRANCH  17  18
ATOM     18  C   UNL     1      14.706  -0.118  33.221  0.00  0.00    +0.000 A 
ATOM     19  C   UNL     1      15.092  -1.442  33.220  0.00  0.00    +0.000 A 
ATOM     20  C   UNL     1      15.576  -2.079  34.342  0.00  0.00    +0.000 A 
ATOM     21  C   UNL     1      15.669  -1.339  35.501  0.00  0.00    +0.000 A 
ATOM     22  C   UNL     1      15.285  -0.014  35.510  0.00  0.00    +0.000 A 
ATOM     23  C   UNL     1      14.800   0.616  34.380  0.00  0.00    +0.000 A 
ENDBRANCH  17  18
ENDBRANCH  16  17
ENDBRANCH  14  16
ENDBRANCH   1  13
BRANCH   1  24
ATOM     24  C   UNL     1      13.027   1.429  27.473  0.00  0.00    +0.000 C 
BRANCH  24  25
ATOM     25  C   UNL     1      11.763   1.324  26.713  0.00  0.00    +0.000 A 
ATOM     26  C   UNL     1      11.283   0.124  26.244  0.00  0.00    +0.000 A 
ATOM     27  C   UNL     1      10.091   0.050  25.530  0.00  0.00    +0.000 A 
ATOM     28  C   UNL     1       9.402   1.223  25.304  0.00  0.00    +0.000 A 
ATOM     29  C   UNL     1       9.838   2.446  25.750  0.00  0.00    +0.000 A 
ATOM     30  C   UNL     1      11.038   2.460  26.460  0.00  0.00    +0.000 A 
ENDBRANCH  24  25
ENDBRANCH   1  24
TORSDOF 8
ENDMDL
MODEL 7
REMARK VINA RESULT:      -7.3      3.442      6.308
REMARK  Name = 
REMARK  8 active torsions:
REMARK  status: ('A' for Active; 'I' for Inactive)
REMARK    1  A    between atoms: C_5  and  N_6
REMARK    2  A    between atoms: C_7  and  C_9
REMARK    3  A    between atoms: C_9  and  C_10
REMARK    4  A    between atoms: C_9  and  N_17
REMARK    5  A    between atoms: C_10  and  C_11
REMARK    6  A    between atoms: C_18  and  O_20
REMARK    7  A    between atoms: O_20  and  C_21
REMARK    8  A    between atoms: C_21  and  C_22
REMARK                            x       y       z     vdW  Elec       q    Type
REMARK                         _______ _______ _______ _____ _____    ______ ____
ROOT
ATOM      1  C   UNL     1      35.533   2.090  14.906  0.00  0.00    +0.000 C 
ENDROOT
BRANCH   1   3
ATOM      2  N   UNL     1      36.072   4.370  13.764  0.00  0.00    +0.000 NA
ATOM      3  C   UNL     1      35.271   3.590  14.559  0.00  0.00    +0.000 C 
ATOM      4  O   UNL     1      34.283   4.113  15.027  0.00  0.00    +0.000 OA
BRANCH   2   9
ATOM      5  C   UNL     1      35.099   9.882  13.018  0.00  0.00    +0.000 C 
ATOM      6  C   UNL     1      35.319   8.397  13.153  0.00  0.00    +0.000 A 
ATOM      7  C   UNL     1      36.057   7.999  14.240  0.00  0.00    +0.000 A 
ATOM      8  C   UNL     1      36.263   6.629  14.371  0.00  0.00    +0.000 A 
ATOM      9  C   UNL     1      35.779   5.701  13.494  0.00  0.00    +0.000 A 
ATOM     10  C   UNL     1      35.044   6.147  12.415  0.00  0.00    +0.000 A 
ATOM     11  C   UNL     1      34.807   7.504  12.238  0.00  0.00    +0.000 A 
ATOM     12  C   UNL     1      34.023   8.029  11.097  0.00  0.00    +0.000 C 
ENDBRANCH   2   9
ENDBRANCH   1   3
BRANCH   1  13
ATOM     13  N   UNL     1      37.043   1.982  14.593  0.00  0.00    +0.000 NA
ATOM     14  C   UNL     1      37.501   1.112  13.597  0.00  0.00    +0.000 C 
ATOM     15  O   UNL     1      36.595   0.473  13.019  0.00  0.00    +0.000 OA
BRANCH  14  16
ATOM     16  O   UNL     1      38.863   0.987  13.294  0.00  0.00    +0.000 OA
BRANCH  16  17
ATOM     17  C   UNL     1      39.724   0.906  14.419  0.00  0.00    +0.000 C 
BRANCH  17  18
ATOM     18  C   UNL     1      39.816  -0.518  14.875  0.00  0.00    +0.000 A 
ATOM     19  C   UNL     1      38.891  -0.972  15.791  0.00  0.00    +0.000 A 
ATOM     20  C   UNL     1      38.888  -2.263  16.272  0.00  0.00    +0.000 A 
ATOM     21  C   UNL     1      39.861  -3.118  15.800  0.00  0.00    +0.000 A 
ATOM     22  C   UNL     1      40.791  -2.671  14.883  0.00  0.00    +0.000 A 
ATOM     23  C   UNL     1      40.785  -1.373  14.407  0.00  0.00    +0.000 A 
ENDBRANCH  17  18
ENDBRANCH  16  17
ENDBRANCH  14  16
ENDBRANCH   1  13
BRANCH   1  24
ATOM     24  C   UNL     1      35.735   2.202  16.533  0.00  0.00    +0.000 C 
BRANCH  24  25
ATOM     25  C   UNL     1      35.689   0.809  17.027  0.00  0.00    +0.000 A 
ATOM     26  C   UNL     1      35.209  -0.229  16.263  0.00  0.00    +0.000 A 
ATOM     27  C   UNL     1      35.175  -1.532  16.751  0.00  0.00    +0.000 A 
ATOM     28  C   UNL     1      35.639  -1.753  18.031  0.00  0.00    +0.000 A 
ATOM     29  C   UNL     1      36.128  -0.752  18.834  0.00  0.00    +0.000 A 
ATOM     30  C   UNL     1      36.139   0.534  18.294  0.00  0.00    +0.000 A 
ENDBRANCH  24  25
ENDBRANCH   1  24
TORSDOF 8
ENDMDL
MODEL 8
REMARK VINA RESULT:      -7.2      2.050      6.270
REMARK  Name = 
REMARK  8 active torsions:
REMARK  status: ('A' for Active; 'I' for Inactive)
REMARK    1  A    between atoms: C_5  and  N_6
REMARK    2  A    between atoms: C_7  and  C_9
REMARK    3  A    between atoms: C_9  and  C_10
REMARK    4  A    between atoms: C_9  and  N_17
REMARK    5  A    between atoms: C_10  and  C_11
REMARK    6  A    between atoms: C_18  and  O_20
REMARK    7  A    between atoms: O_20  and  C_21
REMARK    8  A    between atoms: C_21  and  C_22
REMARK                            x       y       z     vdW  Elec       q    Type
REMARK                         _______ _______ _______ _____ _____    ______ ____
ROOT
ATOM      1  C   UNL     1      36.479   3.528  15.175  0.00  0.00    +0.000 C 
ENDROOT
BRANCH   1   3
ATOM      2  N   UNL     1      37.929   5.271  16.460  0.00  0.00    +0.000 NA
ATOM      3  C   UNL     1      37.739   4.006  15.964  0.00  0.00    +0.000 C 
ATOM      4  O   UNL     1      38.624   3.201  16.156  0.00  0.00    +0.000 OA
BRANCH   2   9
ATOM      5  C   UNL     1      42.369   6.685  19.651  0.00  0.00    +0.000 C 
ATOM      6  C   UNL     1      41.228   6.318  18.737  0.00  0.00    +0.000 A 
ATOM      7  C   UNL     1      40.047   5.994  19.357  0.00  0.00    +0.000 A 
ATOM      8  C   UNL     1      38.988   5.655  18.519  0.00  0.00    +0.000 A 
ATOM      9  C   UNL     1      39.076   5.631  17.157  0.00  0.00    +0.000 A 
ATOM     10  C   UNL     1      40.283   5.963  16.577  0.00  0.00    +0.000 A 
ATOM     11  C   UNL     1      41.371   6.311  17.367  0.00  0.00    +0.000 A 
ATOM     12  C   UNL     1      42.685   6.675  16.790  0.00  0.00    +0.000 C 
ENDBRANCH   2   9
ENDBRANCH   1   3
BRANCH   1  13
ATOM     13  N   UNL     1      36.685   4.265  13.831  0.00  0.00    +0.000 NA
ATOM     14  C   UNL     1      35.742   5.193  13.378  0.00  0.00    +0.000 C 
ATOM     15  O   UNL     1      34.770   5.353  14.148  0.00  0.00    +0.000 OA
BRANCH  14  16
ATOM     16  O   UNL     1      35.897   5.872  12.163  0.00  0.00    +0.000 OA
BRANCH  16  17
ATOM     17  C   UNL     1      36.543   5.132  11.140  0.00  0.00    +0.000 C 
BRANCH  17  18
ATOM     18  C   UNL     1      35.891   5.427   9.823  0.00  0.00    +0.000 A 
ATOM     19  C   UNL     1      35.076   6.536   9.731  0.00  0.00    +0.000 A 
ATOM     20  C   UNL     1      34.434   6.894   8.566  0.00  0.00    +0.000 A 
ATOM     21  C   UNL     1      34.631   6.095   7.460  0.00  0.00    +0.000 A 
ATOM     22  C   UNL     1      35.445   4.984   7.545  0.00  0.00    +0.000 A 
ATOM     23  C   UNL     1      36.085   4.632   8.719  0.00  0.00    +0.000 A 
ENDBRANCH  17  18
ENDBRANCH  16  17
ENDBRANCH  14  16
ENDBRANCH   1  13
BRANCH   1  24
ATOM     24  C   UNL     1      37.019   2.077  14.623  0.00  0.00    +0.000 C 
BRANCH  24  25
ATOM     25  C   UNL     1      36.277   1.064  15.404  0.00  0.00    +0.000 A 
ATOM     26  C   UNL     1      36.458  -0.286  15.219  0.00  0.00    +0.000 A 
ATOM     27  C   UNL     1      35.747  -1.222  15.965  0.00  0.00    +0.000 A 
ATOM     28  C   UNL     1      34.850  -0.751  16.901  0.00  0.00    +0.000 A 
ATOM     29  C   UNL     1      34.632   0.585  17.124  0.00  0.00    +0.000 A 
ATOM     30  C   UNL     1      35.372   1.478  16.348  0.00  0.00    +0.000 A 
ENDBRANCH  24  25
ENDBRANCH   1  24
TORSDOF 8
ENDMDL
MODEL 9
REMARK VINA RESULT:      -7.1      1.967      6.474
REMARK  Name = 
REMARK  8 active torsions:
REMARK  status: ('A' for Active; 'I' for Inactive)
REMARK    1  A    between atoms: C_5  and  N_6
REMARK    2  A    between atoms: C_7  and  C_9
REMARK    3  A    between atoms: C_9  and  C_10
REMARK    4  A    between atoms: C_9  and  N_17
REMARK    5  A    between atoms: C_10  and  C_11
REMARK    6  A    between atoms: C_18  and  O_20
REMARK    7  A    between atoms: O_20  and  C_21
REMARK    8  A    between atoms: C_21  and  C_22
REMARK                            x       y       z     vdW  Elec       q    Type
REMARK                         _______ _______ _______ _____ _____    ______ ____
ROOT
ATOM      1  C   UNL     1      38.088   5.095  16.103  0.00  0.00    +0.000 C 
ENDROOT
BRANCH   1   3
ATOM      2  N   UNL     1      36.229   5.777  14.409  0.00  0.00    +0.000 NA
ATOM      3  C   UNL     1      37.529   5.827  14.842  0.00  0.00    +0.000 C 
ATOM      4  O   UNL     1      38.302   6.493  14.187  0.00  0.00    +0.000 OA
BRANCH   2   9
ATOM      5  C   UNL     1      34.562   8.179   9.578  0.00  0.00    +0.000 C 
ATOM      6  C   UNL     1      34.989   7.603  10.904  0.00  0.00    +0.000 A 
ATOM      7  C   UNL     1      35.444   6.308  10.873  0.00  0.00    +0.000 A 
ATOM      8  C   UNL     1      35.841   5.770  12.094  0.00  0.00    +0.000 A 
ATOM      9  C   UNL     1      35.797   6.454  13.275  0.00  0.00    +0.000 A 
ATOM     10  C   UNL     1      35.332   7.753  13.258  0.00  0.00    +0.000 A 
ATOM     11  C   UNL     1      34.925   8.339  12.066  0.00  0.00    +0.000 A 
ATOM     12  C   UNL     1      34.420   9.729  11.999  0.00  0.00    +0.000 C 
ENDBRANCH   2   9
ENDBRANCH   1   3
BRANCH   1  13
ATOM     13  N   UNL     1      38.165   3.641  15.582  0.00  0.00    +0.000 NA
ATOM     14  C   UNL     1      37.274   2.670  16.052  0.00  0.00    +0.000 C 
ATOM     15  O   UNL     1      36.450   3.095  16.892  0.00  0.00    +0.000 OA
BRANCH  14  16
ATOM     16  O   UNL     1      37.322   1.344  15.604  0.00  0.00    +0.000 OA
BRANCH  16  17
ATOM     17  C   UNL     1      36.302   0.500  16.113  0.00  0.00    +0.000 C 
BRANCH  17  18
ATOM     18  C   UNL     1      36.904  -0.503  17.048  0.00  0.00    +0.000 A 
ATOM     19  C   UNL     1      36.506  -0.489  18.368  0.00  0.00    +0.000 A 
ATOM     20  C   UNL     1      36.998  -1.371  19.305  0.00  0.00    +0.000 A 
ATOM     21  C   UNL     1      37.926  -2.297  18.880  0.00  0.00    +0.000 A 
ATOM     22  C   UNL     1      38.329  -2.318  17.560  0.00  0.00    +0.000 A 
ATOM     23  C   UNL     1      37.830  -1.429  16.627  0.00  0.00    +0.000 A 
ENDBRANCH  17  18
ENDBRANCH  16  17
ENDBRANCH  14  16
ENDBRANCH   1  13
BRANCH   1  24
ATOM     24  C   UNL     1      39.693   5.394  15.922  0.00  0.00    +0.000 C 
BRANCH  24  25
ATOM     25  C   UNL     1      40.157   5.847  17.251  0.00  0.00    +0.000 A 
ATOM     26  C   UNL     1      41.445   6.271  17.477  0.00  0.00    +0.000 A 
ATOM     27  C   UNL     1      41.859   6.693  18.737  0.00  0.00    +0.000 A 
ATOM     28  C   UNL     1      40.934   6.672  19.759  0.00  0.00    +0.000 A 
ATOM     29  C   UNL     1      39.636   6.258  19.587  0.00  0.00    +0.000 A 
ATOM     30  C   UNL     1      39.277   5.846  18.303  0.00  0.00    +0.000 A 
ENDBRANCH  24  25
ENDBRANCH   1  24
TORSDOF 8
ENDMDL
MODEL 10
REMARK VINA RESULT:      -7.0      3.314      5.978
REMARK  Name = 
REMARK  8 active torsions:
REMARK  status: ('A' for Active; 'I' for Inactive)
REMARK    1  A    between atoms: C_5  and  N_6
REMARK    2  A    between atoms: C_7  and  C_9
REMARK    3  A    between atoms: C_9  and  C_10
REMARK    4  A    between atoms: C_9  and  N_17
REMARK    5  A    between atoms: C_10  and  C_11
REMARK    6  A    between atoms: C_18  and  O_20
REMARK    7  A    between atoms: O_20  and  C_21
REMARK    8  A    between atoms: C_21  and  C_22
REMARK                            x       y       z     vdW  Elec       q    Type
REMARK                         _______ _______ _______ _____ _____    ______ ____
ROOT
ATOM      1  C   UNL     1      35.798   1.781  14.325  0.00  0.00    +0.000 C 
ENDROOT
BRANCH   1   3
ATOM      2  N   UNL     1      35.770   4.316  13.721  0.00  0.00    +0.000 NA
ATOM      3  C   UNL     1      35.471   3.287  14.577  0.00  0.00    +0.000 C 
ATOM      4  O   UNL     1      34.909   3.577  15.611  0.00  0.00    +0.000 OA
BRANCH   2   9
ATOM      5  C   UNL     1      34.066   9.597  14.767  0.00  0.00    +0.000 C 
ATOM      6  C   UNL     1      34.591   8.208  14.509  0.00  0.00    +0.000 A 
ATOM      7  C   UNL     1      33.670   7.296  14.059  0.00  0.00    +0.000 A 
ATOM      8  C   UNL     1      34.149   6.011  13.818  0.00  0.00    +0.000 A 
ATOM      9  C   UNL     1      35.449   5.638  14.007  0.00  0.00    +0.000 A 
ATOM     10  C   UNL     1      36.339   6.588  14.462  0.00  0.00    +0.000 A 
ATOM     11  C   UNL     1      35.914   7.886  14.716  0.00  0.00    +0.000 A 
ATOM     12  C   UNL     1      36.833   8.939  15.204  0.00  0.00    +0.000 C 
ENDBRANCH   2   9
ENDBRANCH   1   3
BRANCH   1  13
ATOM     13  N   UNL     1      37.200   1.895  13.684  0.00  0.00    +0.000 NA
ATOM     14  C   UNL     1      37.477   1.267  12.465  0.00  0.00    +0.000 C 
ATOM     15  O   UNL     1      36.508   0.644  11.978  0.00  0.00    +0.000 OA
BRANCH  14  16
ATOM     16  O   UNL     1      38.739   1.347  11.862  0.00  0.00    +0.000 OA
BRANCH  16  17
ATOM     17  C   UNL     1      39.324   0.099  11.525  0.00  0.00    +0.000 C 
BRANCH  17  18
ATOM     18  C   UNL     1      39.469  -0.734  12.761  0.00  0.00    +0.000 A 
ATOM     19  C   UNL     1      38.904  -1.992  12.772  0.00  0.00    +0.000 A 
ATOM     20  C   UNL     1      38.983  -2.836  13.858  0.00  0.00    +0.000 A 
ATOM     21  C   UNL     1      39.662  -2.381  14.968  0.00  0.00    +0.000 A 
ATOM     22  C   UNL     1      40.230  -1.123  14.965  0.00  0.00    +0.000 A 
ATOM     23  C   UNL     1      40.145  -0.283  13.871  0.00  0.00    +0.000 A 
ENDBRANCH  17  18
ENDBRANCH  16  17
ENDBRANCH  14  16
ENDBRANCH   1  13
BRANCH   1  24
ATOM     24  C   UNL     1      36.357   1.355  15.810  0.00  0.00    +0.000 C 
BRANCH  24  25
ATOM     25  C   UNL     1      35.768   0.026  16.081  0.00  0.00    +0.000 A 
ATOM     26  C   UNL     1      34.822  -0.176  17.058  0.00  0.00    +0.000 A 
ATOM     27  C   UNL     1      34.283  -1.437  17.295  0.00  0.00    +0.000 A 
ATOM     28  C   UNL     1      34.728  -2.484  16.517  0.00  0.00    +0.000 A 
ATOM     29  C   UNL     1      35.670  -2.336  15.529  0.00  0.00    +0.000 A 
ATOM     30  C   UNL     1      36.175  -1.051  15.335  0.00  0.00    +0.000 A 
ENDBRANCH  24  25
ENDBRANCH   1  24
TORSDOF 8
ENDMDL
