MODEL 1
REMARK VINA RESULT:      -8.6      0.000      0.000
REMARK  Name = 
REMARK  7 active torsions:
REMARK  status: ('A' for Active; 'I' for Inactive)
REMARK    1  A    between atoms: O_2  and  C_3
REMARK    2  A    between atoms: C_6  and  N_7
REMARK    3  A    between atoms: N_7  and  C_8
REMARK    4  A    between atoms: C_9  and  S_10
REMARK    5  A    between atoms: S_10  and  C_11
REMARK    6  A    between atoms: N_20  and  C_21
REMARK    7  A    between atoms: C_24  and  C_25
REMARK                            x       y       z     vdW  Elec       q    Type
REMARK                         _______ _______ _______ _____ _____    ______ ____
ROOT
ATOM      1  C   UNL     1      36.404   4.489  14.769  0.00  0.00    +0.000 C 
ATOM      2  C   UNL     1      37.721   4.235  14.849  0.00  0.00    +0.000 C 
ATOM      3  C   UNL     1      37.890   2.803  15.061  0.00  0.00    +0.000 C 
ATOM      4  O   UNL     1      38.989   2.210  15.183  0.00  0.00    +0.000 OA
ATOM      5  N   UNL     1      36.618   2.167  15.112  0.00  0.00    +0.000 N 
ATOM      6  C   UNL     1      35.682   3.231  14.928  0.00  0.00    +0.000 C 
ATOM      7  O   UNL     1      34.434   3.074  14.911  0.00  0.00    +0.000 OA
ENDROOT
BRANCH   5   8
ATOM      8  C   UNL     1      36.332   0.790  15.303  0.00  0.00    +0.000 A 
ATOM      9  C   UNL     1      35.605   0.307  16.383  0.00  0.00    +0.000 A 
ATOM     10  C   UNL     1      35.352  -1.041  16.521  0.00  0.00    +0.000 A 
ATOM     11  C   UNL     1      35.801  -1.960  15.612  0.00  0.00    +0.000 A 
ATOM     12  C   UNL     1      36.523  -1.494  14.536  0.00  0.00    +0.000 A 
ATOM     13  C   UNL     1      36.780  -0.145  14.389  0.00  0.00    +0.000 A 
BRANCH  11  14
ATOM     14  C   UNL     1      35.545  -3.421  15.731  0.00  0.00    +0.000 C 
ATOM     15  C   UNL     1      34.151  -3.763  15.226  0.00  0.00    +0.000 C 
ATOM     16  C   UNL     1      36.575  -4.144  14.878  0.00  0.00    +0.000 C 
ENDBRANCH  11  14
ENDBRANCH   5   8
BRANCH   1  17
ATOM     17  N   UNL     1      35.869   5.786  14.566  0.00  0.00    +0.000 NA
BRANCH  17  21
ATOM     18  C   UNL     1      34.447   6.833  10.733  0.00  0.00    +0.000 A 
ATOM     19  C   UNL     1      33.706   7.136  11.855  0.00  0.00    +0.000 A 
ATOM     20  C   UNL     1      34.169   6.793  13.122  0.00  0.00    +0.000 A 
ATOM     21  C   UNL     1      35.391   6.137  13.272  0.00  0.00    +0.000 A 
ATOM     22  C   UNL     1      36.097   5.856  12.122  0.00  0.00    +0.000 A 
ATOM     23  C   UNL     1      35.656   6.187  10.854  0.00  0.00    +0.000 A 
BRANCH  18  25
ATOM     24  C   UNL     1      34.601   8.214   8.729  0.00  0.00    +0.000 C 
ATOM     25  O   UNL     1      34.007   7.164   9.463  0.00  0.00    +0.000 OA
ENDBRANCH  18  25
ENDBRANCH  17  21
ENDBRANCH   1  17
BRANCH   2  26
ATOM     26  S   UNL     1      39.046   5.416  14.723  0.00  0.00    +0.000 S 
BRANCH  26  27
ATOM     27  C   UNL     1      39.700   5.724  16.337  0.00  0.00    +0.000 A 
ATOM     28  C   UNL     1      38.891   5.427  17.414  0.00  0.00    +0.000 A 
ATOM     29  C   UNL     1      39.273   5.615  18.718  0.00  0.00    +0.000 A 
ATOM     30  C   UNL     1      40.538   6.132  18.968  0.00  0.00    +0.000 A 
ATOM     31  C   UNL     1      40.997   6.356  20.378  0.00  0.00    +0.000 C 
ATOM     32  C   UNL     1      41.340   6.426  17.881  0.00  0.00    +0.000 A 
ATOM     33  C   UNL     1      40.949   6.235  16.574  0.00  0.00    +0.000 A 
ENDBRANCH  26  27
ENDBRANCH   2  26
TORSDOF 7
ENDMDL
MODEL 2
REMARK VINA RESULT:      -8.5      3.714      8.788
REMARK  Name = 
REMARK  7 active torsions:
REMARK  status: ('A' for Active; 'I' for Inactive)
REMARK    1  A    between atoms: O_2  and  C_3
REMARK    2  A    between atoms: C_6  and  N_7
REMARK    3  A    between atoms: N_7  and  C_8
REMARK    4  A    between atoms: C_9  and  S_10
REMARK    5  A    between atoms: S_10  and  C_11
REMARK    6  A    between atoms: N_20  and  C_21
REMARK    7  A    between atoms: C_24  and  C_25
REMARK                            x       y       z     vdW  Elec       q    Type
REMARK                         _______ _______ _______ _____ _____    ______ ____
ROOT
ATOM      1  C   UNL     1      38.295   2.585  14.231  0.00  0.00    +0.000 C 
ATOM      2  C   UNL     1      37.211   2.220  14.936  0.00  0.00    +0.000 C 
ATOM      3  C   UNL     1      37.096   3.116  16.080  0.00  0.00    +0.000 C 
ATOM      4  O   UNL     1      36.199   3.068  16.954  0.00  0.00    +0.000 OA
ATOM      5  N   UNL     1      38.159   4.062  16.062  0.00  0.00    +0.000 N 
ATOM      6  C   UNL     1      38.914   3.726  14.895  0.00  0.00    +0.000 C 
ATOM      7  O   UNL     1      39.948   4.340  14.527  0.00  0.00    +0.000 OA
ENDROOT
BRANCH   5   8
ATOM      8  C   UNL     1      38.421   5.106  16.987  0.00  0.00    +0.000 A 
ATOM      9  C   UNL     1      38.091   6.434  16.749  0.00  0.00    +0.000 A 
ATOM     10  C   UNL     1      38.366   7.411  17.682  0.00  0.00    +0.000 A 
ATOM     11  C   UNL     1      38.971   7.124  18.876  0.00  0.00    +0.000 A 
ATOM     12  C   UNL     1      39.302   5.811  19.125  0.00  0.00    +0.000 A 
ATOM     13  C   UNL     1      39.030   4.826  18.195  0.00  0.00    +0.000 A 
BRANCH  11  14
ATOM     14  C   UNL     1      39.279   8.154  19.905  0.00  0.00    +0.000 C 
ATOM     15  C   UNL     1      40.081   9.295  19.297  0.00  0.00    +0.000 C 
ATOM     16  C   UNL     1      37.960   8.696  20.430  0.00  0.00    +0.000 C 
ENDBRANCH  11  14
ENDBRANCH   5   8
BRANCH   1  17
ATOM     17  N   UNL     1      38.714   1.928  13.046  0.00  0.00    +0.000 NA
BRANCH  17  21
ATOM     18  C   UNL     1      40.728  -1.766  13.381  0.00  0.00    +0.000 A 
ATOM     19  C   UNL     1      41.013  -0.738  14.254  0.00  0.00    +0.000 A 
ATOM     20  C   UNL     1      40.353   0.483  14.148  0.00  0.00    +0.000 A 
ATOM     21  C   UNL     1      39.393   0.681  13.156  0.00  0.00    +0.000 A 
ATOM     22  C   UNL     1      39.140  -0.375  12.307  0.00  0.00    +0.000 A 
ATOM     23  C   UNL     1      39.784  -1.596  12.394  0.00  0.00    +0.000 A 
BRANCH  18  25
ATOM     24  C   UNL     1      42.569  -3.240  12.762  0.00  0.00    +0.000 C 
ATOM     25  O   UNL     1      41.371  -2.989  13.467  0.00  0.00    +0.000 OA
ENDBRANCH  18  25
ENDBRANCH  17  21
ENDBRANCH   1  17
BRANCH   2  26
ATOM     26  S   UNL     1      36.095   0.884  14.565  0.00  0.00    +0.000 S 
BRANCH  26  27
ATOM     27  C   UNL     1      36.809  -0.635  15.123  0.00  0.00    +0.000 A 
ATOM     28  C   UNL     1      37.575  -0.590  16.269  0.00  0.00    +0.000 A 
ATOM     29  C   UNL     1      38.185  -1.693  16.811  0.00  0.00    +0.000 A 
ATOM     30  C   UNL     1      38.024  -2.917  16.176  0.00  0.00    +0.000 A 
ATOM     31  C   UNL     1      38.673  -4.149  16.733  0.00  0.00    +0.000 C 
ATOM     32  C   UNL     1      37.253  -2.950  15.028  0.00  0.00    +0.000 A 
ATOM     33  C   UNL     1      36.645  -1.839  14.488  0.00  0.00    +0.000 A 
ENDBRANCH  26  27
ENDBRANCH   2  26
TORSDOF 7
ENDMDL
MODEL 3
REMARK VINA RESULT:      -8.4      3.636      8.700
REMARK  Name = 
REMARK  7 active torsions:
REMARK  status: ('A' for Active; 'I' for Inactive)
REMARK    1  A    between atoms: O_2  and  C_3
REMARK    2  A    between atoms: C_6  and  N_7
REMARK    3  A    between atoms: N_7  and  C_8
REMARK    4  A    between atoms: C_9  and  S_10
REMARK    5  A    between atoms: S_10  and  C_11
REMARK    6  A    between atoms: N_20  and  C_21
REMARK    7  A    between atoms: C_24  and  C_25
REMARK                            x       y       z     vdW  Elec       q    Type
REMARK                         _______ _______ _______ _____ _____    ______ ____
ROOT
ATOM      1  C   UNL     1      37.411   2.490  14.901  0.00  0.00    +0.000 C 
ATOM      2  C   UNL     1      38.487   2.941  14.233  0.00  0.00    +0.000 C 
ATOM      3  C   UNL     1      39.050   4.054  14.989  0.00  0.00    +0.000 C 
ATOM      4  O   UNL     1      40.062   4.717  14.661  0.00  0.00    +0.000 OA
ATOM      5  N   UNL     1      38.277   4.282  16.162  0.00  0.00    +0.000 N 
ATOM      6  C   UNL     1      37.245   3.296  16.105  0.00  0.00    +0.000 C 
ATOM      7  O   UNL     1      36.346   3.169  16.976  0.00  0.00    +0.000 OA
ENDROOT
BRANCH   5   8
ATOM      8  C   UNL     1      38.477   5.264  17.167  0.00  0.00    +0.000 A 
ATOM      9  C   UNL     1      37.972   6.555  17.081  0.00  0.00    +0.000 A 
ATOM     10  C   UNL     1      38.194   7.472  18.086  0.00  0.00    +0.000 A 
ATOM     11  C   UNL     1      38.915   7.159  19.206  0.00  0.00    +0.000 A 
ATOM     12  C   UNL     1      39.421   5.882  19.305  0.00  0.00    +0.000 A 
ATOM     13  C   UNL     1      39.204   4.957  18.302  0.00  0.00    +0.000 A 
BRANCH  11  14
ATOM     14  C   UNL     1      39.171   8.124  20.310  0.00  0.00    +0.000 C 
ATOM     15  C   UNL     1      40.373   8.999  19.989  0.00  0.00    +0.000 C 
ATOM     16  C   UNL     1      37.939   9.002  20.454  0.00  0.00    +0.000 C 
ENDBRANCH  11  14
ENDBRANCH   5   8
BRANCH   1  17
ATOM     17  N   UNL     1      36.611   1.408  14.453  0.00  0.00    +0.000 NA
BRANCH  17  21
ATOM     18  C   UNL     1      37.720  -2.523  15.515  0.00  0.00    +0.000 A 
ATOM     19  C   UNL     1      37.247  -2.253  14.249  0.00  0.00    +0.000 A 
ATOM     20  C   UNL     1      36.879  -0.958  13.893  0.00  0.00    +0.000 A 
ATOM     21  C   UNL     1      36.984   0.082  14.814  0.00  0.00    +0.000 A 
ATOM     22  C   UNL     1      37.462  -0.234  16.067  0.00  0.00    +0.000 A 
ATOM     23  C   UNL     1      37.833  -1.513  16.443  0.00  0.00    +0.000 A 
BRANCH  18  25
ATOM     24  C   UNL     1      37.145  -4.726  16.388  0.00  0.00    +0.000 C 
ATOM     25  O   UNL     1      38.091  -3.802  15.891  0.00  0.00    +0.000 OA
ENDBRANCH  18  25
ENDBRANCH  17  21
ENDBRANCH   1  17
BRANCH   2  26
ATOM     26  S   UNL     1      39.133   2.314  12.698  0.00  0.00    +0.000 S 
BRANCH  26  27
ATOM     27  C   UNL     1      39.878   0.736  12.989  0.00  0.00    +0.000 A 
ATOM     28  C   UNL     1      39.769  -0.208  11.989  0.00  0.00    +0.000 A 
ATOM     29  C   UNL     1      40.302  -1.469  12.083  0.00  0.00    +0.000 A 
ATOM     30  C   UNL     1      40.984  -1.814  13.242  0.00  0.00    +0.000 A 
ATOM     31  C   UNL     1      41.581  -3.182  13.389  0.00  0.00    +0.000 C 
ATOM     32  C   UNL     1      41.087  -0.859  14.238  0.00  0.00    +0.000 A 
ATOM     33  C   UNL     1      40.549   0.405  14.137  0.00  0.00    +0.000 A 
ENDBRANCH  26  27
ENDBRANCH   2  26
TORSDOF 7
ENDMDL
MODEL 4
REMARK VINA RESULT:      -8.4      2.457      3.468
REMARK  Name = 
REMARK  7 active torsions:
REMARK  status: ('A' for Active; 'I' for Inactive)
REMARK    1  A    between atoms: O_2  and  C_3
REMARK    2  A    between atoms: C_6  and  N_7
REMARK    3  A    between atoms: N_7  and  C_8
REMARK    4  A    between atoms: C_9  and  S_10
REMARK    5  A    between atoms: S_10  and  C_11
REMARK    6  A    between atoms: N_20  and  C_21
REMARK    7  A    between atoms: C_24  and  C_25
REMARK                            x       y       z     vdW  Elec       q    Type
REMARK                         _______ _______ _______ _____ _____    ______ ____
ROOT
ATOM      1  C   UNL     1      36.761   5.706  14.506  0.00  0.00    +0.000 C 
ATOM      2  C   UNL     1      37.976   5.468  15.029  0.00  0.00    +0.000 C 
ATOM      3  C   UNL     1      37.998   4.089  15.502  0.00  0.00    +0.000 C 
ATOM      4  O   UNL     1      38.974   3.523  16.050  0.00  0.00    +0.000 OA
ATOM      5  N   UNL     1      36.740   3.471  15.252  0.00  0.00    +0.000 N 
ATOM      6  C   UNL     1      35.962   4.492  14.624  0.00  0.00    +0.000 C 
ATOM      7  O   UNL     1      34.773   4.335  14.243  0.00  0.00    +0.000 OA
ENDROOT
BRANCH   5   8
ATOM      8  C   UNL     1      36.339   2.144  15.555  0.00  0.00    +0.000 A 
ATOM      9  C   UNL     1      36.722   1.042  14.801  0.00  0.00    +0.000 A 
ATOM     10  C   UNL     1      36.306  -0.228  15.138  0.00  0.00    +0.000 A 
ATOM     11  C   UNL     1      35.502  -0.464  16.221  0.00  0.00    +0.000 A 
ATOM     12  C   UNL     1      35.116   0.619  16.978  0.00  0.00    +0.000 A 
ATOM     13  C   UNL     1      35.528   1.896  16.647  0.00  0.00    +0.000 A 
BRANCH  11  14
ATOM     14  C   UNL     1      35.037  -1.821  16.613  0.00  0.00    +0.000 C 
ATOM     15  C   UNL     1      35.191  -2.796  15.455  0.00  0.00    +0.000 C 
ATOM     16  C   UNL     1      35.896  -2.289  17.776  0.00  0.00    +0.000 C 
ENDBRANCH  11  14
ENDBRANCH   5   8
BRANCH   1  17
ATOM     17  N   UNL     1      36.382   6.954  13.948  0.00  0.00    +0.000 NA
BRANCH  17  21
ATOM     18  C   UNL     1      34.064   9.606  16.273  0.00  0.00    +0.000 A 
ATOM     19  C   UNL     1      35.434   9.566  16.422  0.00  0.00    +0.000 A 
ATOM     20  C   UNL     1      36.203   8.694  15.659  0.00  0.00    +0.000 A 
ATOM     21  C   UNL     1      35.598   7.847  14.732  0.00  0.00    +0.000 A 
ATOM     22  C   UNL     1      34.226   7.921  14.616  0.00  0.00    +0.000 A 
ATOM     23  C   UNL     1      33.442   8.780  15.365  0.00  0.00    +0.000 A 
BRANCH  18  25
ATOM     24  C   UNL     1      32.620  10.029  18.191  0.00  0.00    +0.000 C 
ATOM     25  O   UNL     1      33.279  10.465  17.021  0.00  0.00    +0.000 OA
ENDBRANCH  18  25
ENDBRANCH  17  21
ENDBRANCH   1  17
BRANCH   2  26
ATOM     26  S   UNL     1      39.334   6.611  15.141  0.00  0.00    +0.000 S 
BRANCH  26  27
ATOM     27  C   UNL     1      40.033   6.520  16.764  0.00  0.00    +0.000 A 
ATOM     28  C   UNL     1      41.408   6.511  16.860  0.00  0.00    +0.000 A 
ATOM     29  C   UNL     1      42.079   6.445  18.055  0.00  0.00    +0.000 A 
ATOM     30  C   UNL     1      41.337   6.384  19.228  0.00  0.00    +0.000 A 
ATOM     31  C   UNL     1      42.028   6.310  20.556  0.00  0.00    +0.000 C 
ATOM     32  C   UNL     1      39.958   6.395  19.118  0.00  0.00    +0.000 A 
ATOM     33  C   UNL     1      39.292   6.460  17.915  0.00  0.00    +0.000 A 
ENDBRANCH  26  27
ENDBRANCH   2  26
TORSDOF 7
ENDMDL
MODEL 5
REMARK VINA RESULT:      -8.0      2.263      8.082
REMARK  Name = 
REMARK  7 active torsions:
REMARK  status: ('A' for Active; 'I' for Inactive)
REMARK    1  A    between atoms: O_2  and  C_3
REMARK    2  A    between atoms: C_6  and  N_7
REMARK    3  A    between atoms: N_7  and  C_8
REMARK    4  A    between atoms: C_9  and  S_10
REMARK    5  A    between atoms: S_10  and  C_11
REMARK    6  A    between atoms: N_20  and  C_21
REMARK    7  A    between atoms: C_24  and  C_25
REMARK                            x       y       z     vdW  Elec       q    Type
REMARK                         _______ _______ _______ _____ _____    ______ ____
ROOT
ATOM      1  C   UNL     1      36.394   3.949  15.529  0.00  0.00    +0.000 C 
ATOM      2  C   UNL     1      36.595   5.013  14.732  0.00  0.00    +0.000 C 
ATOM      3  C   UNL     1      37.688   5.795  15.296  0.00  0.00    +0.000 C 
ATOM      4  O   UNL     1      38.147   6.858  14.812  0.00  0.00    +0.000 OA
ATOM      5  N   UNL     1      38.165   5.175  16.485  0.00  0.00    +0.000 N 
ATOM      6  C   UNL     1      37.348   4.012  16.631  0.00  0.00    +0.000 C 
ATOM      7  O   UNL     1      37.459   3.188  17.575  0.00  0.00    +0.000 OA
ENDROOT
BRANCH   5   8
ATOM      8  C   UNL     1      39.212   5.606  17.340  0.00  0.00    +0.000 A 
ATOM      9  C   UNL     1      39.088   5.671  18.722  0.00  0.00    +0.000 A 
ATOM     10  C   UNL     1      40.137   6.095  19.509  0.00  0.00    +0.000 A 
ATOM     11  C   UNL     1      41.339   6.470  18.974  0.00  0.00    +0.000 A 
ATOM     12  C   UNL     1      41.476   6.409  17.606  0.00  0.00    +0.000 A 
ATOM     13  C   UNL     1      40.430   5.985  16.809  0.00  0.00    +0.000 A 
BRANCH  11  14
ATOM     14  C   UNL     1      42.492   6.931  19.795  0.00  0.00    +0.000 C 
ATOM     15  C   UNL     1      42.766   5.954  20.929  0.00  0.00    +0.000 C 
ATOM     16  C   UNL     1      43.710   6.997  18.889  0.00  0.00    +0.000 C 
ENDBRANCH  11  14
ENDBRANCH   5   8
BRANCH   1  17
ATOM     17  N   UNL     1      35.400   2.967  15.285  0.00  0.00    +0.000 NA
BRANCH  17  21
ATOM     18  C   UNL     1      36.565  -1.081  15.035  0.00  0.00    +0.000 A 
ATOM     19  C   UNL     1      37.031  -0.166  14.115  0.00  0.00    +0.000 A 
ATOM     20  C   UNL     1      36.650   1.170  14.192  0.00  0.00    +0.000 A 
ATOM     21  C   UNL     1      35.791   1.601  15.202  0.00  0.00    +0.000 A 
ATOM     22  C   UNL     1      35.350   0.651  16.099  0.00  0.00    +0.000 A 
ATOM     23  C   UNL     1      35.716  -0.682  16.041  0.00  0.00    +0.000 A 
BRANCH  18  25
ATOM     24  C   UNL     1      37.493  -2.974  13.810  0.00  0.00    +0.000 C 
ATOM     25  O   UNL     1      36.930  -2.415  14.978  0.00  0.00    +0.000 OA
ENDBRANCH  18  25
ENDBRANCH  17  21
ENDBRANCH   1  17
BRANCH   2  26
ATOM     26  S   UNL     1      35.703   5.420  13.247  0.00  0.00    +0.000 S 
BRANCH  26  27
ATOM     27  C   UNL     1      35.232   7.124  13.307  0.00  0.00    +0.000 A 
ATOM     28  C   UNL     1      34.460   7.530  14.375  0.00  0.00    +0.000 A 
ATOM     29  C   UNL     1      34.028   8.821  14.545  0.00  0.00    +0.000 A 
ATOM     30  C   UNL     1      34.384   9.768  13.593  0.00  0.00    +0.000 A 
ATOM     31  C   UNL     1      33.932  11.190  13.738  0.00  0.00    +0.000 C 
ATOM     32  C   UNL     1      35.158   9.349  12.527  0.00  0.00    +0.000 A 
ATOM     33  C   UNL     1      35.588   8.051  12.362  0.00  0.00    +0.000 A 
ENDBRANCH  26  27
ENDBRANCH   2  26
TORSDOF 7
ENDMDL
MODEL 6
REMARK VINA RESULT:      -8.0      2.605      7.380
REMARK  Name = 
REMARK  7 active torsions:
REMARK  status: ('A' for Active; 'I' for Inactive)
REMARK    1  A    between atoms: O_2  and  C_3
REMARK    2  A    between atoms: C_6  and  N_7
REMARK    3  A    between atoms: N_7  and  C_8
REMARK    4  A    between atoms: C_9  and  S_10
REMARK    5  A    between atoms: S_10  and  C_11
REMARK    6  A    between atoms: N_20  and  C_21
REMARK    7  A    between atoms: C_24  and  C_25
REMARK                            x       y       z     vdW  Elec       q    Type
REMARK                         _______ _______ _______ _____ _____    ______ ____
ROOT
ATOM      1  C   UNL     1      37.019   5.969  14.572  0.00  0.00    +0.000 C 
ATOM      2  C   UNL     1      37.213   4.654  14.769  0.00  0.00    +0.000 C 
ATOM      3  C   UNL     1      38.158   4.499  15.868  0.00  0.00    +0.000 C 
ATOM      4  O   UNL     1      38.570   3.406  16.325  0.00  0.00    +0.000 OA
ATOM      5  N   UNL     1      38.550   5.778  16.354  0.00  0.00    +0.000 N 
ATOM      6  C   UNL     1      37.832   6.704  15.536  0.00  0.00    +0.000 C 
ATOM      7  O   UNL     1      37.910   7.954  15.654  0.00  0.00    +0.000 OA
ENDROOT
BRANCH   5   8
ATOM      8  C   UNL     1      39.450   6.078  17.409  0.00  0.00    +0.000 A 
ATOM      9  C   UNL     1      40.816   6.245  17.220  0.00  0.00    +0.000 A 
ATOM     10  C   UNL     1      41.648   6.538  18.279  0.00  0.00    +0.000 A 
ATOM     11  C   UNL     1      41.175   6.676  19.556  0.00  0.00    +0.000 A 
ATOM     12  C   UNL     1      39.823   6.515  19.757  0.00  0.00    +0.000 A 
ATOM     13  C   UNL     1      38.982   6.221  18.701  0.00  0.00    +0.000 A 
BRANCH  11  14
ATOM     14  C   UNL     1      42.045   6.993  20.721  0.00  0.00    +0.000 C 
ATOM     15  C   UNL     1      43.006   5.847  20.999  0.00  0.00    +0.000 C 
ATOM     16  C   UNL     1      42.844   8.241  20.378  0.00  0.00    +0.000 C 
ENDBRANCH  11  14
ENDBRANCH   5   8
BRANCH   1  17
ATOM     17  N   UNL     1      36.157   6.491  13.575  0.00  0.00    +0.000 NA
BRANCH  17  21
ATOM     18  C   UNL     1      34.226  10.179  14.272  0.00  0.00    +0.000 A 
ATOM     19  C   UNL     1      35.284  10.104  13.391  0.00  0.00    +0.000 A 
ATOM     20  C   UNL     1      35.925   8.891  13.158  0.00  0.00    +0.000 A 
ATOM     21  C   UNL     1      35.505   7.734  13.813  0.00  0.00    +0.000 A 
ATOM     22  C   UNL     1      34.443   7.856  14.683  0.00  0.00    +0.000 A 
ATOM     23  C   UNL     1      33.791   9.051  14.930  0.00  0.00    +0.000 A 
BRANCH  18  25
ATOM     24  C   UNL     1      34.120  12.343  15.389  0.00  0.00    +0.000 C 
ATOM     25  O   UNL     1      33.573  11.374  14.520  0.00  0.00    +0.000 OA
ENDBRANCH  18  25
ENDBRANCH  17  21
ENDBRANCH   1  17
BRANCH   2  26
ATOM     26  S   UNL     1      36.465   3.316  13.865  0.00  0.00    +0.000 S 
BRANCH  26  27
ATOM     27  C   UNL     1      35.902   2.091  15.009  0.00  0.00    +0.000 A 
ATOM     28  C   UNL     1      36.292   0.788  14.783  0.00  0.00    +0.000 A 
ATOM     29  C   UNL     1      35.928  -0.259  15.592  0.00  0.00    +0.000 A 
ATOM     30  C   UNL     1      35.126   0.006  16.694  0.00  0.00    +0.000 A 
ATOM     31  C   UNL     1      34.703  -1.108  17.604  0.00  0.00    +0.000 C 
ATOM     32  C   UNL     1      34.740   1.316  16.911  0.00  0.00    +0.000 A 
ATOM     33  C   UNL     1      35.109   2.362  16.094  0.00  0.00    +0.000 A 
ENDBRANCH  26  27
ENDBRANCH   2  26
TORSDOF 7
ENDMDL
MODEL 7
REMARK VINA RESULT:      -7.8     24.717     27.920
REMARK  Name = 
REMARK  7 active torsions:
REMARK  status: ('A' for Active; 'I' for Inactive)
REMARK    1  A    between atoms: O_2  and  C_3
REMARK    2  A    between atoms: C_6  and  N_7
REMARK    3  A    between atoms: N_7  and  C_8
REMARK    4  A    between atoms: C_9  and  S_10
REMARK    5  A    between atoms: S_10  and  C_11
REMARK    6  A    between atoms: N_20  and  C_21
REMARK    7  A    between atoms: C_24  and  C_25
REMARK                            x       y       z     vdW  Elec       q    Type
REMARK                         _______ _______ _______ _____ _____    ______ ____
ROOT
ATOM      1  C   UNL     1      28.061  15.363  39.188  0.00  0.00    +0.000 C 
ATOM      2  C   UNL     1      26.753  15.504  38.913  0.00  0.00    +0.000 C 
ATOM      3  C   UNL     1      26.036  14.416  39.567  0.00  0.00    +0.000 C 
ATOM      4  O   UNL     1      24.796  14.233  39.525  0.00  0.00    +0.000 OA
ATOM      5  N   UNL     1      26.954  13.583  40.266  0.00  0.00    +0.000 N 
ATOM      6  C   UNL     1      28.230  14.181  40.026  0.00  0.00    +0.000 C 
ATOM      7  O   UNL     1      29.313  13.732  40.483  0.00  0.00    +0.000 OA
ENDROOT
BRANCH   5   8
ATOM      8  C   UNL     1      26.677  12.420  41.030  0.00  0.00    +0.000 A 
ATOM      9  C   UNL     1      25.919  12.436  42.194  0.00  0.00    +0.000 A 
ATOM     10  C   UNL     1      25.678  11.277  42.899  0.00  0.00    +0.000 A 
ATOM     11  C   UNL     1      26.167  10.066  42.493  0.00  0.00    +0.000 A 
ATOM     12  C   UNL     1      26.919  10.035  41.340  0.00  0.00    +0.000 A 
ATOM     13  C   UNL     1      27.166  11.192  40.627  0.00  0.00    +0.000 A 
BRANCH  11  14
ATOM     14  C   UNL     1      25.924   8.796  43.230  0.00  0.00    +0.000 C 
ATOM     15  C   UNL     1      24.475   8.358  43.077  0.00  0.00    +0.000 C 
ATOM     16  C   UNL     1      26.832   7.732  42.634  0.00  0.00    +0.000 C 
ENDBRANCH  11  14
ENDBRANCH   5   8
BRANCH   1  17
ATOM     17  N   UNL     1      29.060  16.248  38.710  0.00  0.00    +0.000 NA
BRANCH  17  21
ATOM     18  C   UNL     1      31.206  15.203  35.230  0.00  0.00    +0.000 A 
ATOM     19  C   UNL     1      31.611  14.737  36.462  0.00  0.00    +0.000 A 
ATOM     20  C   UNL     1      30.908  15.078  37.613  0.00  0.00    +0.000 A 
ATOM     21  C   UNL     1      29.783  15.898  37.535  0.00  0.00    +0.000 A 
ATOM     22  C   UNL     1      29.415  16.341  36.283  0.00  0.00    +0.000 A 
ATOM     23  C   UNL     1      30.099  16.014  35.125  0.00  0.00    +0.000 A 
BRANCH  18  25
ATOM     24  C   UNL     1      33.223  14.416  34.110  0.00  0.00    +0.000 C 
ATOM     25  O   UNL     1      31.889  14.877  34.071  0.00  0.00    +0.000 OA
ENDBRANCH  18  25
ENDBRANCH  17  21
ENDBRANCH   1  17
BRANCH   2  26
ATOM     26  S   UNL     1      26.000  16.781  37.928  0.00  0.00    +0.000 S 
BRANCH  26  27
ATOM     27  C   UNL     1      25.807  16.192  36.271  0.00  0.00    +0.000 A 
ATOM     28  C   UNL     1      25.264  17.064  35.350  0.00  0.00    +0.000 A 
ATOM     29  C   UNL     1      25.060  16.737  34.033  0.00  0.00    +0.000 A 
ATOM     30  C   UNL     1      25.417  15.465  33.605  0.00  0.00    +0.000 A 
ATOM     31  C   UNL     1      25.211  15.065  32.174  0.00  0.00    +0.000 C 
ATOM     32  C   UNL     1      25.961  14.600  34.537  0.00  0.00    +0.000 A 
ATOM     33  C   UNL     1      26.162  14.935  35.858  0.00  0.00    +0.000 A 
ENDBRANCH  26  27
ENDBRANCH   2  26
TORSDOF 7
ENDMDL
MODEL 8
REMARK VINA RESULT:      -7.7      1.953      6.917
REMARK  Name = 
REMARK  7 active torsions:
REMARK  status: ('A' for Active; 'I' for Inactive)
REMARK    1  A    between atoms: O_2  and  C_3
REMARK    2  A    between atoms: C_6  and  N_7
REMARK    3  A    between atoms: N_7  and  C_8
REMARK    4  A    between atoms: C_9  and  S_10
REMARK    5  A    between atoms: S_10  and  C_11
REMARK    6  A    between atoms: N_20  and  C_21
REMARK    7  A    between atoms: C_24  and  C_25
REMARK                            x       y       z     vdW  Elec       q    Type
REMARK                         _______ _______ _______ _____ _____    ______ ____
ROOT
ATOM      1  C   UNL     1      36.661   5.356  14.614  0.00  0.00    +0.000 C 
ATOM      2  C   UNL     1      37.119   4.093  14.629  0.00  0.00    +0.000 C 
ATOM      3  C   UNL     1      38.261   4.041  15.534  0.00  0.00    +0.000 C 
ATOM      4  O   UNL     1      38.938   3.017  15.792  0.00  0.00    +0.000 OA
ATOM      5  N   UNL     1      38.500   5.330  16.087  0.00  0.00    +0.000 N 
ATOM      6  C   UNL     1      37.490   6.158  15.506  0.00  0.00    +0.000 C 
ATOM      7  O   UNL     1      37.364   7.386  15.748  0.00  0.00    +0.000 OA
ENDROOT
BRANCH   5   8
ATOM      8  C   UNL     1      39.509   5.717  17.007  0.00  0.00    +0.000 A 
ATOM      9  C   UNL     1      39.327   5.713  18.383  0.00  0.00    +0.000 A 
ATOM     10  C   UNL     1      40.340   6.098  19.234  0.00  0.00    +0.000 A 
ATOM     11  C   UNL     1      41.564   6.499  18.770  0.00  0.00    +0.000 A 
ATOM     12  C   UNL     1      41.759   6.507  17.407  0.00  0.00    +0.000 A 
ATOM     13  C   UNL     1      40.748   6.123  16.547  0.00  0.00    +0.000 A 
BRANCH  11  14
ATOM     14  C   UNL     1      42.679   6.918  19.661  0.00  0.00    +0.000 C 
ATOM     15  C   UNL     1      42.543   8.387  20.034  0.00  0.00    +0.000 C 
ATOM     16  C   UNL     1      42.608   6.074  20.923  0.00  0.00    +0.000 C 
ENDBRANCH  11  14
ENDBRANCH   5   8
BRANCH   1  17
ATOM     17  N   UNL     1      35.551   5.775  13.836  0.00  0.00    +0.000 NA
BRANCH  17  21
ATOM     18  C   UNL     1      36.265   7.749  10.175  0.00  0.00    +0.000 A 
ATOM     19  C   UNL     1      36.087   8.475  11.332  0.00  0.00    +0.000 A 
ATOM     20  C   UNL     1      35.851   7.830  12.543  0.00  0.00    +0.000 A 
ATOM     21  C   UNL     1      35.791   6.439  12.600  0.00  0.00    +0.000 A 
ATOM     22  C   UNL     1      35.975   5.754  11.418  0.00  0.00    +0.000 A 
ATOM     23  C   UNL     1      36.211   6.374  10.204  0.00  0.00    +0.000 A 
BRANCH  18  25
ATOM     24  C   UNL     1      36.242   7.711   7.737  0.00  0.00    +0.000 C 
ATOM     25  O   UNL     1      36.501   8.368   8.960  0.00  0.00    +0.000 OA
ENDBRANCH  18  25
ENDBRANCH  17  21
ENDBRANCH   1  17
BRANCH   2  26
ATOM     26  S   UNL     1      36.470   2.709  13.717  0.00  0.00    +0.000 S 
BRANCH  26  27
ATOM     27  C   UNL     1      35.980   1.448  14.856  0.00  0.00    +0.000 A 
ATOM     28  C   UNL     1      35.195   1.830  15.924  0.00  0.00    +0.000 A 
ATOM     29  C   UNL     1      34.744   0.954  16.879  0.00  0.00    +0.000 A 
ATOM     30  C   UNL     1      35.095  -0.385  16.766  0.00  0.00    +0.000 A 
ATOM     31  C   UNL     1      34.625  -1.377  17.788  0.00  0.00    +0.000 C 
ATOM     32  C   UNL     1      35.881  -0.756  15.691  0.00  0.00    +0.000 A 
ATOM     33  C   UNL     1      36.332   0.128  14.737  0.00  0.00    +0.000 A 
ENDBRANCH  26  27
ENDBRANCH   2  26
TORSDOF 7
ENDMDL
MODEL 9
REMARK VINA RESULT:      -7.6      2.102      8.570
REMARK  Name = 
REMARK  7 active torsions:
REMARK  status: ('A' for Active; 'I' for Inactive)
REMARK    1  A    between atoms: O_2  and  C_3
REMARK    2  A    between atoms: C_6  and  N_7
REMARK    3  A    between atoms: N_7  and  C_8
REMARK    4  A    between atoms: C_9  and  S_10
REMARK    5  A    between atoms: S_10  and  C_11
REMARK    6  A    between atoms: N_20  and  C_21
REMARK    7  A    between atoms: C_24  and  C_25
REMARK                            x       y       z     vdW  Elec       q    Type
REMARK                         _______ _______ _______ _____ _____    ______ ____
ROOT
ATOM      1  C   UNL     1      36.748   4.065  14.821  0.00  0.00    +0.000 C 
ATOM      2  C   UNL     1      36.388   5.353  14.692  0.00  0.00    +0.000 C 
ATOM      3  C   UNL     1      37.357   6.164  15.420  0.00  0.00    +0.000 C 
ATOM      4  O   UNL     1      37.333   7.414  15.516  0.00  0.00    +0.000 OA
ATOM      5  N   UNL     1      38.342   5.326  16.014  0.00  0.00    +0.000 N 
ATOM      6  C   UNL     1      37.957   4.003  15.635  0.00  0.00    +0.000 C 
ATOM      7  O   UNL     1      38.585   2.965  15.968  0.00  0.00    +0.000 OA
ENDROOT
BRANCH   5   8
ATOM      8  C   UNL     1      39.457   5.706  16.805  0.00  0.00    +0.000 A 
ATOM      9  C   UNL     1      40.684   6.069  16.266  0.00  0.00    +0.000 A 
ATOM     10  C   UNL     1      41.737   6.432  17.078  0.00  0.00    +0.000 A 
ATOM     11  C   UNL     1      41.626   6.452  18.442  0.00  0.00    +0.000 A 
ATOM     12  C   UNL     1      40.415   6.095  18.990  0.00  0.00    +0.000 A 
ATOM     13  C   UNL     1      39.354   5.730  18.183  0.00  0.00    +0.000 A 
BRANCH  11  14
ATOM     14  C   UNL     1      42.741   6.840  19.348  0.00  0.00    +0.000 C 
ATOM     15  C   UNL     1      42.830   8.354  19.469  0.00  0.00    +0.000 C 
ATOM     16  C   UNL     1      42.455   6.246  20.717  0.00  0.00    +0.000 C 
ENDBRANCH  11  14
ENDBRANCH   5   8
BRANCH   1  17
ATOM     17  N   UNL     1      36.028   2.991  14.239  0.00  0.00    +0.000 NA
BRANCH  17  21
ATOM     18  C   UNL     1      35.343  -0.483  16.535  0.00  0.00    +0.000 A 
ATOM     19  C   UNL     1      36.100  -0.548  15.385  0.00  0.00    +0.000 A 
ATOM     20  C   UNL     1      36.329   0.593  14.623  0.00  0.00    +0.000 A 
ATOM     21  C   UNL     1      35.794   1.820  15.014  0.00  0.00    +0.000 A 
ATOM     22  C   UNL     1      35.044   1.838  16.170  0.00  0.00    +0.000 A 
ATOM     23  C   UNL     1      34.804   0.715  16.943  0.00  0.00    +0.000 A 
BRANCH  18  25
ATOM     24  C   UNL     1      36.096  -2.590  17.504  0.00  0.00    +0.000 C 
ATOM     25  O   UNL     1      35.102  -1.606  17.308  0.00  0.00    +0.000 OA
ENDBRANCH  18  25
ENDBRANCH  17  21
ENDBRANCH   1  17
BRANCH   2  26
ATOM     26  S   UNL     1      34.986   5.988  13.800  0.00  0.00    +0.000 S 
BRANCH  26  27
ATOM     27  C   UNL     1      35.400   6.108  12.085  0.00  0.00    +0.000 A 
ATOM     28  C   UNL     1      36.401   5.283  11.617  0.00  0.00    +0.000 A 
ATOM     29  C   UNL     1      36.820   5.272  10.310  0.00  0.00    +0.000 A 
ATOM     30  C   UNL     1      36.206   6.136   9.413  0.00  0.00    +0.000 A 
ATOM     31  C   UNL     1      36.632   6.159   7.975  0.00  0.00    +0.000 C 
ATOM     32  C   UNL     1      35.203   6.958   9.893  0.00  0.00    +0.000 A 
ATOM     33  C   UNL     1      34.788   6.964  11.206  0.00  0.00    +0.000 A 
ENDBRANCH  26  27
ENDBRANCH   2  26
TORSDOF 7
ENDMDL
MODEL 10
REMARK VINA RESULT:      -7.4     24.663     27.631
REMARK  Name = 
REMARK  7 active torsions:
REMARK  status: ('A' for Active; 'I' for Inactive)
REMARK    1  A    between atoms: O_2  and  C_3
REMARK    2  A    between atoms: C_6  and  N_7
REMARK    3  A    between atoms: N_7  and  C_8
REMARK    4  A    between atoms: C_9  and  S_10
REMARK    5  A    between atoms: S_10  and  C_11
REMARK    6  A    between atoms: N_20  and  C_21
REMARK    7  A    between atoms: C_24  and  C_25
REMARK                            x       y       z     vdW  Elec       q    Type
REMARK                         _______ _______ _______ _____ _____    ______ ____
ROOT
ATOM      1  C   UNL     1      27.544  14.891  39.355  0.00  0.00    +0.000 C 
ATOM      2  C   UNL     1      28.751  14.730  39.923  0.00  0.00    +0.000 C 
ATOM      3  C   UNL     1      28.705  13.521  40.738  0.00  0.00    +0.000 C 
ATOM      4  O   UNL     1      29.657  13.064  41.414  0.00  0.00    +0.000 OA
ATOM      5  N   UNL     1      27.413  12.931  40.655  0.00  0.00    +0.000 N 
ATOM      6  C   UNL     1      26.683  13.795  39.783  0.00  0.00    +0.000 C 
ATOM      7  O   UNL     1      25.482  13.611  39.455  0.00  0.00    +0.000 OA
ENDROOT
BRANCH   5   8
ATOM      8  C   UNL     1      26.945  11.751  41.291  0.00  0.00    +0.000 A 
ATOM      9  C   UNL     1      26.029  11.761  42.334  0.00  0.00    +0.000 A 
ATOM     10  C   UNL     1      25.604  10.587  42.917  0.00  0.00    +0.000 A 
ATOM     11  C   UNL     1      26.061   9.365  42.502  0.00  0.00    +0.000 A 
ATOM     12  C   UNL     1      26.969   9.340  41.468  0.00  0.00    +0.000 A 
ATOM     13  C   UNL     1      27.400  10.513  40.878  0.00  0.00    +0.000 A 
BRANCH  11  14
ATOM     14  C   UNL     1      25.622   8.079  43.109  0.00  0.00    +0.000 C 
ATOM     15  C   UNL     1      26.599   7.635  44.187  0.00  0.00    +0.000 C 
ATOM     16  C   UNL     1      24.256   8.303  43.736  0.00  0.00    +0.000 C 
ENDBRANCH  11  14
ENDBRANCH   5   8
BRANCH   1  17
ATOM     17  N   UNL     1      27.225  15.971  38.492  0.00  0.00    +0.000 NA
BRANCH  17  21
ATOM     18  C   UNL     1      26.691  15.196  34.378  0.00  0.00    +0.000 A 
ATOM     19  C   UNL     1      27.960  15.294  34.908  0.00  0.00    +0.000 A 
ATOM     20  C   UNL     1      28.142  15.549  36.264  0.00  0.00    +0.000 A 
ATOM     21  C   UNL     1      27.042  15.711  37.104  0.00  0.00    +0.000 A 
ATOM     22  C   UNL     1      25.793  15.605  36.531  0.00  0.00    +0.000 A 
ATOM     23  C   UNL     1      25.588  15.352  35.187  0.00  0.00    +0.000 A 
BRANCH  18  25
ATOM     24  C   UNL     1      25.187  14.752  32.512  0.00  0.00    +0.000 C 
ATOM     25  O   UNL     1      26.485  14.943  33.033  0.00  0.00    +0.000 OA
ENDBRANCH  18  25
ENDBRANCH  17  21
ENDBRANCH   1  17
BRANCH   2  26
ATOM     26  S   UNL     1      30.171  15.786  39.736  0.00  0.00    +0.000 S 
BRANCH  26  27
ATOM     27  C   UNL     1      30.979  15.400  38.211  0.00  0.00    +0.000 A 
ATOM     28  C   UNL     1      31.036  14.072  37.844  0.00  0.00    +0.000 A 
ATOM     29  C   UNL     1      31.632  13.634  36.688  0.00  0.00    +0.000 A 
ATOM     30  C   UNL     1      32.206  14.575  35.844  0.00  0.00    +0.000 A 
ATOM     31  C   UNL     1      32.869  14.141  34.570  0.00  0.00    +0.000 C 
ATOM     32  C   UNL     1      32.143  15.904  36.221  0.00  0.00    +0.000 A 
ATOM     33  C   UNL     1      31.545  16.336  37.384  0.00  0.00    +0.000 A 
ENDBRANCH  26  27
ENDBRANCH   2  26
TORSDOF 7
ENDMDL
