MODEL 1
REMARK VINA RESULT:      -5.5      0.000      0.000
REMARK  Name = 
REMARK  6 active torsions:
REMARK  status: ('A' for Active; 'I' for Inactive)
REMARK    1  A    between atoms: C_2  and  C_3
REMARK    2  A    between atoms: C_3  and  C_4
REMARK    3  A    between atoms: C_4  and  C_5
REMARK    4  A    between atoms: C_12  and  C_13
REMARK    5  A    between atoms: C_13  and  O_14
REMARK    6  A    between atoms: O_14  and  C_15
REMARK                            x       y       z     vdW  Elec       q    Type
REMARK                         _______ _______ _______ _____ _____    ______ ____
ROOT
ATOM      1  C   UNL     1      31.257  21.364  10.342  0.00  0.00    +0.000 C 
ATOM      2  O   UNL     1      30.388  22.205  10.892  0.00  0.00    +0.000 OA
ATOM      3  C   UNL     1      31.016  22.785  12.077  0.00  0.00    +0.000 C 
ATOM      4  C   UNL     1      31.376  21.384  12.880  0.00  0.00    +0.000 C 
ATOM      5  S   UNL     1      30.963  20.107  11.693  0.00  0.00    +0.000 S 
ENDROOT
BRANCH   1   6
ATOM      6  C   UNL     1      32.704  21.591  10.479  0.00  0.00    +0.000 A 
ATOM      7  C   UNL     1      33.411  22.750  10.428  0.00  0.00    +0.000 A 
ATOM      8  C   UNL     1      34.778  22.749  10.598  0.00  0.00    +0.000 A 
ATOM      9  C   UNL     1      35.480  21.601  10.824  0.00  0.00    +0.000 A 
ATOM     10  C   UNL     1      34.815  20.415  10.892  0.00  0.00    +0.000 A 
ATOM     11  C   UNL     1      33.452  20.452  10.717  0.00  0.00    +0.000 A 
ENDBRANCH   1   6
BRANCH   1  12
ATOM     12  C   UNL     1      30.885  20.774   9.094  0.00  0.00    +0.000 C 
BRANCH  12  14
ATOM     13  C   UNL     1      31.907  20.918   6.857  0.00  0.00    +0.000 C 
ATOM     14  C   UNL     1      31.211  21.700   7.935  0.00  0.00    +0.000 C 
ENDBRANCH  12  14
ENDBRANCH   1  12
BRANCH   3  15
ATOM     15  C   UNL     1      29.748  23.087  12.925  0.00  0.00    +0.000 C 
BRANCH  15  16
ATOM     16  O   UNL     1      28.620  22.512  12.815  0.00  0.00    +0.000 OA
BRANCH  16  17
ATOM     17  C   UNL     1      27.348  22.923  12.489  0.00  0.00    +0.000 C 
ATOM     18  N   UNL     1      26.670  22.359  11.318  0.00  0.00    +0.000 NA
ATOM     19  O   UNL     1      26.822  23.797  13.228  0.00  0.00    +0.000 OA
ENDBRANCH  16  17
ENDBRANCH  15  16
ENDBRANCH   3  15
TORSDOF 6
ENDMDL
MODEL 2
REMARK VINA RESULT:      -5.4     13.963     16.225
REMARK  Name = 
REMARK  6 active torsions:
REMARK  status: ('A' for Active; 'I' for Inactive)
REMARK    1  A    between atoms: C_2  and  C_3
REMARK    2  A    between atoms: C_3  and  C_4
REMARK    3  A    between atoms: C_4  and  C_5
REMARK    4  A    between atoms: C_12  and  C_13
REMARK    5  A    between atoms: C_13  and  O_14
REMARK    6  A    between atoms: O_14  and  C_15
REMARK                            x       y       z     vdW  Elec       q    Type
REMARK                         _______ _______ _______ _____ _____    ______ ____
ROOT
ATOM      1  C   UNL     1      28.651  23.159  25.710  0.00  0.00    +0.000 C 
ATOM      2  O   UNL     1      27.763  22.836  26.644  0.00  0.00    +0.000 OA
ATOM      3  C   UNL     1      26.572  23.655  26.432  0.00  0.00    +0.000 C 
ATOM      4  C   UNL     1      27.282  25.149  26.499  0.00  0.00    +0.000 C 
ATOM      5  S   UNL     1      29.032  24.775  26.569  0.00  0.00    +0.000 S 
ENDROOT
BRANCH   1   6
ATOM      6  C   UNL     1      28.206  23.639  24.393  0.00  0.00    +0.000 A 
ATOM      7  C   UNL     1      27.118  23.284  23.660  0.00  0.00    +0.000 A 
ATOM      8  C   UNL     1      26.869  23.872  22.440  0.00  0.00    +0.000 A 
ATOM      9  C   UNL     1      27.690  24.827  21.914  0.00  0.00    +0.000 A 
ATOM     10  C   UNL     1      28.789  25.222  22.614  0.00  0.00    +0.000 A 
ATOM     11  C   UNL     1      29.008  24.615  23.827  0.00  0.00    +0.000 A 
ENDBRANCH   1   6
BRANCH   1  12
ATOM     12  C   UNL     1      29.851  22.384  25.662  0.00  0.00    +0.000 C 
BRANCH  12  14
ATOM     13  C   UNL     1      31.126  21.998  27.735  0.00  0.00    +0.000 C 
ATOM     14  C   UNL     1      30.905  22.954  26.596  0.00  0.00    +0.000 C 
ENDBRANCH  12  14
ENDBRANCH   1  12
BRANCH   3  15
ATOM     15  C   UNL     1      26.031  23.713  27.889  0.00  0.00    +0.000 C 
BRANCH  15  16
ATOM     16  O   UNL     1      26.539  23.135  28.899  0.00  0.00    +0.000 OA
BRANCH  16  17
ATOM     17  C   UNL     1      26.150  22.939  30.205  0.00  0.00    +0.000 C 
ATOM     18  N   UNL     1      25.978  21.580  30.725  0.00  0.00    +0.000 NA
ATOM     19  O   UNL     1      25.943  23.968  30.901  0.00  0.00    +0.000 OA
ENDBRANCH  16  17
ENDBRANCH  15  16
ENDBRANCH   3  15
TORSDOF 6
ENDMDL
MODEL 3
REMARK VINA RESULT:      -5.2     13.621     16.292
REMARK  Name = 
REMARK  6 active torsions:
REMARK  status: ('A' for Active; 'I' for Inactive)
REMARK    1  A    between atoms: C_2  and  C_3
REMARK    2  A    between atoms: C_3  and  C_4
REMARK    3  A    between atoms: C_4  and  C_5
REMARK    4  A    between atoms: C_12  and  C_13
REMARK    5  A    between atoms: C_13  and  O_14
REMARK    6  A    between atoms: O_14  and  C_15
REMARK                            x       y       z     vdW  Elec       q    Type
REMARK                         _______ _______ _______ _____ _____    ______ ____
ROOT
ATOM      1  C   UNL     1      27.861  23.381  26.378  0.00  0.00    +0.000 C 
ATOM      2  O   UNL     1      28.401  24.083  25.387  0.00  0.00    +0.000 OA
ATOM      3  C   UNL     1      27.665  25.341  25.279  0.00  0.00    +0.000 C 
ATOM      4  C   UNL     1      26.144  24.724  25.073  0.00  0.00    +0.000 C 
ATOM      5  S   UNL     1      26.371  22.965  25.330  0.00  0.00    +0.000 S 
ENDROOT
BRANCH   1   6
ATOM      6  C   UNL     1      27.225  24.062  27.515  0.00  0.00    +0.000 A 
ATOM      7  C   UNL     1      25.960  23.949  27.999  0.00  0.00    +0.000 A 
ATOM      8  C   UNL     1      25.561  24.675  29.100  0.00  0.00    +0.000 A 
ATOM      9  C   UNL     1      26.403  25.529  29.750  0.00  0.00    +0.000 A 
ATOM     10  C   UNL     1      27.682  25.671  29.307  0.00  0.00    +0.000 A 
ATOM     11  C   UNL     1      28.048  24.934  28.206  0.00  0.00    +0.000 A 
ENDBRANCH   1   6
BRANCH   1  12
ATOM     12  C   UNL     1      28.513  22.159  26.733  0.00  0.00    +0.000 C 
BRANCH  12  14
ATOM     13  C   UNL     1      30.818  22.287  27.593  0.00  0.00    +0.000 C 
ATOM     14  C   UNL     1      29.982  22.192  26.348  0.00  0.00    +0.000 C 
ENDBRANCH  12  14
ENDBRANCH   1  12
BRANCH   3  15
ATOM     15  C   UNL     1      27.879  25.641  23.768  0.00  0.00    +0.000 C 
BRANCH  15  16
ATOM     16  O   UNL     1      28.767  25.124  23.021  0.00  0.00    +0.000 OA
BRANCH  16  17
ATOM     17  C   UNL     1      28.753  24.255  21.954  0.00  0.00    +0.000 C 
ATOM     18  N   UNL     1      29.625  24.494  20.800  0.00  0.00    +0.000 NA
ATOM     19  O   UNL     1      27.961  23.279  22.020  0.00  0.00    +0.000 OA
ENDBRANCH  16  17
ENDBRANCH  15  16
ENDBRANCH   3  15
TORSDOF 6
ENDMDL
MODEL 4
REMARK VINA RESULT:      -5.2     15.963     17.889
REMARK  Name = 
REMARK  6 active torsions:
REMARK  status: ('A' for Active; 'I' for Inactive)
REMARK    1  A    between atoms: C_2  and  C_3
REMARK    2  A    between atoms: C_3  and  C_4
REMARK    3  A    between atoms: C_4  and  C_5
REMARK    4  A    between atoms: C_12  and  C_13
REMARK    5  A    between atoms: C_13  and  O_14
REMARK    6  A    between atoms: O_14  and  C_15
REMARK                            x       y       z     vdW  Elec       q    Type
REMARK                         _______ _______ _______ _____ _____    ______ ____
ROOT
ATOM      1  C   UNL     1      31.402  22.552  28.598  0.00  0.00    +0.000 C 
ATOM      2  O   UNL     1      30.298  22.573  29.337  0.00  0.00    +0.000 OA
ATOM      3  C   UNL     1      29.415  23.601  28.791  0.00  0.00    +0.000 C 
ATOM      4  C   UNL     1      30.449  24.890  28.876  0.00  0.00    +0.000 C 
ATOM      5  S   UNL     1      32.002  24.145  29.369  0.00  0.00    +0.000 S 
ENDROOT
BRANCH   1   6
ATOM      6  C   UNL     1      31.356  22.927  27.176  0.00  0.00    +0.000 A 
ATOM      7  C   UNL     1      32.082  23.854  26.498  0.00  0.00    +0.000 A 
ATOM      8  C   UNL     1      31.895  24.044  25.147  0.00  0.00    +0.000 A 
ATOM      9  C   UNL     1      30.985  23.320  24.432  0.00  0.00    +0.000 A 
ATOM     10  C   UNL     1      30.239  22.373  25.066  0.00  0.00    +0.000 A 
ATOM     11  C   UNL     1      30.450  22.211  26.414  0.00  0.00    +0.000 A 
ENDBRANCH   1   6
BRANCH   1  12
ATOM     12  C   UNL     1      32.356  21.528  28.889  0.00  0.00    +0.000 C 
BRANCH  12  14
ATOM     13  C   UNL     1      33.561  21.170  31.008  0.00  0.00    +0.000 C 
ATOM     14  C   UNL     1      33.457  22.051  29.795  0.00  0.00    +0.000 C 
ENDBRANCH  12  14
ENDBRANCH   1  12
BRANCH   3  15
ATOM     15  C   UNL     1      28.634  23.987  30.079  0.00  0.00    +0.000 C 
BRANCH  15  16
ATOM     16  O   UNL     1      27.778  23.266  30.679  0.00  0.00    +0.000 OA
BRANCH  16  17
ATOM     17  C   UNL     1      26.456  22.948  30.467  0.00  0.00    +0.000 C 
ATOM     18  N   UNL     1      25.972  21.592  30.744  0.00  0.00    +0.000 NA
ATOM     19  O   UNL     1      25.711  23.860  30.022  0.00  0.00    +0.000 OA
ENDBRANCH  16  17
ENDBRANCH  15  16
ENDBRANCH   3  15
TORSDOF 6
ENDMDL
MODEL 5
REMARK VINA RESULT:      -5.2     29.713     32.055
REMARK  Name = 
REMARK  6 active torsions:
REMARK  status: ('A' for Active; 'I' for Inactive)
REMARK    1  A    between atoms: C_2  and  C_3
REMARK    2  A    between atoms: C_3  and  C_4
REMARK    3  A    between atoms: C_4  and  C_5
REMARK    4  A    between atoms: C_12  and  C_13
REMARK    5  A    between atoms: C_13  and  O_14
REMARK    6  A    between atoms: O_14  and  C_15
REMARK                            x       y       z     vdW  Elec       q    Type
REMARK                         _______ _______ _______ _____ _____    ______ ____
ROOT
ATOM      1  C   UNL     1      18.630   9.671  37.261  0.00  0.00    +0.000 C 
ATOM      2  O   UNL     1      19.919   9.828  36.978  0.00  0.00    +0.000 OA
ATOM      3  C   UNL     1      20.619  10.121  38.227  0.00  0.00    +0.000 C 
ATOM      4  C   UNL     1      19.746  11.445  38.698  0.00  0.00    +0.000 C 
ATOM      5  S   UNL     1      18.413  11.511  37.502  0.00  0.00    +0.000 S 
ENDROOT
BRANCH   1   6
ATOM      6  C   UNL     1      18.212   9.164  38.577  0.00  0.00    +0.000 A 
ATOM      7  C   UNL     1      18.740   8.164  39.332  0.00  0.00    +0.000 A 
ATOM      8  C   UNL     1      18.203   7.851  40.560  0.00  0.00    +0.000 A 
ATOM      9  C   UNL     1      17.130   8.520  41.075  0.00  0.00    +0.000 A 
ATOM     10  C   UNL     1      16.571   9.535  40.360  0.00  0.00    +0.000 A 
ATOM     11  C   UNL     1      17.131   9.820  39.138  0.00  0.00    +0.000 A 
ENDBRANCH   1   6
BRANCH   1  12
ATOM     12  C   UNL     1      17.778   9.256  36.191  0.00  0.00    +0.000 C 
BRANCH  12  14
ATOM     13  C   UNL     1      17.455  10.221  33.947  0.00  0.00    +0.000 C 
ATOM     14  C   UNL     1      17.253  10.454  35.418  0.00  0.00    +0.000 C 
ENDBRANCH  12  14
ENDBRANCH   1  12
BRANCH   3  15
ATOM     15  C   UNL     1      21.809  10.952  37.671  0.00  0.00    +0.000 C 
BRANCH  15  16
ATOM     16  O   UNL     1      23.017  10.569  37.593  0.00  0.00    +0.000 OA
BRANCH  16  17
ATOM     17  C   UNL     1      23.778   9.942  36.632  0.00  0.00    +0.000 C 
ATOM     18  N   UNL     1      24.854  10.671  35.955  0.00  0.00    +0.000 NA
ATOM     19  O   UNL     1      23.493   8.744  36.369  0.00  0.00    +0.000 OA
ENDBRANCH  16  17
ENDBRANCH  15  16
ENDBRANCH   3  15
TORSDOF 6
ENDMDL
MODEL 6
REMARK VINA RESULT:      -5.2     13.256     15.301
REMARK  Name = 
REMARK  6 active torsions:
REMARK  status: ('A' for Active; 'I' for Inactive)
REMARK    1  A    between atoms: C_2  and  C_3
REMARK    2  A    between atoms: C_3  and  C_4
REMARK    3  A    between atoms: C_4  and  C_5
REMARK    4  A    between atoms: C_12  and  C_13
REMARK    5  A    between atoms: C_13  and  O_14
REMARK    6  A    between atoms: O_14  and  C_15
REMARK                            x       y       z     vdW  Elec       q    Type
REMARK                         _______ _______ _______ _____ _____    ______ ____
ROOT
ATOM      1  C   UNL     1      27.693  24.833  24.385  0.00  0.00    +0.000 C 
ATOM      2  O   UNL     1      27.045  25.219  25.479  0.00  0.00    +0.000 OA
ATOM      3  C   UNL     1      27.439  24.329  26.569  0.00  0.00    +0.000 C 
ATOM      4  C   UNL     1      27.026  22.885  25.874  0.00  0.00    +0.000 C 
ATOM      5  S   UNL     1      26.582  23.342  24.200  0.00  0.00    +0.000 S 
ENDROOT
BRANCH   1   6
ATOM      6  C   UNL     1      29.012  24.190  24.487  0.00  0.00    +0.000 A 
ATOM      7  C   UNL     1      29.362  22.889  24.304  0.00  0.00    +0.000 A 
ATOM      8  C   UNL     1      30.673  22.487  24.434  0.00  0.00    +0.000 A 
ATOM      9  C   UNL     1      31.672  23.363  24.746  0.00  0.00    +0.000 A 
ATOM     10  C   UNL     1      31.373  24.678  24.930  0.00  0.00    +0.000 A 
ATOM     11  C   UNL     1      30.055  25.044  24.795  0.00  0.00    +0.000 A 
ENDBRANCH   1   6
BRANCH   1  12
ATOM     12  C   UNL     1      27.543  25.650  23.222  0.00  0.00    +0.000 C 
BRANCH  12  14
ATOM     13  C   UNL     1      28.864  25.302  21.171  0.00  0.00    +0.000 C 
ATOM     14  C   UNL     1      27.674  24.822  21.954  0.00  0.00    +0.000 C 
ENDBRANCH  12  14
ENDBRANCH   1  12
BRANCH   3  15
ATOM     15  C   UNL     1      26.159  24.410  27.448  0.00  0.00    +0.000 C 
BRANCH  15  16
ATOM     16  O   UNL     1      25.817  23.583  28.349  0.00  0.00    +0.000 OA
BRANCH  16  17
ATOM     17  C   UNL     1      26.371  23.151  29.533  0.00  0.00    +0.000 C 
ATOM     18  N   UNL     1      27.519  22.241  29.518  0.00  0.00    +0.000 NA
ATOM     19  O   UNL     1      25.839  23.563  30.597  0.00  0.00    +0.000 OA
ENDBRANCH  16  17
ENDBRANCH  15  16
ENDBRANCH   3  15
TORSDOF 6
ENDMDL
MODEL 7
REMARK VINA RESULT:      -5.1     36.043     37.294
REMARK  Name = 
REMARK  6 active torsions:
REMARK  status: ('A' for Active; 'I' for Inactive)
REMARK    1  A    between atoms: C_2  and  C_3
REMARK    2  A    between atoms: C_3  and  C_4
REMARK    3  A    between atoms: C_4  and  C_5
REMARK    4  A    between atoms: C_12  and  C_13
REMARK    5  A    between atoms: C_13  and  O_14
REMARK    6  A    between atoms: O_14  and  C_15
REMARK                            x       y       z     vdW  Elec       q    Type
REMARK                         _______ _______ _______ _____ _____    ______ ____
ROOT
ATOM      1  C   UNL     1      17.849  -8.097  27.348  0.00  0.00    +0.000 C 
ATOM      2  O   UNL     1      16.580  -8.470  27.225  0.00  0.00    +0.000 OA
ATOM      3  C   UNL     1      16.538  -9.930  27.266  0.00  0.00    +0.000 C 
ATOM      4  C   UNL     1      17.579 -10.246  26.020  0.00  0.00    +0.000 C 
ATOM      5  S   UNL     1      18.222  -8.628  25.595  0.00  0.00    +0.000 S 
ENDROOT
BRANCH   1   6
ATOM      6  C   UNL     1      18.801  -8.926  28.102  0.00  0.00    +0.000 A 
ATOM      7  C   UNL     1      18.717  -9.414  29.368  0.00  0.00    +0.000 A 
ATOM      8  C   UNL     1      19.724 -10.195  29.890  0.00  0.00    +0.000 A 
ATOM      9  C   UNL     1      20.840 -10.514  29.173  0.00  0.00    +0.000 A 
ATOM     10  C   UNL     1      20.967 -10.056  27.897  0.00  0.00    +0.000 A 
ATOM     11  C   UNL     1      19.944  -9.279  27.408  0.00  0.00    +0.000 A 
ENDBRANCH   1   6
BRANCH   1  12
ATOM     12  C   UNL     1      18.103  -6.694  27.453  0.00  0.00    +0.000 C 
BRANCH  12  14
ATOM     13  C   UNL     1      19.092  -4.708  26.381  0.00  0.00    +0.000 C 
ATOM     14  C   UNL     1      18.776  -6.166  26.197  0.00  0.00    +0.000 C 
ENDBRANCH  12  14
ENDBRANCH   1  12
BRANCH   3  15
ATOM     15  C   UNL     1      15.257 -10.179  26.420  0.00  0.00    +0.000 C 
BRANCH  15  16
ATOM     16  O   UNL     1      14.303  -9.359  26.247  0.00  0.00    +0.000 OA
BRANCH  16  17
ATOM     17  C   UNL     1      13.893  -8.550  25.212  0.00  0.00    +0.000 C 
ATOM     18  N   UNL     1      12.501  -8.095  25.141  0.00  0.00    +0.000 NA
ATOM     19  O   UNL     1      14.756  -8.244  24.347  0.00  0.00    +0.000 OA
ENDBRANCH  16  17
ENDBRANCH  15  16
ENDBRANCH   3  15
TORSDOF 6
ENDMDL
MODEL 8
REMARK VINA RESULT:      -5.0     14.639     16.394
REMARK  Name = 
REMARK  6 active torsions:
REMARK  status: ('A' for Active; 'I' for Inactive)
REMARK    1  A    between atoms: C_2  and  C_3
REMARK    2  A    between atoms: C_3  and  C_4
REMARK    3  A    between atoms: C_4  and  C_5
REMARK    4  A    between atoms: C_12  and  C_13
REMARK    5  A    between atoms: C_13  and  O_14
REMARK    6  A    between atoms: O_14  and  C_15
REMARK                            x       y       z     vdW  Elec       q    Type
REMARK                         _______ _______ _______ _____ _____    ______ ____
ROOT
ATOM      1  C   UNL     1      28.014  24.176  25.894  0.00  0.00    +0.000 C 
ATOM      2  O   UNL     1      27.812  24.793  27.053  0.00  0.00    +0.000 OA
ATOM      3  C   UNL     1      28.944  24.487  27.925  0.00  0.00    +0.000 C 
ATOM      4  C   UNL     1      28.854  22.836  27.882  0.00  0.00    +0.000 C 
ATOM      5  S   UNL     1      27.591  22.520  26.650  0.00  0.00    +0.000 S 
ENDROOT
BRANCH   1   6
ATOM      6  C   UNL     1      29.380  23.924  25.411  0.00  0.00    +0.000 A 
ATOM      7  C   UNL     1      29.973  22.756  25.049  0.00  0.00    +0.000 A 
ATOM      8  C   UNL     1      31.276  22.736  24.603  0.00  0.00    +0.000 A 
ATOM      9  C   UNL     1      32.025  23.872  24.503  0.00  0.00    +0.000 A 
ATOM     10  C   UNL     1      31.473  25.068  24.846  0.00  0.00    +0.000 A 
ATOM     11  C   UNL     1      30.172  25.052  25.288  0.00  0.00    +0.000 A 
ENDBRANCH   1   6
BRANCH   1  12
ATOM     12  C   UNL     1      27.077  24.442  24.848  0.00  0.00    +0.000 C 
BRANCH  12  14
ATOM     13  C   UNL     1      25.605  23.187  23.321  0.00  0.00    +0.000 C 
ATOM     14  C   UNL     1      26.039  23.336  24.752  0.00  0.00    +0.000 C 
ENDBRANCH  12  14
ENDBRANCH   1  12
BRANCH   3  15
ATOM     15  C   UNL     1      28.248  24.610  29.310  0.00  0.00    +0.000 C 
BRANCH  15  16
ATOM     16  O   UNL     1      26.998  24.552  29.527  0.00  0.00    +0.000 OA
BRANCH  16  17
ATOM     17  C   UNL     1      26.206  23.979  30.496  0.00  0.00    +0.000 C 
ATOM     18  N   UNL     1      26.048  22.523  30.551  0.00  0.00    +0.000 NA
ATOM     19  O   UNL     1      25.630  24.758  31.300  0.00  0.00    +0.000 OA
ENDBRANCH  16  17
ENDBRANCH  15  16
ENDBRANCH   3  15
TORSDOF 6
ENDMDL
MODEL 9
REMARK VINA RESULT:      -5.0     12.589     14.462
REMARK  Name = 
REMARK  6 active torsions:
REMARK  status: ('A' for Active; 'I' for Inactive)
REMARK    1  A    between atoms: C_2  and  C_3
REMARK    2  A    between atoms: C_3  and  C_4
REMARK    3  A    between atoms: C_4  and  C_5
REMARK    4  A    between atoms: C_12  and  C_13
REMARK    5  A    between atoms: C_13  and  O_14
REMARK    6  A    between atoms: O_14  and  C_15
REMARK                            x       y       z     vdW  Elec       q    Type
REMARK                         _______ _______ _______ _____ _____    ______ ____
ROOT
ATOM      1  C   UNL     1      30.353  23.804  25.558  0.00  0.00    +0.000 C 
ATOM      2  O   UNL     1      29.660  23.262  24.563  0.00  0.00    +0.000 OA
ATOM      3  C   UNL     1      30.035  23.950  23.330  0.00  0.00    +0.000 C 
ATOM      4  C   UNL     1      29.677  25.499  23.790  0.00  0.00    +0.000 C 
ATOM      5  S   UNL     1      29.281  25.334  25.529  0.00  0.00    +0.000 S 
ENDROOT
BRANCH   1   6
ATOM      6  C   UNL     1      31.681  24.387  25.312  0.00  0.00    +0.000 A 
ATOM      7  C   UNL     1      32.754  23.863  24.662  0.00  0.00    +0.000 A 
ATOM      8  C   UNL     1      33.917  24.587  24.525  0.00  0.00    +0.000 A 
ATOM      9  C   UNL     1      34.048  25.849  25.026  0.00  0.00    +0.000 A 
ATOM     10  C   UNL     1      32.999  26.421  25.679  0.00  0.00    +0.000 A 
ATOM     11  C   UNL     1      31.854  25.670  25.799  0.00  0.00    +0.000 A 
ENDBRANCH   1   6
BRANCH   1  12
ATOM     12  C   UNL     1      30.225  23.193  26.844  0.00  0.00    +0.000 C 
BRANCH  12  14
ATOM     13  C   UNL     1      28.086  22.464  27.825  0.00  0.00    +0.000 C 
ATOM     14  C   UNL     1      29.157  22.113  26.830  0.00  0.00    +0.000 C 
ENDBRANCH  12  14
ENDBRANCH   1  12
BRANCH   3  15
ATOM     15  C   UNL     1      28.725  23.761  22.515  0.00  0.00    +0.000 C 
BRANCH  15  16
ATOM     16  O   UNL     1      27.685  23.144  22.903  0.00  0.00    +0.000 OA
BRANCH  16  17
ATOM     17  C   UNL     1      26.368  23.490  23.104  0.00  0.00    +0.000 C 
ATOM     18  N   UNL     1      25.302  22.764  22.407  0.00  0.00    +0.000 NA
ATOM     19  O   UNL     1      26.140  24.449  23.887  0.00  0.00    +0.000 OA
ENDBRANCH  16  17
ENDBRANCH  15  16
ENDBRANCH   3  15
TORSDOF 6
ENDMDL
MODEL 10
REMARK VINA RESULT:      -5.0     14.378     16.941
REMARK  Name = 
REMARK  6 active torsions:
REMARK  status: ('A' for Active; 'I' for Inactive)
REMARK    1  A    between atoms: C_2  and  C_3
REMARK    2  A    between atoms: C_3  and  C_4
REMARK    3  A    between atoms: C_4  and  C_5
REMARK    4  A    between atoms: C_12  and  C_13
REMARK    5  A    between atoms: C_13  and  O_14
REMARK    6  A    between atoms: O_14  and  C_15
REMARK                            x       y       z     vdW  Elec       q    Type
REMARK                         _______ _______ _______ _____ _____    ______ ____
ROOT
ATOM      1  C   UNL     1      26.973  23.216  26.387  0.00  0.00    +0.000 C 
ATOM      2  O   UNL     1      28.007  22.427  26.115  0.00  0.00    +0.000 OA
ATOM      3  C   UNL     1      28.977  22.572  27.198  0.00  0.00    +0.000 C 
ATOM      4  C   UNL     1      29.191  24.211  27.124  0.00  0.00    +0.000 C 
ATOM      5  S   UNL     1      27.958  24.738  25.936  0.00  0.00    +0.000 S 
ENDROOT
BRANCH   1   6
ATOM      6  C   UNL     1      26.611  23.517  27.780  0.00  0.00    +0.000 A 
ATOM      7  C   UNL     1      26.741  22.754  28.897  0.00  0.00    +0.000 A 
ATOM      8  C   UNL     1      26.350  23.234  30.128  0.00  0.00    +0.000 A 
ATOM      9  C   UNL     1      25.821  24.481  30.284  0.00  0.00    +0.000 A 
ATOM     10  C   UNL     1      25.677  25.287  29.196  0.00  0.00    +0.000 A 
ATOM     11  C   UNL     1      26.076  24.777  27.984  0.00  0.00    +0.000 A 
ENDBRANCH   1   6
BRANCH   1  12
ATOM     12  C   UNL     1      25.848  23.134  25.508  0.00  0.00    +0.000 C 
BRANCH  12  14
ATOM     13  C   UNL     1      25.792  23.273  23.049  0.00  0.00    +0.000 C 
ATOM     14  C   UNL     1      26.024  24.054  24.312  0.00  0.00    +0.000 C 
ENDBRANCH  12  14
ENDBRANCH   1  12
BRANCH   3  15
ATOM     15  C   UNL     1      30.285  22.244  26.424  0.00  0.00    +0.000 C 
BRANCH  15  16
ATOM     16  O   UNL     1      31.125  23.089  25.983  0.00  0.00    +0.000 OA
BRANCH  16  17
ATOM     17  C   UNL     1      31.590  23.435  24.735  0.00  0.00    +0.000 C 
ATOM     18  N   UNL     1      32.973  23.892  24.567  0.00  0.00    +0.000 NA
ATOM     19  O   UNL     1      30.778  23.352  23.777  0.00  0.00    +0.000 OA
ENDBRANCH  16  17
ENDBRANCH  15  16
ENDBRANCH   3  15
TORSDOF 6
ENDMDL
