MODEL 1
REMARK VINA RESULT:      -6.5      0.000      0.000
REMARK  Name = 
REMARK  4 active torsions:
REMARK  status: ('A' for Active; 'I' for Inactive)
REMARK    1  A    between atoms: C_2  and  C_5
REMARK    2  A    between atoms: C_8  and  C_9
REMARK    3  A    between atoms: C_9  and  S_10
REMARK    4  A    between atoms: S_10  and  C_11
REMARK                            x       y       z     vdW  Elec       q    Type
REMARK                         _______ _______ _______ _____ _____    ______ ____
ROOT
ATOM      1  C   UNL     1      21.063  10.477  37.347  0.00  0.00    +0.000 A 
ATOM      2  C   UNL     1      20.420   9.645  36.421  0.00  0.00    +0.000 A 
ATOM      3  C   UNL     1      19.063   9.626  36.289  0.00  0.00    +0.000 A 
ATOM      4  C   UNL     1      18.311  10.476  37.118  0.00  0.00    +0.000 A 
ATOM      5  C   UNL     1      18.950  11.284  38.023  0.00  0.00    +0.000 A 
ATOM      6  C   UNL     1      20.314  11.289  38.142  0.00  0.00    +0.000 A 
ENDROOT
BRANCH   1   8
ATOM      7  C   UNL     1      23.187  10.048  36.167  0.00  0.00    +0.000 C 
ATOM      8  C   UNL     1      22.538  10.426  37.469  0.00  0.00    +0.000 C 
ATOM      9  C   UNL     1      22.996  11.765  37.994  0.00  0.00    +0.000 C 
ATOM     10  C   UNL     1      22.826   9.358  38.539  0.00  0.00    +0.000 C 
ENDBRANCH   1   8
BRANCH   4  11
ATOM     11  C   UNL     1      16.876  10.378  37.074  0.00  0.00    +0.000 C 
BRANCH  11  12
ATOM     12  S   UNL     1      15.966  11.860  36.594  0.00  0.00    +0.000 S 
BRANCH  12  13
ATOM     13  C   UNL     1      15.846  11.639  34.789  0.00  0.00    +0.000 A 
ATOM     14  N   UNL     1      16.539  10.717  34.140  0.00  0.00    +0.000 NA
ATOM     15  N   UNL     1      16.346  10.567  32.807  0.00  0.00    +0.000 NA
ATOM     16  C   UNL     1      15.480  11.321  32.126  0.00  0.00    +0.000 A 
ATOM     17  O   UNL     1      15.334  11.139  30.872  0.00  0.00    +0.000 OA
ATOM     18  N   UNL     1      14.782  12.255  32.783  0.00  0.00    +0.000 NA
ATOM     19  C   UNL     1      14.942  12.428  34.106  0.00  0.00    +0.000 A 
ATOM     20  O   UNL     1      14.310  13.289  34.793  0.00  0.00    +0.000 OA
ENDBRANCH  12  13
ENDBRANCH  11  12
ENDBRANCH   4  11
TORSDOF 4
ENDMDL
MODEL 2
REMARK VINA RESULT:      -6.5      1.923      2.910
REMARK  Name = 
REMARK  4 active torsions:
REMARK  status: ('A' for Active; 'I' for Inactive)
REMARK    1  A    between atoms: C_2  and  C_5
REMARK    2  A    between atoms: C_8  and  C_9
REMARK    3  A    between atoms: C_9  and  S_10
REMARK    4  A    between atoms: S_10  and  C_11
REMARK                            x       y       z     vdW  Elec       q    Type
REMARK                         _______ _______ _______ _____ _____    ______ ____
ROOT
ATOM      1  C   UNL     1      22.838  10.992  37.499  0.00  0.00    +0.000 A 
ATOM      2  C   UNL     1      22.295  12.050  38.240  0.00  0.00    +0.000 A 
ATOM      3  C   UNL     1      20.953  12.167  38.453  0.00  0.00    +0.000 A 
ATOM      4  C   UNL     1      20.113  11.183  37.903  0.00  0.00    +0.000 A 
ATOM      5  C   UNL     1      20.655  10.153  37.177  0.00  0.00    +0.000 A 
ATOM      6  C   UNL     1      22.005  10.053  36.973  0.00  0.00    +0.000 A 
ENDROOT
BRANCH   1   8
ATOM      7  C   UNL     1      24.999  10.153  38.345  0.00  0.00    +0.000 C 
ATOM      8  C   UNL     1      24.300  10.939  37.272  0.00  0.00    +0.000 C 
ATOM      9  C   UNL     1      24.524  10.381  35.887  0.00  0.00    +0.000 C 
ATOM     10  C   UNL     1      24.772  12.404  37.290  0.00  0.00    +0.000 C 
ENDBRANCH   1   8
BRANCH   4  11
ATOM     11  C   UNL     1      18.690  11.359  38.017  0.00  0.00    +0.000 C 
BRANCH  11  12
ATOM     12  S   UNL     1      17.653   9.928  37.652  0.00  0.00    +0.000 S 
BRANCH  12  13
ATOM     13  C   UNL     1      16.807  10.475  36.134  0.00  0.00    +0.000 A 
ATOM     14  N   UNL     1      15.942  11.477  36.126  0.00  0.00    +0.000 NA
ATOM     15  N   UNL     1      15.405  11.872  34.946  0.00  0.00    +0.000 NA
ATOM     16  C   UNL     1      15.717  11.280  33.790  0.00  0.00    +0.000 A 
ATOM     17  O   UNL     1      15.184  11.689  32.706  0.00  0.00    +0.000 OA
ATOM     18  N   UNL     1      16.589  10.264  33.800  0.00  0.00    +0.000 NA
ATOM     19  C   UNL     1      17.148   9.850  34.951  0.00  0.00    +0.000 A 
ATOM     20  O   UNL     1      17.985   8.899  35.034  0.00  0.00    +0.000 OA
ENDBRANCH  12  13
ENDBRANCH  11  12
ENDBRANCH   4  11
TORSDOF 4
ENDMDL
MODEL 3
REMARK VINA RESULT:      -6.4     18.833     19.798
REMARK  Name = 
REMARK  4 active torsions:
REMARK  status: ('A' for Active; 'I' for Inactive)
REMARK    1  A    between atoms: C_2  and  C_5
REMARK    2  A    between atoms: C_8  and  C_9
REMARK    3  A    between atoms: C_9  and  S_10
REMARK    4  A    between atoms: S_10  and  C_11
REMARK                            x       y       z     vdW  Elec       q    Type
REMARK                         _______ _______ _______ _____ _____    ______ ____
ROOT
ATOM      1  C   UNL     1      27.019  23.009  28.523  0.00  0.00    +0.000 A 
ATOM      2  C   UNL     1      27.954  22.273  27.785  0.00  0.00    +0.000 A 
ATOM      3  C   UNL     1      27.992  22.314  26.422  0.00  0.00    +0.000 A 
ATOM      4  C   UNL     1      27.055  23.127  25.765  0.00  0.00    +0.000 A 
ATOM      5  C   UNL     1      26.140  23.842  26.496  0.00  0.00    +0.000 A 
ATOM      6  C   UNL     1      26.117  23.787  27.864  0.00  0.00    +0.000 A 
ENDROOT
BRANCH   1   8
ATOM      7  C   UNL     1      26.352  21.618  30.448  0.00  0.00    +0.000 C 
ATOM      8  C   UNL     1      27.004  22.895  29.999  0.00  0.00    +0.000 C 
ATOM      9  C   UNL     1      28.429  23.034  30.478  0.00  0.00    +0.000 C 
ATOM     10  C   UNL     1      26.201  24.109  30.498  0.00  0.00    +0.000 C 
ENDBRANCH   1   8
BRANCH   4  11
ATOM     11  C   UNL     1      27.004  23.087  24.327  0.00  0.00    +0.000 C 
BRANCH  11  12
ATOM     12  S   UNL     1      28.559  23.326  23.443  0.00  0.00    +0.000 S 
BRANCH  12  13
ATOM     13  C   UNL     1      28.247  24.904  22.587  0.00  0.00    +0.000 A 
ATOM     14  N   UNL     1      27.448  25.834  23.085  0.00  0.00    +0.000 NA
ATOM     15  N   UNL     1      27.318  27.011  22.425  0.00  0.00    +0.000 NA
ATOM     16  C   UNL     1      27.968  27.261  21.285  0.00  0.00    +0.000 A 
ATOM     17  O   UNL     1      27.812  28.385  20.702  0.00  0.00    +0.000 OA
ATOM     18  N   UNL     1      28.772  26.317  20.780  0.00  0.00    +0.000 NA
ATOM     19  C   UNL     1      28.932  25.141  21.412  0.00  0.00    +0.000 A 
ATOM     20  O   UNL     1      29.681  24.206  20.995  0.00  0.00    +0.000 OA
ENDBRANCH  12  13
ENDBRANCH  11  12
ENDBRANCH   4  11
TORSDOF 4
ENDMDL
MODEL 4
REMARK VINA RESULT:      -6.3     18.466     19.448
REMARK  Name = 
REMARK  4 active torsions:
REMARK  status: ('A' for Active; 'I' for Inactive)
REMARK    1  A    between atoms: C_2  and  C_5
REMARK    2  A    between atoms: C_8  and  C_9
REMARK    3  A    between atoms: C_9  and  S_10
REMARK    4  A    between atoms: S_10  and  C_11
REMARK                            x       y       z     vdW  Elec       q    Type
REMARK                         _______ _______ _______ _____ _____    ______ ____
ROOT
ATOM      1  C   UNL     1      24.883  25.689  29.041  0.00  0.00    +0.000 A 
ATOM      2  C   UNL     1      24.436  25.972  27.744  0.00  0.00    +0.000 A 
ATOM      3  C   UNL     1      24.762  25.183  26.680  0.00  0.00    +0.000 A 
ATOM      4  C   UNL     1      25.570  24.059  26.920  0.00  0.00    +0.000 A 
ATOM      5  C   UNL     1      26.006  23.793  28.194  0.00  0.00    +0.000 A 
ATOM      6  C   UNL     1      25.669  24.597  29.249  0.00  0.00    +0.000 A 
ENDROOT
BRANCH   1   8
ATOM      7  C   UNL     1      25.211  27.934  30.010  0.00  0.00    +0.000 C 
ATOM      8  C   UNL     1      24.526  26.604  30.149  0.00  0.00    +0.000 C 
ATOM      9  C   UNL     1      23.020  26.711  30.181  0.00  0.00    +0.000 C 
ATOM     10  C   UNL     1      24.992  25.896  31.433  0.00  0.00    +0.000 C 
ENDBRANCH   1   8
BRANCH   4  11
ATOM     11  C   UNL     1      26.020  23.288  25.792  0.00  0.00    +0.000 C 
BRANCH  11  12
ATOM     12  S   UNL     1      27.733  22.720  25.815  0.00  0.00    +0.000 S 
BRANCH  12  13
ATOM     13  C   UNL     1      28.305  23.237  24.164  0.00  0.00    +0.000 A 
ATOM     14  N   UNL     1      27.538  23.149  23.089  0.00  0.00    +0.000 NA
ATOM     15  N   UNL     1      28.008  23.617  21.907  0.00  0.00    +0.000 NA
ATOM     16  C   UNL     1      29.222  24.161  21.790  0.00  0.00    +0.000 A 
ATOM     17  O   UNL     1      29.618  24.587  20.655  0.00  0.00    +0.000 OA
ATOM     18  N   UNL     1      29.998  24.246  22.878  0.00  0.00    +0.000 NA
ATOM     19  C   UNL     1      29.562  23.799  24.069  0.00  0.00    +0.000 A 
ATOM     20  O   UNL     1      30.241  23.852  25.140  0.00  0.00    +0.000 OA
ENDBRANCH  12  13
ENDBRANCH  11  12
ENDBRANCH   4  11
TORSDOF 4
ENDMDL
MODEL 5
REMARK VINA RESULT:      -6.1     21.658     22.694
REMARK  Name = 
REMARK  4 active torsions:
REMARK  status: ('A' for Active; 'I' for Inactive)
REMARK    1  A    between atoms: C_2  and  C_5
REMARK    2  A    between atoms: C_8  and  C_9
REMARK    3  A    between atoms: C_9  and  S_10
REMARK    4  A    between atoms: S_10  and  C_11
REMARK                            x       y       z     vdW  Elec       q    Type
REMARK                         _______ _______ _______ _____ _____    ______ ____
ROOT
ATOM      1  C   UNL     1      32.849  24.788  24.922  0.00  0.00    +0.000 A 
ATOM      2  C   UNL     1      32.413  23.477  24.693  0.00  0.00    +0.000 A 
ATOM      3  C   UNL     1      31.098  23.181  24.481  0.00  0.00    +0.000 A 
ATOM      4  C   UNL     1      30.176  24.241  24.499  0.00  0.00    +0.000 A 
ATOM      5  C   UNL     1      30.614  25.521  24.728  0.00  0.00    +0.000 A 
ATOM      6  C   UNL     1      31.937  25.798  24.939  0.00  0.00    +0.000 A 
ENDROOT
BRANCH   1   8
ATOM      7  C   UNL     1      34.671  24.654  26.581  0.00  0.00    +0.000 C 
ATOM      8  C   UNL     1      34.285  25.041  25.182  0.00  0.00    +0.000 C 
ATOM      9  C   UNL     1      35.073  24.307  24.123  0.00  0.00    +0.000 C 
ATOM     10  C   UNL     1      34.480  26.553  24.973  0.00  0.00    +0.000 C 
ENDBRANCH   1   8
BRANCH   4  11
ATOM     11  C   UNL     1      28.775  23.929  24.398  0.00  0.00    +0.000 C 
BRANCH  11  12
ATOM     12  S   UNL     1      28.168  23.383  22.789  0.00  0.00    +0.000 S 
BRANCH  12  13
ATOM     13  C   UNL     1      28.672  24.773  21.724  0.00  0.00    +0.000 A 
ATOM     14  N   UNL     1      29.617  24.655  20.804  0.00  0.00    +0.000 NA
ATOM     15  N   UNL     1      29.890  25.714  20.003  0.00  0.00    +0.000 NA
ATOM     16  C   UNL     1      29.240  26.874  20.114  0.00  0.00    +0.000 A 
ATOM     17  O   UNL     1      29.534  27.841  19.335  0.00  0.00    +0.000 OA
ATOM     18  N   UNL     1      28.287  26.994  21.047  0.00  0.00    +0.000 NA
ATOM     19  C   UNL     1      27.984  25.963  21.854  0.00  0.00    +0.000 A 
ATOM     20  O   UNL     1      27.091  26.003  22.755  0.00  0.00    +0.000 OA
ENDBRANCH  12  13
ENDBRANCH  11  12
ENDBRANCH   4  11
TORSDOF 4
ENDMDL
MODEL 6
REMARK VINA RESULT:      -6.1     17.903     19.724
REMARK  Name = 
REMARK  4 active torsions:
REMARK  status: ('A' for Active; 'I' for Inactive)
REMARK    1  A    between atoms: C_2  and  C_5
REMARK    2  A    between atoms: C_8  and  C_9
REMARK    3  A    between atoms: C_9  and  S_10
REMARK    4  A    between atoms: S_10  and  C_11
REMARK                            x       y       z     vdW  Elec       q    Type
REMARK                         _______ _______ _______ _____ _____    ______ ____
ROOT
ATOM      1  C   UNL     1      33.861   3.417  35.122  0.00  0.00    +0.000 A 
ATOM      2  C   UNL     1      33.636   3.094  33.778  0.00  0.00    +0.000 A 
ATOM      3  C   UNL     1      33.496   1.803  33.359  0.00  0.00    +0.000 A 
ATOM      4  C   UNL     1      33.583   0.787  34.326  0.00  0.00    +0.000 A 
ATOM      5  C   UNL     1      33.807   1.114  35.639  0.00  0.00    +0.000 A 
ATOM      6  C   UNL     1      33.946   2.415  36.040  0.00  0.00    +0.000 A 
ENDROOT
BRANCH   1   8
ATOM      7  C   UNL     1      33.595   5.083  36.922  0.00  0.00    +0.000 C 
ATOM      8  C   UNL     1      34.041   4.834  35.509  0.00  0.00    +0.000 C 
ATOM      9  C   UNL     1      35.490   5.188  35.273  0.00  0.00    +0.000 C 
ATOM     10  C   UNL     1      33.176   5.642  34.526  0.00  0.00    +0.000 C 
ENDBRANCH   1   8
BRANCH   4  11
ATOM     11  C   UNL     1      33.558  -0.581  33.882  0.00  0.00    +0.000 C 
BRANCH  11  12
ATOM     12  S   UNL     1      32.981  -1.818  35.063  0.00  0.00    +0.000 S 
BRANCH  12  13
ATOM     13  C   UNL     1      32.967  -3.320  34.032  0.00  0.00    +0.000 A 
ATOM     14  N   UNL     1      33.594  -3.386  32.867  0.00  0.00    +0.000 NA
ATOM     15  N   UNL     1      33.597  -4.559  32.188  0.00  0.00    +0.000 NA
ATOM     16  C   UNL     1      32.986  -5.651  32.655  0.00  0.00    +0.000 A 
ATOM     17  O   UNL     1      33.018  -6.732  31.978  0.00  0.00    +0.000 OA
ATOM     18  N   UNL     1      32.349  -5.582  33.831  0.00  0.00    +0.000 NA
ATOM     19  C   UNL     1      32.332  -4.437  34.536  0.00  0.00    +0.000 A 
ATOM     20  O   UNL     1      31.754  -4.301  35.658  0.00  0.00    +0.000 OA
ENDBRANCH  12  13
ENDBRANCH  11  12
ENDBRANCH   4  11
TORSDOF 4
ENDMDL
MODEL 7
REMARK VINA RESULT:      -6.0     28.791     30.678
REMARK  Name = 
REMARK  4 active torsions:
REMARK  status: ('A' for Active; 'I' for Inactive)
REMARK    1  A    between atoms: C_2  and  C_5
REMARK    2  A    between atoms: C_8  and  C_9
REMARK    3  A    between atoms: C_9  and  S_10
REMARK    4  A    between atoms: S_10  and  C_11
REMARK                            x       y       z     vdW  Elec       q    Type
REMARK                         _______ _______ _______ _____ _____    ______ ____
ROOT
ATOM      1  C   UNL     1      28.201  22.621  12.002  0.00  0.00    +0.000 A 
ATOM      2  C   UNL     1      28.697  21.810  10.973  0.00  0.00    +0.000 A 
ATOM      3  C   UNL     1      30.012  21.452  10.906  0.00  0.00    +0.000 A 
ATOM      4  C   UNL     1      30.871  21.924  11.913  0.00  0.00    +0.000 A 
ATOM      5  C   UNL     1      30.376  22.720  12.914  0.00  0.00    +0.000 A 
ATOM      6  C   UNL     1      29.053  23.070  12.964  0.00  0.00    +0.000 A 
ENDROOT
BRANCH   1   8
ATOM      7  C   UNL     1      26.005  22.276  10.932  0.00  0.00    +0.000 C 
ATOM      8  C   UNL     1      26.771  23.005  11.999  0.00  0.00    +0.000 C 
ATOM      9  C   UNL     1      26.233  22.761  13.388  0.00  0.00    +0.000 C 
ATOM     10  C   UNL     1      26.753  24.520  11.728  0.00  0.00    +0.000 C 
ENDBRANCH   1   8
BRANCH   4  11
ATOM     11  C   UNL     1      32.279  21.655  11.790  0.00  0.00    +0.000 C 
BRANCH  11  12
ATOM     12  S   UNL     1      33.142  22.412  10.398  0.00  0.00    +0.000 S 
BRANCH  12  13
ATOM     13  C   UNL     1      33.304  20.996   9.262  0.00  0.00    +0.000 A 
ATOM     14  N   UNL     1      34.069  19.951   9.537  0.00  0.00    +0.000 NA
ATOM     15  N   UNL     1      34.085  18.905   8.675  0.00  0.00    +0.000 NA
ATOM     16  C   UNL     1      33.356  18.894   7.557  0.00  0.00    +0.000 A 
ATOM     17  O   UNL     1      33.406  17.884   6.779  0.00  0.00    +0.000 OA
ATOM     18  N   UNL     1      32.585  19.953   7.278  0.00  0.00    +0.000 NA
ATOM     19  C   UNL     1      32.538  21.006   8.113  0.00  0.00    +0.000 A 
ATOM     20  O   UNL     1      31.827  22.039   7.916  0.00  0.00    +0.000 OA
ENDBRANCH  12  13
ENDBRANCH  11  12
ENDBRANCH   4  11
TORSDOF 4
ENDMDL
MODEL 8
REMARK VINA RESULT:      -6.0     28.896     30.733
REMARK  Name = 
REMARK  4 active torsions:
REMARK  status: ('A' for Active; 'I' for Inactive)
REMARK    1  A    between atoms: C_2  and  C_5
REMARK    2  A    between atoms: C_8  and  C_9
REMARK    3  A    between atoms: C_9  and  S_10
REMARK    4  A    between atoms: S_10  and  C_11
REMARK                            x       y       z     vdW  Elec       q    Type
REMARK                         _______ _______ _______ _____ _____    ______ ____
ROOT
ATOM      1  C   UNL     1      28.227  22.862  12.406  0.00  0.00    +0.000 A 
ATOM      2  C   UNL     1      28.257  22.089  11.239  0.00  0.00    +0.000 A 
ATOM      3  C   UNL     1      29.384  21.435  10.835  0.00  0.00    +0.000 A 
ATOM      4  C   UNL     1      30.534  21.556  11.634  0.00  0.00    +0.000 A 
ATOM      5  C   UNL     1      30.495  22.319  12.773  0.00  0.00    +0.000 A 
ATOM      6  C   UNL     1      29.354  22.969  13.161  0.00  0.00    +0.000 A 
ENDROOT
BRANCH   1   8
ATOM      7  C   UNL     1      26.424  24.344  11.607  0.00  0.00    +0.000 C 
ATOM      8  C   UNL     1      26.983  23.578  12.772  0.00  0.00    +0.000 C 
ATOM      9  C   UNL     1      26.020  22.557  13.329  0.00  0.00    +0.000 C 
ATOM     10  C   UNL     1      27.381  24.542  13.903  0.00  0.00    +0.000 C 
ENDBRANCH   1   8
BRANCH   4  11
ATOM     11  C   UNL     1      31.760  20.973  11.159  0.00  0.00    +0.000 C 
BRANCH  11  12
ATOM     12  S   UNL     1      32.830  22.017  10.148  0.00  0.00    +0.000 S 
BRANCH  12  13
ATOM     13  C   UNL     1      32.395  21.458   8.469  0.00  0.00    +0.000 A 
ATOM     14  N   UNL     1      32.918  20.370   7.926  0.00  0.00    +0.000 NA
ATOM     15  N   UNL     1      32.494  19.980   6.699  0.00  0.00    +0.000 NA
ATOM     16  C   UNL     1      31.567  20.659   6.019  0.00  0.00    +0.000 A 
ATOM     17  O   UNL     1      31.201  20.249   4.867  0.00  0.00    +0.000 OA
ATOM     18  N   UNL     1      31.041  21.761   6.568  0.00  0.00    +0.000 NA
ATOM     19  C   UNL     1      31.432  22.174   7.786  0.00  0.00    +0.000 A 
ATOM     20  O   UNL     1      30.974  23.205   8.369  0.00  0.00    +0.000 OA
ENDBRANCH  12  13
ENDBRANCH  11  12
ENDBRANCH   4  11
TORSDOF 4
ENDMDL
MODEL 9
REMARK VINA RESULT:      -5.9     18.372     19.418
REMARK  Name = 
REMARK  4 active torsions:
REMARK  status: ('A' for Active; 'I' for Inactive)
REMARK    1  A    between atoms: C_2  and  C_5
REMARK    2  A    between atoms: C_8  and  C_9
REMARK    3  A    between atoms: C_9  and  S_10
REMARK    4  A    between atoms: S_10  and  C_11
REMARK                            x       y       z     vdW  Elec       q    Type
REMARK                         _______ _______ _______ _____ _____    ______ ____
ROOT
ATOM      1  C   UNL     1      26.871  23.152  28.428  0.00  0.00    +0.000 A 
ATOM      2  C   UNL     1      25.887  23.906  27.775  0.00  0.00    +0.000 A 
ATOM      3  C   UNL     1      25.774  23.922  26.416  0.00  0.00    +0.000 A 
ATOM      4  C   UNL     1      26.683  23.151  25.673  0.00  0.00    +0.000 A 
ATOM      5  C   UNL     1      27.645  22.419  26.322  0.00  0.00    +0.000 A 
ATOM      6  C   UNL     1      27.744  22.415  27.687  0.00  0.00    +0.000 A 
ENDROOT
BRANCH   1   8
ATOM      7  C   UNL     1      28.387  23.377  30.361  0.00  0.00    +0.000 C 
ATOM      8  C   UNL     1      26.966  23.204  29.904  0.00  0.00    +0.000 C 
ATOM      9  C   UNL     1      26.051  24.308  30.379  0.00  0.00    +0.000 C 
ATOM     10  C   UNL     1      26.407  21.859  30.400  0.00  0.00    +0.000 C 
ENDBRANCH   1   8
BRANCH   4  11
ATOM     11  C   UNL     1      26.652  23.253  24.238  0.00  0.00    +0.000 C 
BRANCH  11  12
ATOM     12  S   UNL     1      27.449  24.694  23.499  0.00  0.00    +0.000 S 
BRANCH  12  13
ATOM     13  C   UNL     1      29.168  24.484  24.068  0.00  0.00    +0.000 A 
ATOM     14  N   UNL     1      29.998  23.616  23.511  0.00  0.00    +0.000 NA
ATOM     15  N   UNL     1      31.282  23.565  23.942  0.00  0.00    +0.000 NA
ATOM     16  C   UNL     1      31.737  24.361  24.913  0.00  0.00    +0.000 A 
ATOM     17  O   UNL     1      32.954  24.274  25.283  0.00  0.00    +0.000 OA
ATOM     18  N   UNL     1      30.895  25.235  25.479  0.00  0.00    +0.000 NA
ATOM     19  C   UNL     1      29.617  25.319  25.071  0.00  0.00    +0.000 A 
ATOM     20  O   UNL     1      28.767  26.127  25.557  0.00  0.00    +0.000 OA
ENDBRANCH  12  13
ENDBRANCH  11  12
ENDBRANCH   4  11
TORSDOF 4
ENDMDL
MODEL 10
REMARK VINA RESULT:      -5.9     18.306     19.436
REMARK  Name = 
REMARK  4 active torsions:
REMARK  status: ('A' for Active; 'I' for Inactive)
REMARK    1  A    between atoms: C_2  and  C_5
REMARK    2  A    between atoms: C_8  and  C_9
REMARK    3  A    between atoms: C_9  and  S_10
REMARK    4  A    between atoms: S_10  and  C_11
REMARK                            x       y       z     vdW  Elec       q    Type
REMARK                         _______ _______ _______ _____ _____    ______ ____
ROOT
ATOM      1  C   UNL     1      31.289  22.820  29.294  0.00  0.00    +0.000 A 
ATOM      2  C   UNL     1      30.392  23.830  29.662  0.00  0.00    +0.000 A 
ATOM      3  C   UNL     1      29.319  24.161  28.887  0.00  0.00    +0.000 A 
ATOM      4  C   UNL     1      29.132  23.450  27.689  0.00  0.00    +0.000 A 
ATOM      5  C   UNL     1      30.019  22.465  27.336  0.00  0.00    +0.000 A 
ATOM      6  C   UNL     1      31.091  22.148  28.126  0.00  0.00    +0.000 A 
ENDROOT
BRANCH   1   8
ATOM      7  C   UNL     1      33.713  22.363  29.355  0.00  0.00    +0.000 C 
ATOM      8  C   UNL     1      32.455  22.532  30.160  0.00  0.00    +0.000 C 
ATOM      9  C   UNL     1      32.547  23.642  31.179  0.00  0.00    +0.000 C 
ATOM     10  C   UNL     1      32.111  21.224  30.892  0.00  0.00    +0.000 C 
ENDBRANCH   1   8
BRANCH   4  11
ATOM     11  C   UNL     1      28.077  23.869  26.805  0.00  0.00    +0.000 C 
BRANCH  11  12
ATOM     12  S   UNL     1      27.521  22.678  25.568  0.00  0.00    +0.000 S 
BRANCH  12  13
ATOM     13  C   UNL     1      28.226  23.387  24.044  0.00  0.00    +0.000 A 
ATOM     14  N   UNL     1      29.522  23.621  23.905  0.00  0.00    +0.000 NA
ATOM     15  N   UNL     1      29.981  24.085  22.717  0.00  0.00    +0.000 NA
ATOM     16  C   UNL     1      29.169  24.318  21.683  0.00  0.00    +0.000 A 
ATOM     17  O   UNL     1      29.651  24.754  20.586  0.00  0.00    +0.000 OA
ATOM     18  N   UNL     1      27.858  24.085  21.827  0.00  0.00    +0.000 NA
ATOM     19  C   UNL     1      27.367  23.617  22.988  0.00  0.00    +0.000 A 
ATOM     20  O   UNL     1      26.140  23.368  23.193  0.00  0.00    +0.000 OA
ENDBRANCH  12  13
ENDBRANCH  11  12
ENDBRANCH   4  11
TORSDOF 4
ENDMDL
