MODEL 1
REMARK VINA RESULT:      -6.3      0.000      0.000
REMARK  Name = 
REMARK  2 active torsions:
REMARK  status: ('A' for Active; 'I' for Inactive)
REMARK    1  A    between atoms: C_11  and  C_12
REMARK    2  A    between atoms: N_14  and  C_15
REMARK                            x       y       z     vdW  Elec       q    Type
REMARK                         _______ _______ _______ _____ _____    ______ ____
ROOT
ATOM      1  C   UNL     1      19.715   9.352  36.212  0.00  0.00    +0.000 C 
ATOM      2  C   UNL     1      18.412  10.049  35.987  0.00  0.00    +0.000 A 
ATOM      3  O   UNL     1      17.792  10.335  34.896  0.00  0.00    +0.000 OA
ATOM      4  C   UNL     1      16.641  10.972  35.128  0.00  0.00    +0.000 A 
ATOM      5  C   UNL     1      15.648  11.475  34.294  0.00  0.00    +0.000 A 
ATOM      6  C   UNL     1      14.577  12.084  34.925  0.00  0.00    +0.000 A 
ATOM      7  C   UNL     1      14.477  12.197  36.297  0.00  0.00    +0.000 A 
ATOM      8  O   UNL     1      13.330  12.842  36.785  0.00  0.00    +0.000 OA
ATOM      9  C   UNL     1      15.459  11.701  37.102  0.00  0.00    +0.000 A 
ATOM     10  C   UNL     1      16.538  11.091  36.499  0.00  0.00    +0.000 A 
ATOM     11  C   UNL     1      17.642  10.519  37.065  0.00  0.00    +0.000 A 
ENDROOT
BRANCH  11  12
ATOM     12  C   UNL     1      17.976  10.357  38.485  0.00  0.00    +0.000 C 
ATOM     13  O   UNL     1      18.858  11.035  39.043  0.00  0.00    +0.000 OA
ATOM     14  N   UNL     1      17.268   9.379  39.288  0.00  0.00    +0.000 NA
BRANCH  14  15
ATOM     15  C   UNL     1      17.601   9.217  40.686  0.00  0.00    +0.000 C 
ATOM     16  C   UNL     1      16.348   9.468  41.514  0.00  0.00    +0.000 C 
ATOM     17  C   UNL     1      15.671   8.107  41.685  0.00  0.00    +0.000 C 
ATOM     18  C   UNL     1      16.631   7.083  41.174  0.00  0.00    +0.000 C 
ATOM     19  C   UNL     1      17.957   7.762  40.980  0.00  0.00    +0.000 C 
ENDBRANCH  14  15
ENDBRANCH  11  12
TORSDOF 2
ENDMDL
MODEL 2
REMARK VINA RESULT:      -6.2     21.106     23.209
REMARK  Name = 
REMARK  2 active torsions:
REMARK  status: ('A' for Active; 'I' for Inactive)
REMARK    1  A    between atoms: C_11  and  C_12
REMARK    2  A    between atoms: N_14  and  C_15
REMARK                            x       y       z     vdW  Elec       q    Type
REMARK                         _______ _______ _______ _____ _____    ______ ____
ROOT
ATOM      1  C   UNL     1      21.813 -10.516  25.762  0.00  0.00    +0.000 C 
ATOM      2  C   UNL     1      20.860  -9.422  26.122  0.00  0.00    +0.000 A 
ATOM      3  O   UNL     1      19.834  -9.427  26.899  0.00  0.00    +0.000 OA
ATOM      4  C   UNL     1      19.242  -8.230  26.950  0.00  0.00    +0.000 A 
ATOM      5  C   UNL     1      18.127  -7.749  27.631  0.00  0.00    +0.000 A 
ATOM      6  C   UNL     1      17.821  -6.415  27.425  0.00  0.00    +0.000 A 
ATOM      7  C   UNL     1      18.560  -5.591  26.601  0.00  0.00    +0.000 A 
ATOM      8  O   UNL     1      18.121  -4.262  26.497  0.00  0.00    +0.000 OA
ATOM      9  C   UNL     1      19.649  -6.076  25.940  0.00  0.00    +0.000 A 
ATOM     10  C   UNL     1      19.976  -7.402  26.125  0.00  0.00    +0.000 A 
ATOM     11  C   UNL     1      21.001  -8.129  25.588  0.00  0.00    +0.000 A 
ENDROOT
BRANCH  11  12
ATOM     12  C   UNL     1      22.073  -7.692  24.687  0.00  0.00    +0.000 C 
ATOM     13  O   UNL     1      22.985  -6.930  25.057  0.00  0.00    +0.000 OA
ATOM     14  N   UNL     1      22.094  -8.150  23.312  0.00  0.00    +0.000 NA
BRANCH  14  15
ATOM     15  C   UNL     1      23.149  -7.716  22.423  0.00  0.00    +0.000 C 
ATOM     16  C   UNL     1      24.220  -8.798  22.378  0.00  0.00    +0.000 C 
ATOM     17  C   UNL     1      23.845  -9.720  21.218  0.00  0.00    +0.000 C 
ATOM     18  C   UNL     1      22.731  -9.051  20.480  0.00  0.00    +0.000 C 
ATOM     19  C   UNL     1      22.635  -7.641  20.988  0.00  0.00    +0.000 C 
ENDBRANCH  14  15
ENDBRANCH  11  12
TORSDOF 2
ENDMDL
MODEL 3
REMARK VINA RESULT:      -6.1     19.048     21.394
REMARK  Name = 
REMARK  2 active torsions:
REMARK  status: ('A' for Active; 'I' for Inactive)
REMARK    1  A    between atoms: C_11  and  C_12
REMARK    2  A    between atoms: N_14  and  C_15
REMARK                            x       y       z     vdW  Elec       q    Type
REMARK                         _______ _______ _______ _____ _____    ______ ____
ROOT
ATOM      1  C   UNL     1      24.261  26.104  25.353  0.00  0.00    +0.000 C 
ATOM      2  C   UNL     1      24.820  25.510  26.606  0.00  0.00    +0.000 A 
ATOM      3  O   UNL     1      24.651  25.842  27.838  0.00  0.00    +0.000 OA
ATOM      4  C   UNL     1      25.336  25.048  28.666  0.00  0.00    +0.000 A 
ATOM      5  C   UNL     1      25.472  25.010  30.050  0.00  0.00    +0.000 A 
ATOM      6  C   UNL     1      26.289  24.011  30.552  0.00  0.00    +0.000 A 
ATOM      7  C   UNL     1      26.940  23.098  29.748  0.00  0.00    +0.000 A 
ATOM      8  O   UNL     1      27.733  22.146  30.408  0.00  0.00    +0.000 OA
ATOM      9  C   UNL     1      26.799  23.148  28.394  0.00  0.00    +0.000 A 
ATOM     10  C   UNL     1      25.992  24.134  27.867  0.00  0.00    +0.000 A 
ATOM     11  C   UNL     1      25.685  24.403  26.563  0.00  0.00    +0.000 A 
ENDROOT
BRANCH  11  12
ATOM     12  C   UNL     1      26.100  23.693  25.348  0.00  0.00    +0.000 C 
ATOM     13  O   UNL     1      25.495  22.693  24.922  0.00  0.00    +0.000 OA
ATOM     14  N   UNL     1      27.254  24.153  24.600  0.00  0.00    +0.000 NA
BRANCH  14  15
ATOM     15  C   UNL     1      27.664  23.450  23.405  0.00  0.00    +0.000 C 
ATOM     16  C   UNL     1      27.552  24.401  22.220  0.00  0.00    +0.000 C 
ATOM     17  C   UNL     1      28.914  25.083  22.092  0.00  0.00    +0.000 C 
ATOM     18  C   UNL     1      29.841  24.370  23.021  0.00  0.00    +0.000 C 
ATOM     19  C   UNL     1      29.152  23.114  23.472  0.00  0.00    +0.000 C 
ENDBRANCH  14  15
ENDBRANCH  11  12
TORSDOF 2
ENDMDL
MODEL 4
REMARK VINA RESULT:      -6.0     19.737     22.594
REMARK  Name = 
REMARK  2 active torsions:
REMARK  status: ('A' for Active; 'I' for Inactive)
REMARK    1  A    between atoms: C_11  and  C_12
REMARK    2  A    between atoms: N_14  and  C_15
REMARK                            x       y       z     vdW  Elec       q    Type
REMARK                         _______ _______ _______ _____ _____    ______ ____
ROOT
ATOM      1  C   UNL     1      31.871  -5.208  35.933  0.00  0.00    +0.000 C 
ATOM      2  C   UNL     1      32.233  -3.856  35.408  0.00  0.00    +0.000 A 
ATOM      3  O   UNL     1      31.864  -2.683  35.788  0.00  0.00    +0.000 OA
ATOM      4  C   UNL     1      32.420  -1.721  35.046  0.00  0.00    +0.000 A 
ATOM      5  C   UNL     1      32.330  -0.332  35.067  0.00  0.00    +0.000 A 
ATOM      6  C   UNL     1      33.077   0.338  34.114  0.00  0.00    +0.000 A 
ATOM      7  C   UNL     1      33.871  -0.308  33.189  0.00  0.00    +0.000 A 
ATOM      8  O   UNL     1      34.567   0.512  32.288  0.00  0.00    +0.000 OA
ATOM      9  C   UNL     1      33.948  -1.669  33.179  0.00  0.00    +0.000 A 
ATOM     10  C   UNL     1      33.213  -2.362  34.116  0.00  0.00    +0.000 A 
ATOM     11  C   UNL     1      33.112  -3.709  34.320  0.00  0.00    +0.000 A 
ENDROOT
BRANCH  11  12
ATOM     12  C   UNL     1      33.792  -4.806  33.621  0.00  0.00    +0.000 C 
ATOM     13  O   UNL     1      34.827  -5.336  34.061  0.00  0.00    +0.000 OA
ATOM     14  N   UNL     1      33.256  -5.306  32.370  0.00  0.00    +0.000 NA
BRANCH  14  15
ATOM     15  C   UNL     1      33.929  -6.385  31.679  0.00  0.00    +0.000 C 
ATOM     16  C   UNL     1      32.898  -7.155  30.864  0.00  0.00    +0.000 C 
ATOM     17  C   UNL     1      32.874  -6.501  29.482  0.00  0.00    +0.000 C 
ATOM     18  C   UNL     1      34.021  -5.545  29.438  0.00  0.00    +0.000 C 
ATOM     19  C   UNL     1      34.889  -5.825  30.632  0.00  0.00    +0.000 C 
ENDBRANCH  14  15
ENDBRANCH  11  12
TORSDOF 2
ENDMDL
MODEL 5
REMARK VINA RESULT:      -5.9      2.788      7.231
REMARK  Name = 
REMARK  2 active torsions:
REMARK  status: ('A' for Active; 'I' for Inactive)
REMARK    1  A    between atoms: C_11  and  C_12
REMARK    2  A    between atoms: N_14  and  C_15
REMARK                            x       y       z     vdW  Elec       q    Type
REMARK                         _______ _______ _______ _____ _____    ______ ____
ROOT
ATOM      1  C   UNL     1      15.823   8.888  41.372  0.00  0.00    +0.000 C 
ATOM      2  C   UNL     1      16.755   7.721  41.312  0.00  0.00    +0.000 A 
ATOM      3  O   UNL     1      16.675   6.556  41.853  0.00  0.00    +0.000 OA
ATOM      4  C   UNL     1      17.729   5.793  41.552  0.00  0.00    +0.000 A 
ATOM      5  C   UNL     1      18.090   4.492  41.892  0.00  0.00    +0.000 A 
ATOM      6  C   UNL     1      19.289   4.040  41.369  0.00  0.00    +0.000 A 
ATOM      7  C   UNL     1      20.096   4.812  40.558  0.00  0.00    +0.000 A 
ATOM      8  O   UNL     1      21.281   4.210  40.108  0.00  0.00    +0.000 OA
ATOM      9  C   UNL     1      19.731   6.084  40.235  0.00  0.00    +0.000 A 
ATOM     10  C   UNL     1      18.542   6.562  40.743  0.00  0.00    +0.000 A 
ATOM     11  C   UNL     1      17.952   7.783  40.577  0.00  0.00    +0.000 A 
ENDROOT
BRANCH  11  12
ATOM     12  C   UNL     1      18.401   8.927  39.776  0.00  0.00    +0.000 C 
ATOM     13  O   UNL     1      18.973   9.910  40.281  0.00  0.00    +0.000 OA
ATOM     14  N   UNL     1      18.183   8.936  38.342  0.00  0.00    +0.000 NA
BRANCH  14  15
ATOM     15  C   UNL     1      18.623  10.066  37.553  0.00  0.00    +0.000 C 
ATOM     16  C   UNL     1      19.076   9.558  36.191  0.00  0.00    +0.000 C 
ATOM     17  C   UNL     1      17.845   9.611  35.286  0.00  0.00    +0.000 C 
ATOM     18  C   UNL     1      16.788  10.348  36.041  0.00  0.00    +0.000 C 
ATOM     19  C   UNL     1      17.443  10.980  37.236  0.00  0.00    +0.000 C 
ENDBRANCH  14  15
ENDBRANCH  11  12
TORSDOF 2
ENDMDL
MODEL 6
REMARK VINA RESULT:      -5.9     19.470     21.756
REMARK  Name = 
REMARK  2 active torsions:
REMARK  status: ('A' for Active; 'I' for Inactive)
REMARK    1  A    between atoms: C_11  and  C_12
REMARK    2  A    between atoms: N_14  and  C_15
REMARK                            x       y       z     vdW  Elec       q    Type
REMARK                         _______ _______ _______ _____ _____    ______ ____
ROOT
ATOM      1  C   UNL     1      30.428  22.371  25.151  0.00  0.00    +0.000 C 
ATOM      2  C   UNL     1      29.747  22.561  26.468  0.00  0.00    +0.000 A 
ATOM      3  O   UNL     1      30.189  22.420  27.668  0.00  0.00    +0.000 OA
ATOM      4  C   UNL     1      29.250  22.688  28.580  0.00  0.00    +0.000 A 
ATOM      5  C   UNL     1      29.245  22.675  29.971  0.00  0.00    +0.000 A 
ATOM      6  C   UNL     1      28.050  23.025  30.576  0.00  0.00    +0.000 A 
ATOM      7  C   UNL     1      26.919  23.371  29.865  0.00  0.00    +0.000 A 
ATOM      8  O   UNL     1      25.785  23.701  30.623  0.00  0.00    +0.000 OA
ATOM      9  C   UNL     1      26.938  23.378  28.502  0.00  0.00    +0.000 A 
ATOM     10  C   UNL     1      28.115  23.031  27.873  0.00  0.00    +0.000 A 
ATOM     11  C   UNL     1      28.400  22.958  26.539  0.00  0.00    +0.000 A 
ENDROOT
BRANCH  11  12
ATOM     12  C   UNL     1      27.540  23.265  25.390  0.00  0.00    +0.000 C 
ATOM     13  O   UNL     1      26.499  22.628  25.149  0.00  0.00    +0.000 OA
ATOM     14  N   UNL     1      27.895  24.344  24.489  0.00  0.00    +0.000 NA
BRANCH  14  15
ATOM     15  C   UNL     1      27.049  24.644  23.355  0.00  0.00    +0.000 C 
ATOM     16  C   UNL     1      27.191  26.123  23.023  0.00  0.00    +0.000 C 
ATOM     17  C   UNL     1      28.323  26.223  21.999  0.00  0.00    +0.000 C 
ATOM     18  C   UNL     1      28.652  24.826  21.586  0.00  0.00    +0.000 C 
ATOM     19  C   UNL     1      27.565  23.931  22.108  0.00  0.00    +0.000 C 
ENDBRANCH  14  15
ENDBRANCH  11  12
TORSDOF 2
ENDMDL
MODEL 7
REMARK VINA RESULT:      -5.8      3.722      5.540
REMARK  Name = 
REMARK  2 active torsions:
REMARK  status: ('A' for Active; 'I' for Inactive)
REMARK    1  A    between atoms: C_11  and  C_12
REMARK    2  A    between atoms: N_14  and  C_15
REMARK                            x       y       z     vdW  Elec       q    Type
REMARK                         _______ _______ _______ _____ _____    ______ ____
ROOT
ATOM      1  C   UNL     1      13.679  13.727  32.221  0.00  0.00    +0.000 C 
ATOM      2  C   UNL     1      14.689  12.685  32.583  0.00  0.00    +0.000 A 
ATOM      3  O   UNL     1      15.534  12.048  31.852  0.00  0.00    +0.000 OA
ATOM      4  C   UNL     1      16.265  11.188  32.568  0.00  0.00    +0.000 A 
ATOM      5  C   UNL     1      17.279  10.296  32.236  0.00  0.00    +0.000 A 
ATOM      6  C   UNL     1      17.805   9.559  33.283  0.00  0.00    +0.000 A 
ATOM      7  C   UNL     1      17.367   9.684  34.586  0.00  0.00    +0.000 A 
ATOM      8  O   UNL     1      18.001   8.867  35.534  0.00  0.00    +0.000 OA
ATOM      9  C   UNL     1      16.372  10.561  34.896  0.00  0.00    +0.000 A 
ATOM     10  C   UNL     1      15.828  11.307  33.872  0.00  0.00    +0.000 A 
ATOM     11  C   UNL     1      14.834  12.243  33.910  0.00  0.00    +0.000 A 
ENDROOT
BRANCH  11  12
ATOM     12  C   UNL     1      14.083  12.750  35.064  0.00  0.00    +0.000 C 
ATOM     13  O   UNL     1      13.806  13.956  35.200  0.00  0.00    +0.000 OA
ATOM     14  N   UNL     1      13.636  11.834  36.096  0.00  0.00    +0.000 NA
BRANCH  14  15
ATOM     15  C   UNL     1      12.899  12.336  37.235  0.00  0.00    +0.000 C 
ATOM     16  C   UNL     1      11.410  12.183  36.954  0.00  0.00    +0.000 C 
ATOM     17  C   UNL     1      11.012  10.813  37.504  0.00  0.00    +0.000 C 
ATOM     18  C   UNL     1      12.181  10.307  38.284  0.00  0.00    +0.000 C 
ATOM     19  C   UNL     1      13.141  11.449  38.454  0.00  0.00    +0.000 C 
ENDBRANCH  14  15
ENDBRANCH  11  12
TORSDOF 2
ENDMDL
MODEL 8
REMARK VINA RESULT:      -5.7     19.867     21.549
REMARK  Name = 
REMARK  2 active torsions:
REMARK  status: ('A' for Active; 'I' for Inactive)
REMARK    1  A    between atoms: C_11  and  C_12
REMARK    2  A    between atoms: N_14  and  C_15
REMARK                            x       y       z     vdW  Elec       q    Type
REMARK                         _______ _______ _______ _____ _____    ______ ____
ROOT
ATOM      1  C   UNL     1      31.864  23.833  25.789  0.00  0.00    +0.000 C 
ATOM      2  C   UNL     1      30.699  23.786  24.852  0.00  0.00    +0.000 A 
ATOM      3  O   UNL     1      30.617  24.086  23.604  0.00  0.00    +0.000 OA
ATOM      4  C   UNL     1      29.381  23.905  23.128  0.00  0.00    +0.000 A 
ATOM      5  C   UNL     1      28.809  24.089  21.874  0.00  0.00    +0.000 A 
ATOM      6  C   UNL     1      27.463  23.782  21.771  0.00  0.00    +0.000 A 
ATOM      7  C   UNL     1      26.713  23.320  22.833  0.00  0.00    +0.000 A 
ATOM      8  O   UNL     1      25.361  23.053  22.568  0.00  0.00    +0.000 OA
ATOM      9  C   UNL     1      27.287  23.146  24.057  0.00  0.00    +0.000 A 
ATOM     10  C   UNL     1      28.625  23.446  24.188  0.00  0.00    +0.000 A 
ATOM     11  C   UNL     1      29.432  23.363  25.288  0.00  0.00    +0.000 A 
ENDROOT
BRANCH  11  12
ATOM     12  C   UNL     1      29.109  22.893  26.640  0.00  0.00    +0.000 C 
ATOM     13  O   UNL     1      29.285  21.713  26.995  0.00  0.00    +0.000 OA
ATOM     14  N   UNL     1      28.564  23.817  27.616  0.00  0.00    +0.000 NA
BRANCH  14  15
ATOM     15  C   UNL     1      28.242  23.351  28.947  0.00  0.00    +0.000 C 
ATOM     16  C   UNL     1      28.246  24.546  29.892  0.00  0.00    +0.000 C 
ATOM     17  C   UNL     1      26.813  25.080  29.908  0.00  0.00    +0.000 C 
ATOM     18  C   UNL     1      25.973  24.079  29.183  0.00  0.00    +0.000 C 
ATOM     19  C   UNL     1      26.804  22.842  28.997  0.00  0.00    +0.000 C 
ENDBRANCH  14  15
ENDBRANCH  11  12
TORSDOF 2
ENDMDL
MODEL 9
REMARK VINA RESULT:      -5.5     21.222     23.242
REMARK  Name = 
REMARK  2 active torsions:
REMARK  status: ('A' for Active; 'I' for Inactive)
REMARK    1  A    between atoms: C_11  and  C_12
REMARK    2  A    between atoms: N_14  and  C_15
REMARK                            x       y       z     vdW  Elec       q    Type
REMARK                         _______ _______ _______ _____ _____    ______ ____
ROOT
ATOM      1  C   UNL     1      30.733  22.206  27.792  0.00  0.00    +0.000 C 
ATOM      2  C   UNL     1      29.666  22.488  26.784  0.00  0.00    +0.000 A 
ATOM      3  O   UNL     1      28.392  22.317  26.843  0.00  0.00    +0.000 OA
ATOM      4  C   UNL     1      27.784  22.698  25.716  0.00  0.00    +0.000 A 
ATOM      5  C   UNL     1      26.454  22.705  25.308  0.00  0.00    +0.000 A 
ATOM      6  C   UNL     1      26.214  23.192  24.034  0.00  0.00    +0.000 A 
ATOM      7  C   UNL     1      27.214  23.648  23.201  0.00  0.00    +0.000 A 
ATOM      8  O   UNL     1      26.809  24.110  21.940  0.00  0.00    +0.000 OA
ATOM      9  C   UNL     1      28.513  23.634  23.614  0.00  0.00    +0.000 A 
ATOM     10  C   UNL     1      28.782  23.153  24.877  0.00  0.00    +0.000 A 
ATOM     11  C   UNL     1      29.979  23.030  25.525  0.00  0.00    +0.000 A 
ENDROOT
BRANCH  11  12
ATOM     12  C   UNL     1      31.321  23.413  25.072  0.00  0.00    +0.000 C 
ATOM     13  O   UNL     1      31.944  22.763  24.213  0.00  0.00    +0.000 OA
ATOM     14  N   UNL     1      31.965  24.586  25.630  0.00  0.00    +0.000 NA
BRANCH  14  15
ATOM     15  C   UNL     1      33.290  24.960  25.186  0.00  0.00    +0.000 C 
ATOM     16  C   UNL     1      33.378  26.480  25.152  0.00  0.00    +0.000 C 
ATOM     17  C   UNL     1      33.894  26.907  26.527  0.00  0.00    +0.000 C 
ATOM     18  C   UNL     1      34.312  25.659  27.235  0.00  0.00    +0.000 C 
ATOM     19  C   UNL     1      34.331  24.550  26.223  0.00  0.00    +0.000 C 
ENDBRANCH  14  15
ENDBRANCH  11  12
TORSDOF 2
ENDMDL
MODEL 10
REMARK VINA RESULT:      -5.5     19.421     21.526
REMARK  Name = 
REMARK  2 active torsions:
REMARK  status: ('A' for Active; 'I' for Inactive)
REMARK    1  A    between atoms: C_11  and  C_12
REMARK    2  A    between atoms: N_14  and  C_15
REMARK                            x       y       z     vdW  Elec       q    Type
REMARK                         _______ _______ _______ _____ _____    ______ ____
ROOT
ATOM      1  C   UNL     1      26.993  22.932  28.509  0.00  0.00    +0.000 C 
ATOM      2  C   UNL     1      26.060  24.001  28.036  0.00  0.00    +0.000 A 
ATOM      3  O   UNL     1      25.369  24.861  28.697  0.00  0.00    +0.000 OA
ATOM      4  C   UNL     1      24.652  25.650  27.891  0.00  0.00    +0.000 A 
ATOM      5  C   UNL     1      23.771  26.701  28.126  0.00  0.00    +0.000 A 
ATOM      6  C   UNL     1      23.213  27.287  27.002  0.00  0.00    +0.000 A 
ATOM      7  C   UNL     1      23.497  26.872  25.717  0.00  0.00    +0.000 A 
ATOM      8  O   UNL     1      22.851  27.567  24.684  0.00  0.00    +0.000 OA
ATOM      9  C   UNL     1      24.361  25.840  25.502  0.00  0.00    +0.000 A 
ATOM     10  C   UNL     1      24.931  25.237  26.603  0.00  0.00    +0.000 A 
ATOM     11  C   UNL     1      25.814  24.197  26.666  0.00  0.00    +0.000 A 
ENDROOT
BRANCH  11  12
ATOM     12  C   UNL     1      26.442  23.447  25.572  0.00  0.00    +0.000 C 
ATOM     13  O   UNL     1      25.844  22.549  24.952  0.00  0.00    +0.000 OA
ATOM     14  N   UNL     1      27.805  23.745  25.180  0.00  0.00    +0.000 NA
BRANCH  14  15
ATOM     15  C   UNL     1      28.424  23.003  24.104  0.00  0.00    +0.000 C 
ATOM     16  C   UNL     1      28.381  23.854  22.841  0.00  0.00    +0.000 C 
ATOM     17  C   UNL     1      29.684  24.653  22.822  0.00  0.00    +0.000 C 
ATOM     18  C   UNL     1      30.544  24.099  23.911  0.00  0.00    +0.000 C 
ATOM     19  C   UNL     1      29.915  22.818  24.377  0.00  0.00    +0.000 C 
ENDBRANCH  14  15
ENDBRANCH  11  12
TORSDOF 2
ENDMDL
