MODEL 1
REMARK VINA RESULT:      -7.1      0.000      0.000
REMARK  Name = 
REMARK  9 active torsions:
REMARK  status: ('A' for Active; 'I' for Inactive)
REMARK    1  A    between atoms: C_2  and  O_3
REMARK    2  A    between atoms: O_3  and  C_4
REMARK    3  A    between atoms: C_7  and  O_8
REMARK    4  A    between atoms: O_8  and  C_9
REMARK    5  A    between atoms: C_9  and  C_10
REMARK    6  A    between atoms: C_14  and  C_15
REMARK    7  A    between atoms: N_17  and  N_18
REMARK    8  A    between atoms: C_19  and  C_20
REMARK    9  A    between atoms: C_23  and  O_24
REMARK                            x       y       z     vdW  Elec       q    Type
REMARK                         _______ _______ _______ _____ _____    ______ ____
ROOT
ATOM      1  C   UNL     1      15.044   0.193  27.136  0.00  0.00    +0.000 A 
ATOM      2  C   UNL     1      14.494  -0.935  26.565  0.00  0.00    +0.000 A 
ATOM      3  C   UNL     1      13.158  -1.089  26.316  0.00  0.00    +0.000 A 
ATOM      4  C   UNL     1      12.306  -0.059  26.653  0.00  0.00    +0.000 A 
ATOM      5  C   UNL     1      12.821   1.078  27.223  0.00  0.00    +0.000 A 
ATOM      6  C   UNL     1      14.167   1.216  27.467  0.00  0.00    +0.000 A 
ENDROOT
BRANCH   5   7
ATOM      7  C   UNL     1      11.958   2.182  27.591  0.00  0.00    +0.000 C 
ATOM      8  O   UNL     1      12.196   3.327  27.126  0.00  0.00    +0.000 OA
ATOM      9  N   UNL     1      10.844   2.057  28.450  0.00  0.00    +0.000 NA
BRANCH   9  10
ATOM     10  N   UNL     1      10.058   3.173  28.756  0.00  0.00    +0.000 NA
ATOM     11  C   UNL     1       9.827   3.586  29.934  0.00  0.00    +0.000 C 
BRANCH  11  12
ATOM     12  C   UNL     1       9.014   4.739  30.266  0.00  0.00    +0.000 A 
ATOM     13  C   UNL     1       9.186   5.445  31.433  0.00  0.00    +0.000 A 
ATOM     14  C   UNL     1       8.415   6.543  31.755  0.00  0.00    +0.000 A 
ATOM     15  C   UNL     1       7.428   6.967  30.891  0.00  0.00    +0.000 A 
ATOM     16  C   UNL     1       7.255   6.259  29.722  0.00  0.00    +0.000 A 
ATOM     17  C   UNL     1       8.033   5.151  29.396  0.00  0.00    +0.000 A 
BRANCH  15  18
ATOM     18  O   UNL     1       6.627   8.085  31.198  0.00  0.00    +0.000 OA
ATOM     19  C   UNL     1       5.225   7.914  31.126  0.00  0.00    +0.000 C 
ENDBRANCH  15  18
ENDBRANCH  11  12
ENDBRANCH   9  10
ENDBRANCH   5   7
BRANCH   1  20
ATOM     20  C   UNL     1      16.494   0.321  27.389  0.00  0.00    +0.000 C 
BRANCH  20  21
ATOM     21  O   UNL     1      17.273  -0.641  26.732  0.00  0.00    +0.000 OA
BRANCH  21  25
ATOM     22  C   UNL     1      19.846   0.217  23.603  0.00  0.00    +0.000 A 
ATOM     23  C   UNL     1      19.591  -1.082  23.926  0.00  0.00    +0.000 A 
ATOM     24  C   UNL     1      18.748  -1.394  24.952  0.00  0.00    +0.000 A 
ATOM     25  C   UNL     1      18.137  -0.392  25.682  0.00  0.00    +0.000 A 
ATOM     26  C   UNL     1      18.388   0.936  25.364  0.00  0.00    +0.000 A 
ATOM     27  C   UNL     1      19.244   1.205  24.323  0.00  0.00    +0.000 A 
BRANCH  22  28
ATOM     28  O   UNL     1      20.713   0.531  22.550  0.00  0.00    +0.000 OA
BRANCH  28  30
ATOM     29  C   UNL     1      19.548   1.049  20.499  0.00  0.00    +0.000 C 
ATOM     30  C   UNL     1      20.431   0.057  21.248  0.00  0.00    +0.000 C 
ENDBRANCH  28  30
ENDBRANCH  22  28
ENDBRANCH  21  25
ENDBRANCH  20  21
ENDBRANCH   1  20
TORSDOF 9
ENDMDL
MODEL 2
REMARK VINA RESULT:      -7.1     24.365     27.693
REMARK  Name = 
REMARK  9 active torsions:
REMARK  status: ('A' for Active; 'I' for Inactive)
REMARK    1  A    between atoms: C_2  and  O_3
REMARK    2  A    between atoms: O_3  and  C_4
REMARK    3  A    between atoms: C_7  and  O_8
REMARK    4  A    between atoms: O_8  and  C_9
REMARK    5  A    between atoms: C_9  and  C_10
REMARK    6  A    between atoms: C_14  and  C_15
REMARK    7  A    between atoms: N_17  and  N_18
REMARK    8  A    between atoms: C_19  and  C_20
REMARK    9  A    between atoms: C_23  and  O_24
REMARK                            x       y       z     vdW  Elec       q    Type
REMARK                         _______ _______ _______ _____ _____    ______ ____
ROOT
ATOM      1  C   UNL     1      36.173  -2.666  16.098  0.00  0.00    +0.000 A 
ATOM      2  C   UNL     1      34.831  -2.931  16.281  0.00  0.00    +0.000 A 
ATOM      3  C   UNL     1      33.963  -2.075  16.900  0.00  0.00    +0.000 A 
ATOM      4  C   UNL     1      34.451  -0.875  17.370  0.00  0.00    +0.000 A 
ATOM      5  C   UNL     1      35.781  -0.580  17.205  0.00  0.00    +0.000 A 
ATOM      6  C   UNL     1      36.640  -1.452  16.581  0.00  0.00    +0.000 A 
ENDROOT
BRANCH   5   7
ATOM      7  C   UNL     1      36.330   0.672  17.686  0.00  0.00    +0.000 C 
ATOM      8  O   UNL     1      36.652   0.774  18.898  0.00  0.00    +0.000 OA
ATOM      9  N   UNL     1      36.535   1.806  16.870  0.00  0.00    +0.000 NA
BRANCH   9  10
ATOM     10  N   UNL     1      37.072   2.979  17.410  0.00  0.00    +0.000 NA
ATOM     11  C   UNL     1      37.768   3.816  16.758  0.00  0.00    +0.000 C 
BRANCH  11  12
ATOM     12  C   UNL     1      38.331   5.034  17.303  0.00  0.00    +0.000 A 
ATOM     13  C   UNL     1      38.286   6.230  16.627  0.00  0.00    +0.000 A 
ATOM     14  C   UNL     1      38.822   7.394  17.142  0.00  0.00    +0.000 A 
ATOM     15  C   UNL     1      39.432   7.381  18.378  0.00  0.00    +0.000 A 
ATOM     16  C   UNL     1      39.478   6.182  19.056  0.00  0.00    +0.000 A 
ATOM     17  C   UNL     1      38.937   5.008  18.537  0.00  0.00    +0.000 A 
BRANCH  15  18
ATOM     18  O   UNL     1      39.986   8.555  18.924  0.00  0.00    +0.000 OA
ATOM     19  C   UNL     1      39.617   8.889  20.248  0.00  0.00    +0.000 C 
ENDBRANCH  15  18
ENDBRANCH  11  12
ENDBRANCH   9  10
ENDBRANCH   5   7
BRANCH   1  20
ATOM     20  C   UNL     1      37.079  -3.618  15.424  0.00  0.00    +0.000 C 
BRANCH  20  21
ATOM     21  O   UNL     1      37.575  -3.159  14.197  0.00  0.00    +0.000 OA
BRANCH  21  25
ATOM     22  C   UNL     1      41.440  -1.918  13.375  0.00  0.00    +0.000 A 
ATOM     23  C   UNL     1      41.074  -2.167  14.664  0.00  0.00    +0.000 A 
ATOM     24  C   UNL     1      39.808  -2.577  14.963  0.00  0.00    +0.000 A 
ATOM     25  C   UNL     1      38.873  -2.746  13.960  0.00  0.00    +0.000 A 
ATOM     26  C   UNL     1      39.232  -2.496  12.642  0.00  0.00    +0.000 A 
ATOM     27  C   UNL     1      40.518  -2.085  12.385  0.00  0.00    +0.000 A 
BRANCH  22  28
ATOM     28  O   UNL     1      42.739  -1.497  13.073  0.00  0.00    +0.000 OA
BRANCH  28  30
ATOM     29  C   UNL     1      42.832   0.913  13.181  0.00  0.00    +0.000 C 
ATOM     30  C   UNL     1      43.302  -0.409  13.778  0.00  0.00    +0.000 C 
ENDBRANCH  28  30
ENDBRANCH  22  28
ENDBRANCH  21  25
ENDBRANCH  20  21
ENDBRANCH   1  20
TORSDOF 9
ENDMDL
MODEL 3
REMARK VINA RESULT:      -6.9     24.652     28.641
REMARK  Name = 
REMARK  9 active torsions:
REMARK  status: ('A' for Active; 'I' for Inactive)
REMARK    1  A    between atoms: C_2  and  O_3
REMARK    2  A    between atoms: O_3  and  C_4
REMARK    3  A    between atoms: C_7  and  O_8
REMARK    4  A    between atoms: O_8  and  C_9
REMARK    5  A    between atoms: C_9  and  C_10
REMARK    6  A    between atoms: C_14  and  C_15
REMARK    7  A    between atoms: N_17  and  N_18
REMARK    8  A    between atoms: C_19  and  C_20
REMARK    9  A    between atoms: C_23  and  O_24
REMARK                            x       y       z     vdW  Elec       q    Type
REMARK                         _______ _______ _______ _____ _____    ______ ____
ROOT
ATOM      1  C   UNL     1      39.282   6.689  18.772  0.00  0.00    +0.000 A 
ATOM      2  C   UNL     1      39.060   7.737  17.904  0.00  0.00    +0.000 A 
ATOM      3  C   UNL     1      38.532   7.590  16.651  0.00  0.00    +0.000 A 
ATOM      4  C   UNL     1      38.200   6.322  16.225  0.00  0.00    +0.000 A 
ATOM      5  C   UNL     1      38.408   5.256  17.065  0.00  0.00    +0.000 A 
ATOM      6  C   UNL     1      38.940   5.422  18.321  0.00  0.00    +0.000 A 
ENDROOT
BRANCH   5   7
ATOM      7  C   UNL     1      38.071   3.908  16.653  0.00  0.00    +0.000 C 
ATOM      8  O   UNL     1      38.833   3.303  15.855  0.00  0.00    +0.000 OA
ATOM      9  N   UNL     1      36.924   3.214  17.096  0.00  0.00    +0.000 NA
BRANCH   9  10
ATOM     10  N   UNL     1      36.670   1.913  16.652  0.00  0.00    +0.000 NA
ATOM     11  C   UNL     1      35.836   1.121  17.191  0.00  0.00    +0.000 C 
BRANCH  11  12
ATOM     12  C   UNL     1      35.562  -0.229  16.743  0.00  0.00    +0.000 A 
ATOM     13  C   UNL     1      34.597  -1.013  17.328  0.00  0.00    +0.000 A 
ATOM     14  C   UNL     1      34.332  -2.301  16.907  0.00  0.00    +0.000 A 
ATOM     15  C   UNL     1      35.049  -2.844  15.863  0.00  0.00    +0.000 A 
ATOM     16  C   UNL     1      36.018  -2.057  15.276  0.00  0.00    +0.000 A 
ATOM     17  C   UNL     1      36.285  -0.759  15.701  0.00  0.00    +0.000 A 
BRANCH  15  18
ATOM     18  O   UNL     1      34.798  -4.155  15.415  0.00  0.00    +0.000 OA
ATOM     19  C   UNL     1      33.534  -4.408  14.834  0.00  0.00    +0.000 C 
ENDBRANCH  15  18
ENDBRANCH  11  12
ENDBRANCH   9  10
ENDBRANCH   5   7
BRANCH   1  20
ATOM     20  C   UNL     1      39.855   6.889  20.119  0.00  0.00    +0.000 C 
BRANCH  20  21
ATOM     21  O   UNL     1      41.000   7.696  20.135  0.00  0.00    +0.000 OA
BRANCH  21  25
ATOM     22  C   UNL     1      44.803   6.604  21.360  0.00  0.00    +0.000 A 
ATOM     23  C   UNL     1      43.782   5.706  21.457  0.00  0.00    +0.000 A 
ATOM     24  C   UNL     1      42.520   6.039  21.061  0.00  0.00    +0.000 A 
ATOM     25  C   UNL     1      42.257   7.297  20.554  0.00  0.00    +0.000 A 
ATOM     26  C   UNL     1      43.286   8.222  20.450  0.00  0.00    +0.000 A 
ATOM     27  C   UNL     1      44.542   7.846  20.861  0.00  0.00    +0.000 A 
BRANCH  22  28
ATOM     28  O   UNL     1      46.095   6.259  21.769  0.00  0.00    +0.000 OA
BRANCH  28  30
ATOM     29  C   UNL     1      47.177   4.195  22.404  0.00  0.00    +0.000 C 
ATOM     30  C   UNL     1      46.698   5.085  21.261  0.00  0.00    +0.000 C 
ENDBRANCH  28  30
ENDBRANCH  22  28
ENDBRANCH  21  25
ENDBRANCH  20  21
ENDBRANCH   1  20
TORSDOF 9
ENDMDL
MODEL 4
REMARK VINA RESULT:      -6.7     26.263     30.389
REMARK  Name = 
REMARK  9 active torsions:
REMARK  status: ('A' for Active; 'I' for Inactive)
REMARK    1  A    between atoms: C_2  and  O_3
REMARK    2  A    between atoms: O_3  and  C_4
REMARK    3  A    between atoms: C_7  and  O_8
REMARK    4  A    between atoms: O_8  and  C_9
REMARK    5  A    between atoms: C_9  and  C_10
REMARK    6  A    between atoms: C_14  and  C_15
REMARK    7  A    between atoms: N_17  and  N_18
REMARK    8  A    between atoms: C_19  and  C_20
REMARK    9  A    between atoms: C_23  and  O_24
REMARK                            x       y       z     vdW  Elec       q    Type
REMARK                         _______ _______ _______ _____ _____    ______ ____
ROOT
ATOM      1  C   UNL     1      45.205   5.913  25.511  0.00  0.00    +0.000 A 
ATOM      2  C   UNL     1      45.580   7.234  25.644  0.00  0.00    +0.000 A 
ATOM      3  C   UNL     1      45.379   8.184  24.681  0.00  0.00    +0.000 A 
ATOM      4  C   UNL     1      44.765   7.806  23.507  0.00  0.00    +0.000 A 
ATOM      5  C   UNL     1      44.380   6.499  23.341  0.00  0.00    +0.000 A 
ATOM      6  C   UNL     1      44.590   5.558  24.319  0.00  0.00    +0.000 A 
ENDROOT
BRANCH   5   7
ATOM      7  C   UNL     1      43.732   6.064  22.120  0.00  0.00    +0.000 C 
ATOM      8  O   UNL     1      44.049   4.954  21.621  0.00  0.00    +0.000 OA
ATOM      9  N   UNL     1      42.748   6.816  21.441  0.00  0.00    +0.000 NA
BRANCH   9  10
ATOM     10  N   UNL     1      42.169   6.325  20.267  0.00  0.00    +0.000 NA
ATOM     11  C   UNL     1      41.011   6.641  19.852  0.00  0.00    +0.000 C 
BRANCH  11  12
ATOM     12  C   UNL     1      40.397   6.140  18.639  0.00  0.00    +0.000 A 
ATOM     13  C   UNL     1      40.894   6.433  17.391  0.00  0.00    +0.000 A 
ATOM     14  C   UNL     1      40.313   5.960  16.232  0.00  0.00    +0.000 A 
ATOM     15  C   UNL     1      39.191   5.162  16.302  0.00  0.00    +0.000 A 
ATOM     16  C   UNL     1      38.692   4.868  17.553  0.00  0.00    +0.000 A 
ATOM     17  C   UNL     1      39.278   5.346  18.722  0.00  0.00    +0.000 A 
BRANCH  15  18
ATOM     18  O   UNL     1      38.579   4.667  15.134  0.00  0.00    +0.000 OA
ATOM     19  C   UNL     1      37.169   4.563  15.137  0.00  0.00    +0.000 C 
ENDBRANCH  15  18
ENDBRANCH  11  12
ENDBRANCH   9  10
ENDBRANCH   5   7
BRANCH   1  20
ATOM     20  C   UNL     1      45.441   4.916  26.575  0.00  0.00    +0.000 C 
BRANCH  20  21
ATOM     21  O   UNL     1      44.381   4.018  26.756  0.00  0.00    +0.000 OA
BRANCH  21  25
ATOM     22  C   UNL     1      41.117   4.673  29.220  0.00  0.00    +0.000 A 
ATOM     23  C   UNL     1      42.014   3.697  29.538  0.00  0.00    +0.000 A 
ATOM     24  C   UNL     1      43.098   3.460  28.745  0.00  0.00    +0.000 A 
ATOM     25  C   UNL     1      43.303   4.208  27.602  0.00  0.00    +0.000 A 
ATOM     26  C   UNL     1      42.398   5.204  27.265  0.00  0.00    +0.000 A 
ATOM     27  C   UNL     1      41.319   5.410  28.091  0.00  0.00    +0.000 A 
BRANCH  22  28
ATOM     28  O   UNL     1      40.007   4.912  30.036  0.00  0.00    +0.000 OA
BRANCH  28  30
ATOM     29  C   UNL     1      38.072   6.126  30.820  0.00  0.00    +0.000 C 
ATOM     30  C   UNL     1      39.297   6.128  29.912  0.00  0.00    +0.000 C 
ENDBRANCH  28  30
ENDBRANCH  22  28
ENDBRANCH  21  25
ENDBRANCH  20  21
ENDBRANCH   1  20
TORSDOF 9
ENDMDL
MODEL 5
REMARK VINA RESULT:      -6.7     25.071     27.377
REMARK  Name = 
REMARK  9 active torsions:
REMARK  status: ('A' for Active; 'I' for Inactive)
REMARK    1  A    between atoms: C_2  and  O_3
REMARK    2  A    between atoms: O_3  and  C_4
REMARK    3  A    between atoms: C_7  and  O_8
REMARK    4  A    between atoms: O_8  and  C_9
REMARK    5  A    between atoms: C_9  and  C_10
REMARK    6  A    between atoms: C_14  and  C_15
REMARK    7  A    between atoms: N_17  and  N_18
REMARK    8  A    between atoms: C_19  and  C_20
REMARK    9  A    between atoms: C_23  and  O_24
REMARK                            x       y       z     vdW  Elec       q    Type
REMARK                         _______ _______ _______ _____ _____    ______ ____
ROOT
ATOM      1  C   UNL     1      37.614   3.943  15.735  0.00  0.00    +0.000 A 
ATOM      2  C   UNL     1      36.773   4.707  14.952  0.00  0.00    +0.000 A 
ATOM      3  C   UNL     1      35.591   4.253  14.437  0.00  0.00    +0.000 A 
ATOM      4  C   UNL     1      35.212   2.957  14.711  0.00  0.00    +0.000 A 
ATOM      5  C   UNL     1      36.026   2.169  15.486  0.00  0.00    +0.000 A 
ATOM      6  C   UNL     1      37.210   2.642  15.996  0.00  0.00    +0.000 A 
ENDROOT
BRANCH   5   7
ATOM      7  C   UNL     1      35.660   0.802  15.796  0.00  0.00    +0.000 C 
ATOM      8  O   UNL     1      34.722   0.587  16.607  0.00  0.00    +0.000 OA
ATOM      9  N   UNL     1      36.297  -0.328  15.238  0.00  0.00    +0.000 NA
BRANCH   9  10
ATOM     10  N   UNL     1      35.884  -1.618  15.588  0.00  0.00    +0.000 NA
ATOM     11  C   UNL     1      35.908  -2.616  14.804  0.00  0.00    +0.000 C 
BRANCH  11  12
ATOM     12  C   UNL     1      35.483  -3.957  15.151  0.00  0.00    +0.000 A 
ATOM     13  C   UNL     1      36.195  -4.749  16.020  0.00  0.00    +0.000 A 
ATOM     14  C   UNL     1      35.796  -6.028  16.354  0.00  0.00    +0.000 A 
ATOM     15  C   UNL     1      34.643  -6.552  15.809  0.00  0.00    +0.000 A 
ATOM     16  C   UNL     1      33.929  -5.758  14.938  0.00  0.00    +0.000 A 
ATOM     17  C   UNL     1      34.332  -4.468  14.600  0.00  0.00    +0.000 A 
BRANCH  15  18
ATOM     18  O   UNL     1      34.215  -7.854  16.134  0.00  0.00    +0.000 OA
ATOM     19  C   UNL     1      32.827  -8.050  16.319  0.00  0.00    +0.000 C 
ENDBRANCH  15  18
ENDBRANCH  11  12
ENDBRANCH   9  10
ENDBRANCH   5   7
BRANCH   1  20
ATOM     20  C   UNL     1      38.884   4.471  16.274  0.00  0.00    +0.000 C 
BRANCH  20  21
ATOM     21  O   UNL     1      38.931   4.518  17.674  0.00  0.00    +0.000 OA
BRANCH  21  25
ATOM     22  C   UNL     1      39.143   8.007  19.896  0.00  0.00    +0.000 A 
ATOM     23  C   UNL     1      40.050   7.014  20.115  0.00  0.00    +0.000 A 
ATOM     24  C   UNL     1      40.004   5.855  19.398  0.00  0.00    +0.000 A 
ATOM     25  C   UNL     1      39.032   5.669  18.434  0.00  0.00    +0.000 A 
ATOM     26  C   UNL     1      38.101   6.671  18.200  0.00  0.00    +0.000 A 
ATOM     27  C   UNL     1      38.183   7.823  18.945  0.00  0.00    +0.000 A 
BRANCH  22  28
ATOM     28  O   UNL     1      39.194   9.194  20.634  0.00  0.00    +0.000 OA
BRANCH  28  30
ATOM     29  C   UNL     1      40.524  10.702  19.297  0.00  0.00    +0.000 C 
ATOM     30  C   UNL     1      40.375   9.971  20.627  0.00  0.00    +0.000 C 
ENDBRANCH  28  30
ENDBRANCH  22  28
ENDBRANCH  21  25
ENDBRANCH  20  21
ENDBRANCH   1  20
TORSDOF 9
ENDMDL
MODEL 6
REMARK VINA RESULT:      -6.7     26.562     28.702
REMARK  Name = 
REMARK  9 active torsions:
REMARK  status: ('A' for Active; 'I' for Inactive)
REMARK    1  A    between atoms: C_2  and  O_3
REMARK    2  A    between atoms: O_3  and  C_4
REMARK    3  A    between atoms: C_7  and  O_8
REMARK    4  A    between atoms: O_8  and  C_9
REMARK    5  A    between atoms: C_9  and  C_10
REMARK    6  A    between atoms: C_14  and  C_15
REMARK    7  A    between atoms: N_17  and  N_18
REMARK    8  A    between atoms: C_19  and  C_20
REMARK    9  A    between atoms: C_23  and  O_24
REMARK                            x       y       z     vdW  Elec       q    Type
REMARK                         _______ _______ _______ _____ _____    ______ ____
ROOT
ATOM      1  C   UNL     1      37.800  -1.047  14.600  0.00  0.00    +0.000 A 
ATOM      2  C   UNL     1      37.386  -0.892  13.293  0.00  0.00    +0.000 A 
ATOM      3  C   UNL     1      36.904   0.281  12.781  0.00  0.00    +0.000 A 
ATOM      4  C   UNL     1      36.826   1.376  13.614  0.00  0.00    +0.000 A 
ATOM      5  C   UNL     1      37.230   1.256  14.921  0.00  0.00    +0.000 A 
ATOM      6  C   UNL     1      37.711   0.069  15.419  0.00  0.00    +0.000 A 
ENDROOT
BRANCH   5   7
ATOM      7  C   UNL     1      37.163   2.384  15.826  0.00  0.00    +0.000 C 
ATOM      8  O   UNL     1      36.076   2.639  16.408  0.00  0.00    +0.000 OA
ATOM      9  N   UNL     1      38.256   3.233  16.108  0.00  0.00    +0.000 NA
BRANCH   9  10
ATOM     10  N   UNL     1      38.110   4.303  16.997  0.00  0.00    +0.000 NA
ATOM     11  C   UNL     1      39.072   5.000  17.443  0.00  0.00    +0.000 C 
BRANCH  11  12
ATOM     12  C   UNL     1      38.937   6.110  18.365  0.00  0.00    +0.000 A 
ATOM     13  C   UNL     1      37.981   7.084  18.204  0.00  0.00    +0.000 A 
ATOM     14  C   UNL     1      37.848   8.145  19.078  0.00  0.00    +0.000 A 
ATOM     15  C   UNL     1      38.695   8.253  20.161  0.00  0.00    +0.000 A 
ATOM     16  C   UNL     1      39.654   7.276  20.322  0.00  0.00    +0.000 A 
ATOM     17  C   UNL     1      39.788   6.206  19.440  0.00  0.00    +0.000 A 
BRANCH  15  18
ATOM     18  O   UNL     1      38.580   9.325  21.066  0.00  0.00    +0.000 OA
ATOM     19  C   UNL     1      39.540  10.359  20.968  0.00  0.00    +0.000 C 
ENDBRANCH  15  18
ENDBRANCH  11  12
ENDBRANCH   9  10
ENDBRANCH   5   7
BRANCH   1  20
ATOM     20  C   UNL     1      38.315  -2.333  15.116  0.00  0.00    +0.000 C 
BRANCH  20  21
ATOM     21  O   UNL     1      39.676  -2.308  15.446  0.00  0.00    +0.000 OA
BRANCH  21  25
ATOM     22  C   UNL     1      42.826  -1.928  12.784  0.00  0.00    +0.000 A 
ATOM     23  C   UNL     1      42.061  -3.057  12.764  0.00  0.00    +0.000 A 
ATOM     24  C   UNL     1      41.018  -3.208  13.629  0.00  0.00    +0.000 A 
ATOM     25  C   UNL     1      40.719  -2.216  14.543  0.00  0.00    +0.000 A 
ATOM     26  C   UNL     1      41.489  -1.062  14.575  0.00  0.00    +0.000 A 
ATOM     27  C   UNL     1      42.531  -0.950  13.686  0.00  0.00    +0.000 A 
BRANCH  22  28
ATOM     28  O   UNL     1      43.895  -1.778  11.895  0.00  0.00    +0.000 OA
BRANCH  28  30
ATOM     29  C   UNL     1      45.646  -3.157  12.826  0.00  0.00    +0.000 C 
ATOM     30  C   UNL     1      44.742  -2.878  11.629  0.00  0.00    +0.000 C 
ENDBRANCH  28  30
ENDBRANCH  22  28
ENDBRANCH  21  25
ENDBRANCH  20  21
ENDBRANCH   1  20
TORSDOF 9
ENDMDL
MODEL 7
REMARK VINA RESULT:      -6.6     24.776     27.993
REMARK  Name = 
REMARK  9 active torsions:
REMARK  status: ('A' for Active; 'I' for Inactive)
REMARK    1  A    between atoms: C_2  and  O_3
REMARK    2  A    between atoms: O_3  and  C_4
REMARK    3  A    between atoms: C_7  and  O_8
REMARK    4  A    between atoms: O_8  and  C_9
REMARK    5  A    between atoms: C_9  and  C_10
REMARK    6  A    between atoms: C_14  and  C_15
REMARK    7  A    between atoms: N_17  and  N_18
REMARK    8  A    between atoms: C_19  and  C_20
REMARK    9  A    between atoms: C_23  and  O_24
REMARK                            x       y       z     vdW  Elec       q    Type
REMARK                         _______ _______ _______ _____ _____    ______ ____
ROOT
ATOM      1  C   UNL     1      36.367  -2.013  15.135  0.00  0.00    +0.000 A 
ATOM      2  C   UNL     1      35.260  -2.662  15.644  0.00  0.00    +0.000 A 
ATOM      3  C   UNL     1      34.523  -2.197  16.698  0.00  0.00    +0.000 A 
ATOM      4  C   UNL     1      34.902  -1.012  17.290  0.00  0.00    +0.000 A 
ATOM      5  C   UNL     1      35.999  -0.341  16.808  0.00  0.00    +0.000 A 
ATOM      6  C   UNL     1      36.729  -0.823  15.748  0.00  0.00    +0.000 A 
ENDROOT
BRANCH   5   7
ATOM      7  C   UNL     1      36.428   0.908  17.405  0.00  0.00    +0.000 C 
ATOM      8  O   UNL     1      36.537   0.983  18.656  0.00  0.00    +0.000 OA
ATOM      9  N   UNL     1      36.741   2.067  16.662  0.00  0.00    +0.000 NA
BRANCH   9  10
ATOM     10  N   UNL     1      37.150   3.235  17.313  0.00  0.00    +0.000 NA
ATOM     11  C   UNL     1      37.994   4.059  16.845  0.00  0.00    +0.000 C 
BRANCH  11  12
ATOM     12  C   UNL     1      38.429   5.272  17.508  0.00  0.00    +0.000 A 
ATOM     13  C   UNL     1      39.095   5.252  18.710  0.00  0.00    +0.000 A 
ATOM     14  C   UNL     1      39.511   6.404  19.347  0.00  0.00    +0.000 A 
ATOM     15  C   UNL     1      39.259   7.634  18.776  0.00  0.00    +0.000 A 
ATOM     16  C   UNL     1      38.591   7.654  17.571  0.00  0.00    +0.000 A 
ATOM     17  C   UNL     1      38.171   6.492  16.928  0.00  0.00    +0.000 A 
BRANCH  15  18
ATOM     18  O   UNL     1      39.673   8.823  19.406  0.00  0.00    +0.000 OA
ATOM     19  C   UNL     1      41.041   8.931  19.748  0.00  0.00    +0.000 C 
ENDBRANCH  15  18
ENDBRANCH  11  12
ENDBRANCH   9  10
ENDBRANCH   5   7
BRANCH   1  20
ATOM     20  C   UNL     1      37.137  -2.549  13.994  0.00  0.00    +0.000 C 
BRANCH  20  21
ATOM     21  O   UNL     1      38.398  -1.959  13.833  0.00  0.00    +0.000 OA
BRANCH  21  25
ATOM     22  C   UNL     1      40.268  -1.212  10.213  0.00  0.00    +0.000 A 
ATOM     23  C   UNL     1      40.358  -2.451  10.773  0.00  0.00    +0.000 A 
ATOM     24  C   UNL     1      39.752  -2.725  11.964  0.00  0.00    +0.000 A 
ATOM     25  C   UNL     1      39.035  -1.745  12.623  0.00  0.00    +0.000 A 
ATOM     26  C   UNL     1      38.935  -0.479  12.066  0.00  0.00    +0.000 A 
ATOM     27  C   UNL     1      39.561  -0.245  10.864  0.00  0.00    +0.000 A 
BRANCH  22  28
ATOM     28  O   UNL     1      40.892  -0.936   8.992  0.00  0.00    +0.000 OA
BRANCH  28  30
ATOM     29  C   UNL     1      41.099  -0.887   6.587  0.00  0.00    +0.000 C 
ATOM     30  C   UNL     1      40.292  -1.369   7.788  0.00  0.00    +0.000 C 
ENDBRANCH  28  30
ENDBRANCH  22  28
ENDBRANCH  21  25
ENDBRANCH  20  21
ENDBRANCH   1  20
TORSDOF 9
ENDMDL
MODEL 8
REMARK VINA RESULT:      -6.6     26.570     28.034
REMARK  Name = 
REMARK  9 active torsions:
REMARK  status: ('A' for Active; 'I' for Inactive)
REMARK    1  A    between atoms: C_2  and  O_3
REMARK    2  A    between atoms: O_3  and  C_4
REMARK    3  A    between atoms: C_7  and  O_8
REMARK    4  A    between atoms: O_8  and  C_9
REMARK    5  A    between atoms: C_9  and  C_10
REMARK    6  A    between atoms: C_14  and  C_15
REMARK    7  A    between atoms: N_17  and  N_18
REMARK    8  A    between atoms: C_19  and  C_20
REMARK    9  A    between atoms: C_23  and  O_24
REMARK                            x       y       z     vdW  Elec       q    Type
REMARK                         _______ _______ _______ _____ _____    ______ ____
ROOT
ATOM      1  C   UNL     1      37.285   1.036  12.293  0.00  0.00    +0.000 A 
ATOM      2  C   UNL     1      37.125  -0.265  12.726  0.00  0.00    +0.000 A 
ATOM      3  C   UNL     1      36.940  -0.614  14.035  0.00  0.00    +0.000 A 
ATOM      4  C   UNL     1      36.911   0.386  14.982  0.00  0.00    +0.000 A 
ATOM      5  C   UNL     1      37.067   1.691  14.585  0.00  0.00    +0.000 A 
ATOM      6  C   UNL     1      37.252   2.025  13.265  0.00  0.00    +0.000 A 
ENDROOT
BRANCH   5   7
ATOM      7  C   UNL     1      37.042   2.770  15.552  0.00  0.00    +0.000 C 
ATOM      8  O   UNL     1      35.956   3.364  15.778  0.00  0.00    +0.000 OA
ATOM      9  N   UNL     1      38.175   3.208  16.272  0.00  0.00    +0.000 NA
BRANCH   9  10
ATOM     10  N   UNL     1      38.068   4.257  17.190  0.00  0.00    +0.000 NA
ATOM     11  C   UNL     1      38.986   5.103  17.424  0.00  0.00    +0.000 C 
BRANCH  11  12
ATOM     12  C   UNL     1      38.890   6.194  18.372  0.00  0.00    +0.000 A 
ATOM     13  C   UNL     1      37.953   7.192  18.248  0.00  0.00    +0.000 A 
ATOM     14  C   UNL     1      37.857   8.235  19.148  0.00  0.00    +0.000 A 
ATOM     15  C   UNL     1      38.723   8.300  20.218  0.00  0.00    +0.000 A 
ATOM     16  C   UNL     1      39.663   7.300  20.342  0.00  0.00    +0.000 A 
ATOM     17  C   UNL     1      39.760   6.248  19.434  0.00  0.00    +0.000 A 
BRANCH  15  18
ATOM     18  O   UNL     1      38.646   9.354  21.149  0.00  0.00    +0.000 OA
ATOM     19  C   UNL     1      39.598  10.393  21.028  0.00  0.00    +0.000 C 
ENDBRANCH  15  18
ENDBRANCH  11  12
ENDBRANCH   9  10
ENDBRANCH   5   7
BRANCH   1  20
ATOM     20  C   UNL     1      37.482   1.373  10.868  0.00  0.00    +0.000 C 
BRANCH  20  21
ATOM     21  O   UNL     1      37.605   2.746  10.621  0.00  0.00    +0.000 OA
BRANCH  21  25
ATOM     22  C   UNL     1      35.311   4.826   7.870  0.00  0.00    +0.000 A 
ATOM     23  C   UNL     1      35.745   5.457   8.997  0.00  0.00    +0.000 A 
ATOM     24  C   UNL     1      36.502   4.797   9.920  0.00  0.00    +0.000 A 
ATOM     25  C   UNL     1      36.841   3.472   9.725  0.00  0.00    +0.000 A 
ATOM     26  C   UNL     1      36.406   2.816   8.582  0.00  0.00    +0.000 A 
ATOM     27  C   UNL     1      35.645   3.518   7.678  0.00  0.00    +0.000 A 
BRANCH  22  28
ATOM     28  O   UNL     1      34.534   5.507   6.927  0.00  0.00    +0.000 OA
BRANCH  28  30
ATOM     29  C   UNL     1      33.097   7.277   6.131  0.00  0.00    +0.000 C 
ATOM     30  C   UNL     1      33.729   6.594   7.339  0.00  0.00    +0.000 C 
ENDBRANCH  28  30
ENDBRANCH  22  28
ENDBRANCH  21  25
ENDBRANCH  20  21
ENDBRANCH   1  20
TORSDOF 9
ENDMDL
MODEL 9
REMARK VINA RESULT:      -6.6     25.402     28.078
REMARK  Name = 
REMARK  9 active torsions:
REMARK  status: ('A' for Active; 'I' for Inactive)
REMARK    1  A    between atoms: C_2  and  O_3
REMARK    2  A    between atoms: O_3  and  C_4
REMARK    3  A    between atoms: C_7  and  O_8
REMARK    4  A    between atoms: O_8  and  C_9
REMARK    5  A    between atoms: C_9  and  C_10
REMARK    6  A    between atoms: C_14  and  C_15
REMARK    7  A    between atoms: N_17  and  N_18
REMARK    8  A    between atoms: C_19  and  C_20
REMARK    9  A    between atoms: C_23  and  O_24
REMARK                            x       y       z     vdW  Elec       q    Type
REMARK                         _______ _______ _______ _____ _____    ______ ____
ROOT
ATOM      1  C   UNL     1      39.372   0.968  12.275  0.00  0.00    +0.000 A 
ATOM      2  C   UNL     1      38.565   1.022  11.158  0.00  0.00    +0.000 A 
ATOM      3  C   UNL     1      37.630   1.995  10.941  0.00  0.00    +0.000 A 
ATOM      4  C   UNL     1      37.480   2.983  11.890  0.00  0.00    +0.000 A 
ATOM      5  C   UNL     1      38.268   2.959  13.014  0.00  0.00    +0.000 A 
ATOM      6  C   UNL     1      39.203   1.973  13.216  0.00  0.00    +0.000 A 
ENDROOT
BRANCH   5   7
ATOM      7  C   UNL     1      38.140   3.981  14.033  0.00  0.00    +0.000 C 
ATOM      8  O   UNL     1      37.369   4.954  13.831  0.00  0.00    +0.000 OA
ATOM      9  N   UNL     1      38.834   3.956  15.263  0.00  0.00    +0.000 NA
BRANCH   9  10
ATOM     10  N   UNL     1      38.655   4.981  16.197  0.00  0.00    +0.000 NA
ATOM     11  C   UNL     1      39.251   5.044  17.316  0.00  0.00    +0.000 C 
BRANCH  11  12
ATOM     12  C   UNL     1      39.075   6.098  18.294  0.00  0.00    +0.000 A 
ATOM     13  C   UNL     1      39.867   6.199  19.413  0.00  0.00    +0.000 A 
ATOM     14  C   UNL     1      39.704   7.201  20.349  0.00  0.00    +0.000 A 
ATOM     15  C   UNL     1      38.716   8.147  20.177  0.00  0.00    +0.000 A 
ATOM     16  C   UNL     1      37.922   8.046  19.055  0.00  0.00    +0.000 A 
ATOM     17  C   UNL     1      38.087   7.035  18.112  0.00  0.00    +0.000 A 
BRANCH  15  18
ATOM     18  O   UNL     1      38.530   9.178  21.118  0.00  0.00    +0.000 OA
ATOM     19  C   UNL     1      39.022  10.460  20.777  0.00  0.00    +0.000 C 
ENDBRANCH  15  18
ENDBRANCH  11  12
ENDBRANCH   9  10
ENDBRANCH   5   7
BRANCH   1  20
ATOM     20  C   UNL     1      40.372  -0.102  12.474  0.00  0.00    +0.000 C 
BRANCH  20  21
ATOM     21  O   UNL     1      39.821  -1.332  12.855  0.00  0.00    +0.000 OA
BRANCH  21  25
ATOM     22  C   UNL     1      37.413  -1.994  16.160  0.00  0.00    +0.000 A 
ATOM     23  C   UNL     1      38.745  -1.768  16.334  0.00  0.00    +0.000 A 
ATOM     24  C   UNL     1      39.562  -1.547  15.264  0.00  0.00    +0.000 A 
ATOM     25  C   UNL     1      39.047  -1.549  13.981  0.00  0.00    +0.000 A 
ATOM     26  C   UNL     1      37.692  -1.778  13.789  0.00  0.00    +0.000 A 
ATOM     27  C   UNL     1      36.906  -1.997  14.894  0.00  0.00    +0.000 A 
BRANCH  22  28
ATOM     28  O   UNL     1      36.580  -2.222  17.260  0.00  0.00    +0.000 OA
BRANCH  28  30
ATOM     29  C   UNL     1      36.174  -0.496  18.901  0.00  0.00    +0.000 C 
ATOM     30  C   UNL     1      36.964  -1.749  18.536  0.00  0.00    +0.000 C 
ENDBRANCH  28  30
ENDBRANCH  22  28
ENDBRANCH  21  25
ENDBRANCH  20  21
ENDBRANCH   1  20
TORSDOF 9
ENDMDL
MODEL 10
REMARK VINA RESULT:      -6.5     20.184     23.976
REMARK  Name = 
REMARK  9 active torsions:
REMARK  status: ('A' for Active; 'I' for Inactive)
REMARK    1  A    between atoms: C_2  and  O_3
REMARK    2  A    between atoms: O_3  and  C_4
REMARK    3  A    between atoms: C_7  and  O_8
REMARK    4  A    between atoms: O_8  and  C_9
REMARK    5  A    between atoms: C_9  and  C_10
REMARK    6  A    between atoms: C_14  and  C_15
REMARK    7  A    between atoms: N_17  and  N_18
REMARK    8  A    between atoms: C_19  and  C_20
REMARK    9  A    between atoms: C_23  and  O_24
REMARK                            x       y       z     vdW  Elec       q    Type
REMARK                         _______ _______ _______ _____ _____    ______ ____
ROOT
ATOM      1  C   UNL     1      23.055  18.272  20.529  0.00  0.00    +0.000 A 
ATOM      2  C   UNL     1      22.818  19.468  21.176  0.00  0.00    +0.000 A 
ATOM      3  C   UNL     1      23.743  20.111  21.950  0.00  0.00    +0.000 A 
ATOM      4  C   UNL     1      24.987  19.537  22.097  0.00  0.00    +0.000 A 
ATOM      5  C   UNL     1      25.256  18.347  21.468  0.00  0.00    +0.000 A 
ATOM      6  C   UNL     1      24.314  17.714  20.693  0.00  0.00    +0.000 A 
ENDROOT
BRANCH   5   7
ATOM      7  C   UNL     1      26.552  17.712  21.598  0.00  0.00    +0.000 C 
ATOM      8  O   UNL     1      26.620  16.456  21.613  0.00  0.00    +0.000 OA
ATOM      9  N   UNL     1      27.767  18.422  21.711  0.00  0.00    +0.000 NA
BRANCH   9  10
ATOM     10  N   UNL     1      28.979  17.735  21.833  0.00  0.00    +0.000 NA
ATOM     11  C   UNL     1      30.025  18.216  22.368  0.00  0.00    +0.000 C 
BRANCH  11  12
ATOM     12  C   UNL     1      31.288  17.517  22.500  0.00  0.00    +0.000 A 
ATOM     13  C   UNL     1      31.769  17.098  23.718  0.00  0.00    +0.000 A 
ATOM     14  C   UNL     1      32.972  16.433  23.851  0.00  0.00    +0.000 A 
ATOM     15  C   UNL     1      33.737  16.167  22.735  0.00  0.00    +0.000 A 
ATOM     16  C   UNL     1      33.254  16.587  21.514  0.00  0.00    +0.000 A 
ATOM     17  C   UNL     1      32.041  17.259  21.380  0.00  0.00    +0.000 A 
BRANCH  15  18
ATOM     18  O   UNL     1      34.967  15.490  22.845  0.00  0.00    +0.000 OA
ATOM     19  C   UNL     1      35.689  15.656  24.049  0.00  0.00    +0.000 C 
ENDBRANCH  15  18
ENDBRANCH  11  12
ENDBRANCH   9  10
ENDBRANCH   5   7
BRANCH   1  20
ATOM     20  C   UNL     1      22.028  17.608  19.700  0.00  0.00    +0.000 C 
BRANCH  20  21
ATOM     21  O   UNL     1      20.795  18.273  19.682  0.00  0.00    +0.000 OA
BRANCH  21  25
ATOM     22  C   UNL     1      19.043  19.886  16.293  0.00  0.00    +0.000 A 
ATOM     23  C   UNL     1      18.366  18.952  17.019  0.00  0.00    +0.000 A 
ATOM     24  C   UNL     1      18.919  18.404  18.140  0.00  0.00    +0.000 A 
ATOM     25  C   UNL     1      20.179  18.790  18.556  0.00  0.00    +0.000 A 
ATOM     26  C   UNL     1      20.880  19.739  17.826  0.00  0.00    +0.000 A 
ATOM     27  C   UNL     1      20.286  20.265  16.703  0.00  0.00    +0.000 A 
BRANCH  22  28
ATOM     28  O   UNL     1      18.472  20.444  15.144  0.00  0.00    +0.000 OA
BRANCH  28  30
ATOM     29  C   UNL     1      19.350  21.857  13.393  0.00  0.00    +0.000 C 
ATOM     30  C   UNL     1      19.197  20.437  13.930  0.00  0.00    +0.000 C 
ENDBRANCH  28  30
ENDBRANCH  22  28
ENDBRANCH  21  25
ENDBRANCH  20  21
ENDBRANCH   1  20
TORSDOF 9
ENDMDL
