MODEL 1
REMARK VINA RESULT:      -7.0      0.000      0.000
REMARK  Name = 
REMARK  2 active torsions:
REMARK  status: ('A' for Active; 'I' for Inactive)
REMARK    1  A    between atoms: C_4  and  C_5
REMARK    2  A    between atoms: C_5  and  C_6
REMARK                            x       y       z     vdW  Elec       q    Type
REMARK                         _______ _______ _______ _____ _____    ______ ____
ROOT
ATOM      1  N   UNL     1      29.663  24.974  20.512  0.00  0.00    +0.000 NA
ATOM      2  C   UNL     1      29.198  24.607  21.811  0.00  0.00    +0.000 A 
ATOM      3  N   UNL     1      29.935  23.787  22.585  0.00  0.00    +0.000 NA
ATOM      4  C   UNL     1      29.593  23.387  23.803  0.00  0.00    +0.000 A 
ATOM      5  C   UNL     1      28.374  23.858  24.310  0.00  0.00    +0.000 A 
ATOM      6  C   UNL     1      27.604  24.702  23.527  0.00  0.00    +0.000 A 
ATOM      7  N   UNL     1      28.021  25.068  22.289  0.00  0.00    +0.000 NA
ATOM      8  N   UNL     1      26.353  25.247  23.922  0.00  0.00    +0.000 NA
ATOM      9  C   UNL     1      25.323  24.641  24.783  0.00  0.00    +0.000 C 
ATOM     10  C   UNL     1      25.660  23.181  24.974  0.00  0.00    +0.000 C 
ATOM     11  C   UNL     1      26.733  22.897  25.953  0.00  0.00    +0.000 C 
ATOM     12  C   UNL     1      28.098  23.359  25.649  0.00  0.00    +0.000 C 
ENDROOT
BRANCH   4  13
ATOM     13  C   UNL     1      30.410  22.495  24.656  0.00  0.00    +0.000 C 
BRANCH  13  14
ATOM     14  C   UNL     1      31.447  23.330  25.301  0.00  0.00    +0.000 A 
ATOM     15  C   UNL     1      32.224  24.157  24.561  0.00  0.00    +0.000 A 
ATOM     16  C   UNL     1      33.201  24.951  25.130  0.00  0.00    +0.000 A 
ATOM     17  C   UNL     1      33.351  24.860  26.500  0.00  0.00    +0.000 A 
ATOM     18  C   UNL     1      32.569  24.028  27.244  0.00  0.00    +0.000 A 
ATOM     19  C   UNL     1      31.584  23.229  26.664  0.00  0.00    +0.000 A 
ATOM     20 CL   UNL     1      30.572  22.159  27.607  0.00  0.00    +0.000 Cl
ENDBRANCH  13  14
ENDBRANCH   4  13
TORSDOF 2
ENDMDL
MODEL 2
REMARK VINA RESULT:      -6.5      2.729      3.816
REMARK  Name = 
REMARK  2 active torsions:
REMARK  status: ('A' for Active; 'I' for Inactive)
REMARK    1  A    between atoms: C_4  and  C_5
REMARK    2  A    between atoms: C_5  and  C_6
REMARK                            x       y       z     vdW  Elec       q    Type
REMARK                         _______ _______ _______ _____ _____    ______ ____
ROOT
ATOM      1  N   UNL     1      25.552  23.052  24.264  0.00  0.00    +0.000 NA
ATOM      2  C   UNL     1      26.259  23.108  25.503  0.00  0.00    +0.000 A 
ATOM      3  N   UNL     1      27.468  22.526  25.618  0.00  0.00    +0.000 NA
ATOM      4  C   UNL     1      28.203  22.522  26.723  0.00  0.00    +0.000 A 
ATOM      5  C   UNL     1      27.673  23.173  27.844  0.00  0.00    +0.000 A 
ATOM      6  C   UNL     1      26.431  23.778  27.743  0.00  0.00    +0.000 A 
ATOM      7  N   UNL     1      25.737  23.740  26.578  0.00  0.00    +0.000 NA
ATOM      8  N   UNL     1      25.784  24.468  28.802  0.00  0.00    +0.000 NA
ATOM      9  C   UNL     1      25.848  24.191  30.247  0.00  0.00    +0.000 C 
ATOM     10  C   UNL     1      26.496  22.841  30.445  0.00  0.00    +0.000 C 
ATOM     11  C   UNL     1      27.969  22.816  30.314  0.00  0.00    +0.000 C 
ATOM     12  C   UNL     1      28.559  23.108  28.997  0.00  0.00    +0.000 C 
ENDROOT
BRANCH   4  13
ATOM     13  C   UNL     1      29.536  21.889  26.843  0.00  0.00    +0.000 C 
BRANCH  13  14
ATOM     14  C   UNL     1      30.500  22.754  26.126  0.00  0.00    +0.000 A 
ATOM     15  C   UNL     1      30.316  23.053  24.817  0.00  0.00    +0.000 A 
ATOM     16  C   UNL     1      31.194  23.857  24.117  0.00  0.00    +0.000 A 
ATOM     17  C   UNL     1      32.280  24.345  24.820  0.00  0.00    +0.000 A 
ATOM     18  C   UNL     1      32.464  24.043  26.135  0.00  0.00    +0.000 A 
ATOM     19  C   UNL     1      31.574  23.231  26.837  0.00  0.00    +0.000 A 
ATOM     20 CL   UNL     1      31.797  22.840  28.527  0.00  0.00    +0.000 Cl
ENDBRANCH  13  14
ENDBRANCH   4  13
TORSDOF 2
ENDMDL
MODEL 3
REMARK VINA RESULT:      -6.5     32.344     33.815
REMARK  Name = 
REMARK  2 active torsions:
REMARK  status: ('A' for Active; 'I' for Inactive)
REMARK    1  A    between atoms: C_4  and  C_5
REMARK    2  A    between atoms: C_5  and  C_6
REMARK                            x       y       z     vdW  Elec       q    Type
REMARK                         _______ _______ _______ _____ _____    ______ ____
ROOT
ATOM      1  N   UNL     1      17.968 -10.134  22.261  0.00  0.00    +0.000 NA
ATOM      2  C   UNL     1      19.240  -9.816  22.825  0.00  0.00    +0.000 A 
ATOM      3  N   UNL     1      19.336  -9.471  24.124  0.00  0.00    +0.000 NA
ATOM      4  C   UNL     1      20.468  -9.158  24.741  0.00  0.00    +0.000 A 
ATOM      5  C   UNL     1      21.642  -9.191  23.977  0.00  0.00    +0.000 A 
ATOM      6  C   UNL     1      21.561  -9.543  22.640  0.00  0.00    +0.000 A 
ATOM      7  N   UNL     1      20.366  -9.851  22.077  0.00  0.00    +0.000 NA
ATOM      8  N   UNL     1      22.672  -9.615  21.758  0.00  0.00    +0.000 NA
ATOM      9  C   UNL     1      23.896  -8.794  21.762  0.00  0.00    +0.000 C 
ATOM     10  C   UNL     1      23.683  -7.625  22.694  0.00  0.00    +0.000 C 
ATOM     11  C   UNL     1      23.809  -7.929  24.136  0.00  0.00    +0.000 C 
ATOM     12  C   UNL     1      22.821  -8.832  24.750  0.00  0.00    +0.000 C 
ENDROOT
BRANCH   4  13
ATOM     13  C   UNL     1      20.572  -8.791  26.171  0.00  0.00    +0.000 C 
BRANCH  13  14
ATOM     14  C   UNL     1      19.794  -7.546  26.364  0.00  0.00    +0.000 A 
ATOM     15  C   UNL     1      20.221  -6.378  25.826  0.00  0.00    +0.000 A 
ATOM     16  C   UNL     1      19.520  -5.198  25.984  0.00  0.00    +0.000 A 
ATOM     17  C   UNL     1      18.356  -5.265  26.725  0.00  0.00    +0.000 A 
ATOM     18  C   UNL     1      17.928  -6.440  27.265  0.00  0.00    +0.000 A 
ATOM     19  C   UNL     1      18.639  -7.628  27.101  0.00  0.00    +0.000 A 
ATOM     20 CL   UNL     1      18.099  -9.144  27.787  0.00  0.00    +0.000 Cl
ENDBRANCH  13  14
ENDBRANCH   4  13
TORSDOF 2
ENDMDL
MODEL 4
REMARK VINA RESULT:      -6.5      1.998      5.056
REMARK  Name = 
REMARK  2 active torsions:
REMARK  status: ('A' for Active; 'I' for Inactive)
REMARK    1  A    between atoms: C_4  and  C_5
REMARK    2  A    between atoms: C_5  and  C_6
REMARK                            x       y       z     vdW  Elec       q    Type
REMARK                         _______ _______ _______ _____ _____    ______ ____
ROOT
ATOM      1  N   UNL     1      27.911  23.431  22.226  0.00  0.00    +0.000 NA
ATOM      2  C   UNL     1      28.704  23.264  23.401  0.00  0.00    +0.000 A 
ATOM      3  N   UNL     1      28.143  22.796  24.533  0.00  0.00    +0.000 NA
ATOM      4  C   UNL     1      28.792  22.606  25.675  0.00  0.00    +0.000 A 
ATOM      5  C   UNL     1      30.157  22.918  25.693  0.00  0.00    +0.000 A 
ATOM      6  C   UNL     1      30.749  23.400  24.538  0.00  0.00    +0.000 A 
ATOM      7  N   UNL     1      30.021  23.568  23.406  0.00  0.00    +0.000 NA
ATOM      8  N   UNL     1      32.121  23.753  24.423  0.00  0.00    +0.000 NA
ATOM      9  C   UNL     1      33.007  24.320  25.454  0.00  0.00    +0.000 C 
ATOM     10  C   UNL     1      32.159  24.760  26.623  0.00  0.00    +0.000 C 
ATOM     11  C   UNL     1      31.702  23.679  27.523  0.00  0.00    +0.000 C 
ATOM     12  C   UNL     1      30.768  22.673  26.991  0.00  0.00    +0.000 C 
ENDROOT
BRANCH   4  13
ATOM     13  C   UNL     1      28.175  22.082  26.915  0.00  0.00    +0.000 C 
BRANCH  13  14
ATOM     14  C   UNL     1      27.190  23.085  27.375  0.00  0.00    +0.000 A 
ATOM     15  C   UNL     1      26.255  23.574  26.524  0.00  0.00    +0.000 A 
ATOM     16  C   UNL     1      25.320  24.510  26.919  0.00  0.00    +0.000 A 
ATOM     17  C   UNL     1      25.384  24.930  28.235  0.00  0.00    +0.000 A 
ATOM     18  C   UNL     1      26.323  24.439  29.089  0.00  0.00    +0.000 A 
ATOM     19  C   UNL     1      27.265  23.493  28.685  0.00  0.00    +0.000 A 
ATOM     20 CL   UNL     1      28.474  22.852  29.773  0.00  0.00    +0.000 Cl
ENDBRANCH  13  14
ENDBRANCH   4  13
TORSDOF 2
ENDMDL
MODEL 5
REMARK VINA RESULT:      -6.3     21.100     22.458
REMARK  Name = 
REMARK  2 active torsions:
REMARK  status: ('A' for Active; 'I' for Inactive)
REMARK    1  A    between atoms: C_4  and  C_5
REMARK    2  A    between atoms: C_5  and  C_6
REMARK                            x       y       z     vdW  Elec       q    Type
REMARK                         _______ _______ _______ _____ _____    ______ ____
ROOT
ATOM      1  N   UNL     1      24.515   4.581  13.383  0.00  0.00    +0.000 NA
ATOM      2  C   UNL     1      25.146   4.677  14.660  0.00  0.00    +0.000 A 
ATOM      3  N   UNL     1      24.536   4.182  15.754  0.00  0.00    +0.000 NA
ATOM      4  C   UNL     1      25.036   4.222  16.982  0.00  0.00    +0.000 A 
ATOM      5  C   UNL     1      26.291   4.825  17.140  0.00  0.00    +0.000 A 
ATOM      6  C   UNL     1      26.932   5.339  16.026  0.00  0.00    +0.000 A 
ATOM      7  N   UNL     1      26.357   5.261  14.800  0.00  0.00    +0.000 NA
ATOM      8  N   UNL     1      28.203   5.974  16.050  0.00  0.00    +0.000 NA
ATOM      9  C   UNL     1      28.794   6.794  17.121  0.00  0.00    +0.000 C 
ATOM     10  C   UNL     1      27.712   7.122  18.123  0.00  0.00    +0.000 C 
ATOM     11  C   UNL     1      27.363   6.036  19.064  0.00  0.00    +0.000 C 
ATOM     12  C   UNL     1      26.744   4.814  18.523  0.00  0.00    +0.000 C 
ENDROOT
BRANCH   4  13
ATOM     13  C   UNL     1      24.368   3.667  18.181  0.00  0.00    +0.000 C 
BRANCH  13  14
ATOM     14  C   UNL     1      24.089   2.239  17.909  0.00  0.00    +0.000 A 
ATOM     15  C   UNL     1      25.105   1.355  17.762  0.00  0.00    +0.000 A 
ATOM     16  C   UNL     1      24.881   0.016  17.509  0.00  0.00    +0.000 A 
ATOM     17  C   UNL     1      23.562  -0.383  17.409  0.00  0.00    +0.000 A 
ATOM     18  C   UNL     1      22.542   0.506  17.557  0.00  0.00    +0.000 A 
ATOM     19  C   UNL     1      22.773   1.858  17.814  0.00  0.00    +0.000 A 
ATOM     20 CL   UNL     1      21.471   3.009  18.009  0.00  0.00    +0.000 Cl
ENDBRANCH  13  14
ENDBRANCH   4  13
TORSDOF 2
ENDMDL
MODEL 6
REMARK VINA RESULT:      -6.3      3.703      5.298
REMARK  Name = 
REMARK  2 active torsions:
REMARK  status: ('A' for Active; 'I' for Inactive)
REMARK    1  A    between atoms: C_4  and  C_5
REMARK    2  A    between atoms: C_5  and  C_6
REMARK                            x       y       z     vdW  Elec       q    Type
REMARK                         _______ _______ _______ _____ _____    ______ ____
ROOT
ATOM      1  N   UNL     1      26.182  23.580  30.725  0.00  0.00    +0.000 NA
ATOM      2  C   UNL     1      25.941  24.009  29.385  0.00  0.00    +0.000 A 
ATOM      3  N   UNL     1      26.352  23.252  28.350  0.00  0.00    +0.000 NA
ATOM      4  C   UNL     1      26.177  23.561  27.071  0.00  0.00    +0.000 A 
ATOM      5  C   UNL     1      25.516  24.764  26.790  0.00  0.00    +0.000 A 
ATOM      6  C   UNL     1      25.086  25.554  27.843  0.00  0.00    +0.000 A 
ATOM      7  N   UNL     1      25.301  25.171  29.127  0.00  0.00    +0.000 NA
ATOM      8  N   UNL     1      24.406  26.792  27.695  0.00  0.00    +0.000 NA
ATOM      9  C   UNL     1      24.562  27.798  26.631  0.00  0.00    +0.000 C 
ATOM     10  C   UNL     1      25.797  27.459  25.832  0.00  0.00    +0.000 C 
ATOM     11  C   UNL     1      25.643  26.360  24.853  0.00  0.00    +0.000 C 
ATOM     12  C   UNL     1      25.379  25.004  25.361  0.00  0.00    +0.000 C 
ENDROOT
BRANCH   4  13
ATOM     13  C   UNL     1      26.622  22.722  25.935  0.00  0.00    +0.000 C 
BRANCH  13  14
ATOM     14  C   UNL     1      28.101  22.682  25.969  0.00  0.00    +0.000 A 
ATOM     15  C   UNL     1      28.754  22.320  27.100  0.00  0.00    +0.000 A 
ATOM     16  C   UNL     1      30.133  22.270  27.167  0.00  0.00    +0.000 A 
ATOM     17  C   UNL     1      30.821  22.612  26.019  0.00  0.00    +0.000 A 
ATOM     18  C   UNL     1      30.164  22.976  24.883  0.00  0.00    +0.000 A 
ATOM     19  C   UNL     1      28.771  23.024  24.820  0.00  0.00    +0.000 A 
ATOM     20 CL   UNL     1      27.915  23.487  23.367  0.00  0.00    +0.000 Cl
ENDBRANCH  13  14
ENDBRANCH   4  13
TORSDOF 2
ENDMDL
MODEL 7
REMARK VINA RESULT:      -6.3      2.689      4.366
REMARK  Name = 
REMARK  2 active torsions:
REMARK  status: ('A' for Active; 'I' for Inactive)
REMARK    1  A    between atoms: C_4  and  C_5
REMARK    2  A    between atoms: C_5  and  C_6
REMARK                            x       y       z     vdW  Elec       q    Type
REMARK                         _______ _______ _______ _____ _____    ______ ____
ROOT
ATOM      1  N   UNL     1      25.136  22.751  22.476  0.00  0.00    +0.000 NA
ATOM      2  C   UNL     1      26.063  23.121  23.497  0.00  0.00    +0.000 A 
ATOM      3  N   UNL     1      27.317  23.488  23.169  0.00  0.00    +0.000 NA
ATOM      4  C   UNL     1      28.251  23.848  24.040  0.00  0.00    +0.000 A 
ATOM      5  C   UNL     1      27.896  23.841  25.396  0.00  0.00    +0.000 A 
ATOM      6  C   UNL     1      26.611  23.466  25.750  0.00  0.00    +0.000 A 
ATOM      7  N   UNL     1      25.709  23.110  24.801  0.00  0.00    +0.000 NA
ATOM      8  N   UNL     1      26.126  23.416  27.084  0.00  0.00    +0.000 NA
ATOM      9  C   UNL     1      26.867  23.085  28.313  0.00  0.00    +0.000 C 
ATOM     10  C   UNL     1      28.205  22.505  27.922  0.00  0.00    +0.000 C 
ATOM     11  C   UNL     1      29.227  23.487  27.498  0.00  0.00    +0.000 C 
ATOM     12  C   UNL     1      28.992  24.251  26.261  0.00  0.00    +0.000 C 
ENDROOT
BRANCH   4  13
ATOM     13  C   UNL     1      29.625  24.262  23.676  0.00  0.00    +0.000 C 
BRANCH  13  14
ATOM     14  C   UNL     1      29.510  25.287  22.616  0.00  0.00    +0.000 A 
ATOM     15  C   UNL     1      29.454  24.926  21.311  0.00  0.00    +0.000 A 
ATOM     16  C   UNL     1      29.346  25.855  20.295  0.00  0.00    +0.000 A 
ATOM     17  C   UNL     1      29.299  27.183  20.675  0.00  0.00    +0.000 A 
ATOM     18  C   UNL     1      29.356  27.546  21.986  0.00  0.00    +0.000 A 
ATOM     19  C   UNL     1      29.465  26.603  23.008  0.00  0.00    +0.000 A 
ATOM     20 CL   UNL     1      29.535  27.055  24.696  0.00  0.00    +0.000 Cl
ENDBRANCH  13  14
ENDBRANCH   4  13
TORSDOF 2
ENDMDL
MODEL 8
REMARK VINA RESULT:      -6.2      3.451      5.285
REMARK  Name = 
REMARK  2 active torsions:
REMARK  status: ('A' for Active; 'I' for Inactive)
REMARK    1  A    between atoms: C_4  and  C_5
REMARK    2  A    between atoms: C_5  and  C_6
REMARK                            x       y       z     vdW  Elec       q    Type
REMARK                         _______ _______ _______ _____ _____    ______ ____
ROOT
ATOM      1  N   UNL     1      23.756  26.283  25.843  0.00  0.00    +0.000 NA
ATOM      2  C   UNL     1      24.719  25.439  26.472  0.00  0.00    +0.000 A 
ATOM      3  N   UNL     1      25.361  24.496  25.755  0.00  0.00    +0.000 NA
ATOM      4  C   UNL     1      26.271  23.663  26.244  0.00  0.00    +0.000 A 
ATOM      5  C   UNL     1      26.578  23.782  27.606  0.00  0.00    +0.000 A 
ATOM      6  C   UNL     1      25.928  24.747  28.357  0.00  0.00    +0.000 A 
ATOM      7  N   UNL     1      25.008  25.564  27.786  0.00  0.00    +0.000 NA
ATOM      8  N   UNL     1      26.147  24.970  29.743  0.00  0.00    +0.000 NA
ATOM      9  C   UNL     1      26.494  23.987  30.783  0.00  0.00    +0.000 C 
ATOM     10  C   UNL     1      26.304  22.602  30.213  0.00  0.00    +0.000 C 
ATOM     11  C   UNL     1      27.381  22.126  29.318  0.00  0.00    +0.000 C 
ATOM     12  C   UNL     1      27.585  22.823  28.036  0.00  0.00    +0.000 C 
ENDROOT
BRANCH   4  13
ATOM     13  C   UNL     1      26.981  22.634  25.452  0.00  0.00    +0.000 C 
BRANCH  13  14
ATOM     14  C   UNL     1      27.812  23.343  24.453  0.00  0.00    +0.000 A 
ATOM     15  C   UNL     1      29.061  23.762  24.768  0.00  0.00    +0.000 A 
ATOM     16  C   UNL     1      29.864  24.425  23.861  0.00  0.00    +0.000 A 
ATOM     17  C   UNL     1      29.328  24.646  22.607  0.00  0.00    +0.000 A 
ATOM     18  C   UNL     1      28.072  24.225  22.290  0.00  0.00    +0.000 A 
ATOM     19  C   UNL     1      27.266  23.555  23.210  0.00  0.00    +0.000 A 
ATOM     20 CL   UNL     1      25.653  23.006  22.815  0.00  0.00    +0.000 Cl
ENDBRANCH  13  14
ENDBRANCH   4  13
TORSDOF 2
ENDMDL
MODEL 9
REMARK VINA RESULT:      -6.1      3.821      5.458
REMARK  Name = 
REMARK  2 active torsions:
REMARK  status: ('A' for Active; 'I' for Inactive)
REMARK    1  A    between atoms: C_4  and  C_5
REMARK    2  A    between atoms: C_5  and  C_6
REMARK                            x       y       z     vdW  Elec       q    Type
REMARK                         _______ _______ _______ _____ _____    ______ ____
ROOT
ATOM      1  N   UNL     1      31.211  26.668  27.696  0.00  0.00    +0.000 NA
ATOM      2  C   UNL     1      30.311  25.653  28.141  0.00  0.00    +0.000 A 
ATOM      3  N   UNL     1      30.136  24.536  27.409  0.00  0.00    +0.000 NA
ATOM      4  C   UNL     1      29.326  23.537  27.735  0.00  0.00    +0.000 A 
ATOM      5  C   UNL     1      28.604  23.665  28.929  0.00  0.00    +0.000 A 
ATOM      6  C   UNL     1      28.772  24.808  29.694  0.00  0.00    +0.000 A 
ATOM      7  N   UNL     1      29.620  25.788  29.296  0.00  0.00    +0.000 NA
ATOM      8  N   UNL     1      28.102  25.060  30.921  0.00  0.00    +0.000 NA
ATOM      9  C   UNL     1      26.747  24.645  31.324  0.00  0.00    +0.000 C 
ATOM     10  C   UNL     1      26.022  24.133  30.103  0.00  0.00    +0.000 C 
ATOM     11  C   UNL     1      26.380  22.763  29.675  0.00  0.00    +0.000 C 
ATOM     12  C   UNL     1      27.748  22.517  29.189  0.00  0.00    +0.000 C 
ENDROOT
BRANCH   4  13
ATOM     13  C   UNL     1      29.144  22.306  26.934  0.00  0.00    +0.000 C 
BRANCH  13  14
ATOM     14  C   UNL     1      28.481  22.697  25.670  0.00  0.00    +0.000 A 
ATOM     15  C   UNL     1      27.141  22.895  25.628  0.00  0.00    +0.000 A 
ATOM     16  C   UNL     1      26.489  23.262  24.467  0.00  0.00    +0.000 A 
ATOM     17  C   UNL     1      27.273  23.416  23.340  0.00  0.00    +0.000 A 
ATOM     18  C   UNL     1      28.620  23.216  23.382  0.00  0.00    +0.000 A 
ATOM     19  C   UNL     1      29.273  22.847  24.558  0.00  0.00    +0.000 A 
ATOM     20 CL   UNL     1      31.001  22.590  24.627  0.00  0.00    +0.000 Cl
ENDBRANCH  13  14
ENDBRANCH   4  13
TORSDOF 2
ENDMDL
MODEL 10
REMARK VINA RESULT:      -6.1      3.081      4.869
REMARK  Name = 
REMARK  2 active torsions:
REMARK  status: ('A' for Active; 'I' for Inactive)
REMARK    1  A    between atoms: C_4  and  C_5
REMARK    2  A    between atoms: C_5  and  C_6
REMARK                            x       y       z     vdW  Elec       q    Type
REMARK                         _______ _______ _______ _____ _____    ______ ____
ROOT
ATOM      1  N   UNL     1      30.994  22.612  26.270  0.00  0.00    +0.000 NA
ATOM      2  C   UNL     1      29.599  22.909  26.331  0.00  0.00    +0.000 A 
ATOM      3  N   UNL     1      28.908  23.143  25.199  0.00  0.00    +0.000 NA
ATOM      4  C   UNL     1      27.613  23.427  25.149  0.00  0.00    +0.000 A 
ATOM      5  C   UNL     1      26.925  23.485  26.368  0.00  0.00    +0.000 A 
ATOM      6  C   UNL     1      27.620  23.247  27.542  0.00  0.00    +0.000 A 
ATOM      7  N   UNL     1      28.946  22.961  27.513  0.00  0.00    +0.000 NA
ATOM      8  N   UNL     1      27.043  23.275  28.839  0.00  0.00    +0.000 NA
ATOM      9  C   UNL     1      25.939  24.119  29.329  0.00  0.00    +0.000 C 
ATOM     10  C   UNL     1      25.674  25.199  28.308  0.00  0.00    +0.000 C 
ATOM     11  C   UNL     1      24.904  24.777  27.118  0.00  0.00    +0.000 C 
ATOM     12  C   UNL     1      25.515  23.803  26.197  0.00  0.00    +0.000 C 
ENDROOT
BRANCH   4  13
ATOM     13  C   UNL     1      26.855  23.674  23.902  0.00  0.00    +0.000 C 
BRANCH  13  14
ATOM     14  C   UNL     1      27.698  24.527  23.034  0.00  0.00    +0.000 A 
ATOM     15  C   UNL     1      28.534  23.970  22.125  0.00  0.00    +0.000 A 
ATOM     16  C   UNL     1      29.334  24.734  21.299  0.00  0.00    +0.000 A 
ATOM     17  C   UNL     1      29.243  26.105  21.445  0.00  0.00    +0.000 A 
ATOM     18  C   UNL     1      28.403  26.664  22.359  0.00  0.00    +0.000 A 
ATOM     19  C   UNL     1      27.596  25.887  23.191  0.00  0.00    +0.000 A 
ATOM     20 CL   UNL     1      26.511  26.593  24.366  0.00  0.00    +0.000 Cl
ENDBRANCH  13  14
ENDBRANCH   4  13
TORSDOF 2
ENDMDL
