MODEL 1
REMARK VINA RESULT:      -8.2      0.000      0.000
REMARK  Name = 
REMARK  2 active torsions:
REMARK  status: ('A' for Active; 'I' for Inactive)
REMARK    1  A    between atoms: C_2  and  C_4
REMARK    2  A    between atoms: C_5  and  C_6
REMARK                            x       y       z     vdW  Elec       q    Type
REMARK                         _______ _______ _______ _____ _____    ______ ____
ROOT
ATOM      1  C   UNL     1      13.943  11.393  37.187  0.00  0.00    +0.000 A 
ATOM      2  C   UNL     1      15.033  11.358  36.340  0.00  0.00    +0.000 A 
ATOM      3  C   UNL     1      16.172  10.919  37.051  0.00  0.00    +0.000 A 
ATOM      4  N   UNL     1      17.463  10.768  36.483  0.00  0.00    +0.000 NA
ATOM      5  N   UNL     1      15.761  10.696  38.300  0.00  0.00    +0.000 N 
ATOM      6  C   UNL     1      16.602  10.229  39.383  0.00  0.00    +0.000 C 
ATOM      7  C   UNL     1      14.458  10.963  38.419  0.00  0.00    +0.000 A 
ATOM      8  O   UNL     1      13.721  10.839  39.571  0.00  0.00    +0.000 OA
ENDROOT
BRANCH   2   9
ATOM      9  C   UNL     1      15.060  11.710  34.928  0.00  0.00    +0.000 A 
ATOM     10  N   UNL     1      14.432  12.739  34.390  0.00  0.00    +0.000 NA
ATOM     11  C   UNL     1      14.522  12.966  33.109  0.00  0.00    +0.000 A 
ATOM     12  C   UNL     1      13.912  14.019  32.389  0.00  0.00    +0.000 A 
ATOM     13  C   UNL     1      14.103  14.125  31.039  0.00  0.00    +0.000 A 
ATOM     14  C   UNL     1      14.854  13.281  30.287  0.00  0.00    +0.000 A 
ATOM     15  C   UNL     1      15.468  12.230  30.978  0.00  0.00    +0.000 A 
ATOM     16  C   UNL     1      15.279  12.114  32.360  0.00  0.00    +0.000 A 
ATOM     17  S   UNL     1      15.811  11.031  33.584  0.00  0.00    +0.000 S 
ENDBRANCH   2   9
BRANCH   1  19
ATOM     18  C   UNL     1      11.404  10.885  37.115  0.00  0.00    +0.000 C 
ATOM     19  C   UNL     1      12.575  11.755  36.992  0.00  0.00    +0.000 C 
ATOM     20  O   UNL     1      12.304  12.966  36.676  0.00  0.00    +0.000 OA
ENDBRANCH   1  19
TORSDOF 2
ENDMDL
MODEL 2
REMARK VINA RESULT:      -7.9      1.982      3.118
REMARK  Name = 
REMARK  2 active torsions:
REMARK  status: ('A' for Active; 'I' for Inactive)
REMARK    1  A    between atoms: C_2  and  C_4
REMARK    2  A    between atoms: C_5  and  C_6
REMARK                            x       y       z     vdW  Elec       q    Type
REMARK                         _______ _______ _______ _____ _____    ______ ____
ROOT
ATOM      1  C   UNL     1      15.774  11.319  37.212  0.00  0.00    +0.000 A 
ATOM      2  C   UNL     1      14.617  11.690  36.556  0.00  0.00    +0.000 A 
ATOM      3  C   UNL     1      13.499  11.407  37.370  0.00  0.00    +0.000 A 
ATOM      4  N   UNL     1      12.153  11.664  37.002  0.00  0.00    +0.000 NA
ATOM      5  N   UNL     1      13.986  10.876  38.492  0.00  0.00    +0.000 N 
ATOM      6  C   UNL     1      13.192  10.433  39.619  0.00  0.00    +0.000 C 
ATOM      7  C   UNL     1      15.319  10.808  38.437  0.00  0.00    +0.000 A 
ATOM      8  O   UNL     1      16.134  10.314  39.426  0.00  0.00    +0.000 OA
ENDROOT
BRANCH   2   9
ATOM      9  C   UNL     1      14.510  12.284  35.231  0.00  0.00    +0.000 A 
ATOM     10  N   UNL     1      15.009  11.765  34.125  0.00  0.00    +0.000 NA
ATOM     11  C   UNL     1      14.857  12.381  32.985  0.00  0.00    +0.000 A 
ATOM     12  C   UNL     1      15.330  11.956  31.722  0.00  0.00    +0.000 A 
ATOM     13  C   UNL     1      15.089  12.715  30.611  0.00  0.00    +0.000 A 
ATOM     14  C   UNL     1      14.409  13.891  30.599  0.00  0.00    +0.000 A 
ATOM     15  C   UNL     1      13.931  14.331  31.838  0.00  0.00    +0.000 A 
ATOM     16  C   UNL     1      14.173  13.561  32.981  0.00  0.00    +0.000 A 
ATOM     17  S   UNL     1      13.796  13.693  34.653  0.00  0.00    +0.000 S 
ENDBRANCH   2   9
BRANCH   1  19
ATOM     18  C   UNL     1      17.978  10.297  36.311  0.00  0.00    +0.000 C 
ATOM     19  C   UNL     1      17.155  11.381  36.852  0.00  0.00    +0.000 C 
ATOM     20  O   UNL     1      17.776  12.490  37.005  0.00  0.00    +0.000 OA
ENDBRANCH   1  19
TORSDOF 2
ENDMDL
MODEL 3
REMARK VINA RESULT:      -6.9     29.303     31.650
REMARK  Name = 
REMARK  2 active torsions:
REMARK  status: ('A' for Active; 'I' for Inactive)
REMARK    1  A    between atoms: C_2  and  C_4
REMARK    2  A    between atoms: C_5  and  C_6
REMARK                            x       y       z     vdW  Elec       q    Type
REMARK                         _______ _______ _______ _____ _____    ______ ____
ROOT
ATOM      1  C   UNL     1      31.965  20.693   8.900  0.00  0.00    +0.000 A 
ATOM      2  C   UNL     1      31.892  21.039  10.235  0.00  0.00    +0.000 A 
ATOM      3  C   UNL     1      33.079  20.649  10.891  0.00  0.00    +0.000 A 
ATOM      4  N   UNL     1      33.338  20.853  12.270  0.00  0.00    +0.000 NA
ATOM      5  N   UNL     1      33.844  20.079   9.959  0.00  0.00    +0.000 N 
ATOM      6  C   UNL     1      35.164  19.527  10.185  0.00  0.00    +0.000 C 
ATOM      7  C   UNL     1      33.224  20.086   8.776  0.00  0.00    +0.000 A 
ATOM      8  O   UNL     1      33.732  19.579   7.606  0.00  0.00    +0.000 OA
ENDROOT
BRANCH   2   9
ATOM      9  C   UNL     1      30.787  21.704  10.911  0.00  0.00    +0.000 A 
ATOM     10  N   UNL     1      29.509  21.506  10.650  0.00  0.00    +0.000 NA
ATOM     11  C   UNL     1      28.595  22.156  11.316  0.00  0.00    +0.000 A 
ATOM     12  C   UNL     1      27.194  22.055  11.155  0.00  0.00    +0.000 A 
ATOM     13  C   UNL     1      26.360  22.807  11.935  0.00  0.00    +0.000 A 
ATOM     14  C   UNL     1      26.761  23.681  12.894  0.00  0.00    +0.000 A 
ATOM     15  C   UNL     1      28.144  23.798  13.071  0.00  0.00    +0.000 A 
ATOM     16  C   UNL     1      29.006  23.032  12.278  0.00  0.00    +0.000 A 
ATOM     17  S   UNL     1      30.710  22.848  12.142  0.00  0.00    +0.000 S 
ENDBRANCH   2   9
BRANCH   1  19
ATOM     18  C   UNL     1      31.060  21.919   6.805  0.00  0.00    +0.000 C 
ATOM     19  C   UNL     1      31.059  20.851   7.806  0.00  0.00    +0.000 C 
ATOM     20  O   UNL     1      30.132  19.981   7.652  0.00  0.00    +0.000 OA
ENDBRANCH   1  19
TORSDOF 2
ENDMDL
MODEL 4
REMARK VINA RESULT:      -6.5     21.941     23.137
REMARK  Name = 
REMARK  2 active torsions:
REMARK  status: ('A' for Active; 'I' for Inactive)
REMARK    1  A    between atoms: C_2  and  C_4
REMARK    2  A    between atoms: C_5  and  C_6
REMARK                            x       y       z     vdW  Elec       q    Type
REMARK                         _______ _______ _______ _____ _____    ______ ____
ROOT
ATOM      1  C   UNL     1      19.614  -7.278  26.226  0.00  0.00    +0.000 A 
ATOM      2  C   UNL     1      19.717  -8.548  26.757  0.00  0.00    +0.000 A 
ATOM      3  C   UNL     1      20.920  -9.147  26.323  0.00  0.00    +0.000 A 
ATOM      4  N   UNL     1      21.341 -10.453  26.682  0.00  0.00    +0.000 NA
ATOM      5  N   UNL     1      21.520  -8.245  25.546  0.00  0.00    +0.000 N 
ATOM      6  C   UNL     1      22.792  -8.432  24.879  0.00  0.00    +0.000 C 
ATOM      7  C   UNL     1      20.784  -7.133  25.465  0.00  0.00    +0.000 A 
ATOM      8  O   UNL     1      21.112  -6.010  24.747  0.00  0.00    +0.000 OA
ENDROOT
BRANCH   2   9
ATOM      9  C   UNL     1      18.764  -9.215  27.633  0.00  0.00    +0.000 A 
ATOM     10  N   UNL     1      18.754  -9.126  28.950  0.00  0.00    +0.000 NA
ATOM     11  C   UNL     1      17.853  -9.766  29.643  0.00  0.00    +0.000 A 
ATOM     12  C   UNL     1      17.711  -9.772  31.050  0.00  0.00    +0.000 A 
ATOM     13  C   UNL     1      16.709 -10.497  31.633  0.00  0.00    +0.000 A 
ATOM     14  C   UNL     1      15.794 -11.245  30.966  0.00  0.00    +0.000 A 
ATOM     15  C   UNL     1      15.915 -11.255  29.572  0.00  0.00    +0.000 A 
ATOM     16  C   UNL     1      16.938 -10.516  28.965  0.00  0.00    +0.000 A 
ATOM     17  S   UNL     1      17.457 -10.235  27.351  0.00  0.00    +0.000 S 
ENDBRANCH   2   9
BRANCH   1  19
ATOM     18  C   UNL     1      18.829  -4.859  26.718  0.00  0.00    +0.000 C 
ATOM     19  C   UNL     1      18.621  -6.258  26.339  0.00  0.00    +0.000 C 
ATOM     20  O   UNL     1      17.403  -6.562  26.086  0.00  0.00    +0.000 OA
ENDBRANCH   1  19
TORSDOF 2
ENDMDL
MODEL 5
REMARK VINA RESULT:      -6.4     29.246     31.821
REMARK  Name = 
REMARK  2 active torsions:
REMARK  status: ('A' for Active; 'I' for Inactive)
REMARK    1  A    between atoms: C_2  and  C_4
REMARK    2  A    between atoms: C_5  and  C_6
REMARK                            x       y       z     vdW  Elec       q    Type
REMARK                         _______ _______ _______ _____ _____    ______ ____
ROOT
ATOM      1  C   UNL     1      33.103  20.740   9.872  0.00  0.00    +0.000 A 
ATOM      2  C   UNL     1      31.743  20.903   9.701  0.00  0.00    +0.000 A 
ATOM      3  C   UNL     1      31.349  20.340   8.468  0.00  0.00    +0.000 A 
ATOM      4  N   UNL     1      30.019  20.333   7.978  0.00  0.00    +0.000 NA
ATOM      5  N   UNL     1      32.461  19.851   7.916  0.00  0.00    +0.000 N 
ATOM      6  C   UNL     1      32.530  19.178   6.635  0.00  0.00    +0.000 C 
ATOM      7  C   UNL     1      33.512  20.067   8.711  0.00  0.00    +0.000 A 
ATOM      8  O   UNL     1      34.805  19.690   8.443  0.00  0.00    +0.000 OA
ENDROOT
BRANCH   2   9
ATOM      9  C   UNL     1      30.813  21.547  10.618  0.00  0.00    +0.000 A 
ATOM     10  N   UNL     1      29.502  21.577  10.471  0.00  0.00    +0.000 NA
ATOM     11  C   UNL     1      28.757  22.183  11.354  0.00  0.00    +0.000 A 
ATOM     12  C   UNL     1      27.348  22.302  11.338  0.00  0.00    +0.000 A 
ATOM     13  C   UNL     1      26.706  22.972  12.342  0.00  0.00    +0.000 A 
ATOM     14  C   UNL     1      27.315  23.563  13.402  0.00  0.00    +0.000 A 
ATOM     15  C   UNL     1      28.710  23.459  13.439  0.00  0.00    +0.000 A 
ATOM     16  C   UNL     1      29.376  22.774  12.416  0.00  0.00    +0.000 A 
ATOM     17  S   UNL     1      31.015  22.403  12.053  0.00  0.00    +0.000 S 
ENDBRANCH   2   9
BRANCH   1  19
ATOM     18  C   UNL     1      34.408  20.303  12.068  0.00  0.00    +0.000 C 
ATOM     19  C   UNL     1      34.001  21.115  10.919  0.00  0.00    +0.000 C 
ATOM     20  O   UNL     1      34.529  22.280  10.881  0.00  0.00    +0.000 OA
ENDBRANCH   1  19
TORSDOF 2
ENDMDL
MODEL 6
REMARK VINA RESULT:      -6.4     18.725     21.109
REMARK  Name = 
REMARK  2 active torsions:
REMARK  status: ('A' for Active; 'I' for Inactive)
REMARK    1  A    between atoms: C_2  and  C_4
REMARK    2  A    between atoms: C_5  and  C_6
REMARK                            x       y       z     vdW  Elec       q    Type
REMARK                         _______ _______ _______ _____ _____    ______ ____
ROOT
ATOM      1  C   UNL     1      28.918  23.735  23.809  0.00  0.00    +0.000 A 
ATOM      2  C   UNL     1      27.744  23.510  24.499  0.00  0.00    +0.000 A 
ATOM      3  C   UNL     1      26.657  23.501  23.597  0.00  0.00    +0.000 A 
ATOM      4  N   UNL     1      25.305  23.296  23.972  0.00  0.00    +0.000 NA
ATOM      5  N   UNL     1      27.181  23.717  22.390  0.00  0.00    +0.000 N 
ATOM      6  C   UNL     1      26.428  23.789  21.154  0.00  0.00    +0.000 C 
ATOM      7  C   UNL     1      28.506  23.860  22.473  0.00  0.00    +0.000 A 
ATOM      8  O   UNL     1      29.352  24.094  21.416  0.00  0.00    +0.000 OA
ENDROOT
BRANCH   2   9
ATOM      9  C   UNL     1      27.592  23.308  25.933  0.00  0.00    +0.000 A 
ATOM     10  N   UNL     1      26.819  24.028  26.723  0.00  0.00    +0.000 NA
ATOM     11  C   UNL     1      26.756  23.763  27.999  0.00  0.00    +0.000 A 
ATOM     12  C   UNL     1      25.980  24.438  28.969  0.00  0.00    +0.000 A 
ATOM     13  C   UNL     1      26.019  24.039  30.276  0.00  0.00    +0.000 A 
ATOM     14  C   UNL     1      26.764  23.011  30.758  0.00  0.00    +0.000 A 
ATOM     15  C   UNL     1      27.541  22.328  29.816  0.00  0.00    +0.000 A 
ATOM     16  C   UNL     1      27.507  22.729  28.475  0.00  0.00    +0.000 A 
ATOM     17  S   UNL     1      28.260  22.210  27.020  0.00  0.00    +0.000 S 
ENDBRANCH   2   9
BRANCH   1  19
ATOM     18  C   UNL     1      31.177  22.747  24.604  0.00  0.00    +0.000 C 
ATOM     19  C   UNL     1      30.281  23.841  24.223  0.00  0.00    +0.000 C 
ATOM     20  O   UNL     1      30.814  25.004  24.277  0.00  0.00    +0.000 OA
ENDBRANCH   1  19
TORSDOF 2
ENDMDL
MODEL 7
REMARK VINA RESULT:      -6.3     21.432     23.760
REMARK  Name = 
REMARK  2 active torsions:
REMARK  status: ('A' for Active; 'I' for Inactive)
REMARK    1  A    between atoms: C_2  and  C_4
REMARK    2  A    between atoms: C_5  and  C_6
REMARK                            x       y       z     vdW  Elec       q    Type
REMARK                         _______ _______ _______ _____ _____    ______ ____
ROOT
ATOM      1  C   UNL     1      28.563  24.465  22.882  0.00  0.00    +0.000 A 
ATOM      2  C   UNL     1      29.137  24.490  24.137  0.00  0.00    +0.000 A 
ATOM      3  C   UNL     1      28.271  23.876  25.067  0.00  0.00    +0.000 A 
ATOM      4  N   UNL     1      28.551  23.731  26.450  0.00  0.00    +0.000 NA
ATOM      5  N   UNL     1      27.198  23.494  24.373  0.00  0.00    +0.000 N 
ATOM      6  C   UNL     1      26.044  22.816  24.926  0.00  0.00    +0.000 C 
ATOM      7  C   UNL     1      27.333  23.822  23.085  0.00  0.00    +0.000 A 
ATOM      8  O   UNL     1      26.411  23.573  22.098  0.00  0.00    +0.000 OA
ENDROOT
BRANCH   2   9
ATOM      9  C   UNL     1      30.432  25.049  24.500  0.00  0.00    +0.000 A 
ATOM     10  N   UNL     1      31.579  24.398  24.455  0.00  0.00    +0.000 NA
ATOM     11  C   UNL     1      32.686  24.994  24.803  0.00  0.00    +0.000 A 
ATOM     12  C   UNL     1      33.984  24.436  24.809  0.00  0.00    +0.000 A 
ATOM     13  C   UNL     1      35.052  25.193  25.203  0.00  0.00    +0.000 A 
ATOM     14  C   UNL     1      34.987  26.488  25.607  0.00  0.00    +0.000 A 
ATOM     15  C   UNL     1      33.711  27.062  25.610  0.00  0.00    +0.000 A 
ATOM     16  C   UNL     1      32.611  26.295  25.208  0.00  0.00    +0.000 A 
ATOM     17  S   UNL     1      30.920  26.561  25.053  0.00  0.00    +0.000 S 
ENDBRANCH   2   9
BRANCH   1  19
ATOM     18  C   UNL     1      28.769  26.267  21.031  0.00  0.00    +0.000 C 
ATOM     19  C   UNL     1      28.998  24.940  21.606  0.00  0.00    +0.000 C 
ATOM     20  O   UNL     1      29.666  24.146  20.856  0.00  0.00    +0.000 OA
ENDBRANCH   1  19
TORSDOF 2
ENDMDL
MODEL 8
REMARK VINA RESULT:      -6.1     22.530     23.656
REMARK  Name = 
REMARK  2 active torsions:
REMARK  status: ('A' for Active; 'I' for Inactive)
REMARK    1  A    between atoms: C_2  and  C_4
REMARK    2  A    between atoms: C_5  and  C_6
REMARK                            x       y       z     vdW  Elec       q    Type
REMARK                         _______ _______ _______ _____ _____    ______ ____
ROOT
ATOM      1  C   UNL     1      19.965  -9.160  27.129  0.00  0.00    +0.000 A 
ATOM      2  C   UNL     1      20.458  -8.234  26.230  0.00  0.00    +0.000 A 
ATOM      3  C   UNL     1      19.582  -7.130  26.159  0.00  0.00    +0.000 A 
ATOM      4  N   UNL     1      19.786  -5.996  25.331  0.00  0.00    +0.000 NA
ATOM      5  N   UNL     1      18.584  -7.397  27.002  0.00  0.00    +0.000 N 
ATOM      6  C   UNL     1      17.449  -6.533  27.254  0.00  0.00    +0.000 C 
ATOM      7  C   UNL     1      18.774  -8.581  27.591  0.00  0.00    +0.000 A 
ATOM      8  O   UNL     1      17.935  -9.156  28.514  0.00  0.00    +0.000 OA
ENDROOT
BRANCH   2   9
ATOM      9  C   UNL     1      21.684  -8.332  25.452  0.00  0.00    +0.000 A 
ATOM     10  N   UNL     1      22.480  -7.321  25.159  0.00  0.00    +0.000 NA
ATOM     11  C   UNL     1      23.558  -7.518  24.452  0.00  0.00    +0.000 A 
ATOM     12  C   UNL     1      24.504  -6.544  24.059  0.00  0.00    +0.000 A 
ATOM     13  C   UNL     1      25.592  -6.908  23.314  0.00  0.00    +0.000 A 
ATOM     14  C   UNL     1      25.866  -8.170  22.896  0.00  0.00    +0.000 A 
ATOM     15  C   UNL     1      24.943  -9.152  23.274  0.00  0.00    +0.000 A 
ATOM     16  C   UNL     1      23.827  -8.789  24.036  0.00  0.00    +0.000 A 
ATOM     17  S   UNL     1      22.478  -9.616  24.708  0.00  0.00    +0.000 S 
ENDBRANCH   2   9
BRANCH   1  19
ATOM     18  C   UNL     1      19.998 -11.750  27.119  0.00  0.00    +0.000 C 
ATOM     19  C   UNL     1      20.443 -10.431  27.572  0.00  0.00    +0.000 C 
ATOM     20  O   UNL     1      21.362 -10.460  28.463  0.00  0.00    +0.000 OA
ENDBRANCH   1  19
TORSDOF 2
ENDMDL
MODEL 9
REMARK VINA RESULT:      -6.0     18.036     19.899
REMARK  Name = 
REMARK  2 active torsions:
REMARK  status: ('A' for Active; 'I' for Inactive)
REMARK    1  A    between atoms: C_2  and  C_4
REMARK    2  A    between atoms: C_5  and  C_6
REMARK                            x       y       z     vdW  Elec       q    Type
REMARK                         _______ _______ _______ _____ _____    ______ ____
ROOT
ATOM      1  C   UNL     1      26.000  24.576  28.154  0.00  0.00    +0.000 A 
ATOM      2  C   UNL     1      26.844  23.893  27.301  0.00  0.00    +0.000 A 
ATOM      3  C   UNL     1      27.450  22.821  27.992  0.00  0.00    +0.000 A 
ATOM      4  N   UNL     1      28.374  21.914  27.414  0.00  0.00    +0.000 NA
ATOM      5  N   UNL     1      26.972  22.870  29.236  0.00  0.00    +0.000 N 
ATOM      6  C   UNL     1      27.322  21.952  30.301  0.00  0.00    +0.000 C 
ATOM      7  C   UNL     1      26.117  23.887  29.370  0.00  0.00    +0.000 A 
ATOM      8  O   UNL     1      25.446  24.219  30.521  0.00  0.00    +0.000 OA
ENDROOT
BRANCH   2   9
ATOM      9  C   UNL     1      27.106  24.189  25.900  0.00  0.00    +0.000 A 
ATOM     10  N   UNL     1      28.119  24.905  25.452  0.00  0.00    +0.000 NA
ATOM     11  C   UNL     1      28.262  25.112  24.172  0.00  0.00    +0.000 A 
ATOM     12  C   UNL     1      29.288  25.852  23.541  0.00  0.00    +0.000 A 
ATOM     13  C   UNL     1      29.302  25.979  22.180  0.00  0.00    +0.000 A 
ATOM     14  C   UNL     1      28.387  25.439  21.334  0.00  0.00    +0.000 A 
ATOM     15  C   UNL     1      27.362  24.701  21.936  0.00  0.00    +0.000 A 
ATOM     16  C   UNL     1      27.339  24.566  23.329  0.00  0.00    +0.000 A 
ATOM     17  S   UNL     1      26.317  23.784  24.469  0.00  0.00    +0.000 S 
ENDBRANCH   2   9
BRANCH   1  19
ATOM     18  C   UNL     1      23.876  25.769  27.273  0.00  0.00    +0.000 C 
ATOM     19  C   UNL     1      25.159  25.717  27.976  0.00  0.00    +0.000 C 
ATOM     20  O   UNL     1      25.534  26.835  28.475  0.00  0.00    +0.000 OA
ENDBRANCH   1  19
TORSDOF 2
ENDMDL
MODEL 10
REMARK VINA RESULT:      -6.0     24.609     26.485
REMARK  Name = 
REMARK  2 active torsions:
REMARK  status: ('A' for Active; 'I' for Inactive)
REMARK    1  A    between atoms: C_2  and  C_4
REMARK    2  A    between atoms: C_5  and  C_6
REMARK                            x       y       z     vdW  Elec       q    Type
REMARK                         _______ _______ _______ _____ _____    ______ ____
ROOT
ATOM      1  C   UNL     1      35.074  -6.900  32.022  0.00  0.00    +0.000 A 
ATOM      2  C   UNL     1      34.001  -6.057  31.809  0.00  0.00    +0.000 A 
ATOM      3  C   UNL     1      33.387  -6.374  30.578  0.00  0.00    +0.000 A 
ATOM      4  N   UNL     1      32.255  -5.702  30.050  0.00  0.00    +0.000 NA
ATOM      5  N   UNL     1      34.086  -7.389  30.069  0.00  0.00    +0.000 N 
ATOM      6  C   UNL     1      33.809  -8.042  28.806  0.00  0.00    +0.000 C 
ATOM      7  C   UNL     1      35.085  -7.727  30.889  0.00  0.00    +0.000 A 
ATOM      8  O   UNL     1      35.994  -8.732  30.666  0.00  0.00    +0.000 OA
ENDROOT
BRANCH   2   9
ATOM      9  C   UNL     1      33.533  -4.992  32.684  0.00  0.00    +0.000 A 
ATOM     10  N   UNL     1      33.925  -3.733  32.624  0.00  0.00    +0.000 NA
ATOM     11  C   UNL     1      33.442  -2.855  33.459  0.00  0.00    +0.000 A 
ATOM     12  C   UNL     1      33.760  -1.479  33.520  0.00  0.00    +0.000 A 
ATOM     13  C   UNL     1      33.166  -0.681  34.458  0.00  0.00    +0.000 A 
ATOM     14  C   UNL     1      32.259  -1.098  35.378  0.00  0.00    +0.000 A 
ATOM     15  C   UNL     1      31.928  -2.457  35.336  0.00  0.00    +0.000 A 
ATOM     16  C   UNL     1      32.531  -3.282  34.380  0.00  0.00    +0.000 A 
ATOM     17  S   UNL     1      32.441  -4.947  33.963  0.00  0.00    +0.000 S 
ENDBRANCH   2   9
BRANCH   1  19
ATOM     18  C   UNL     1      35.940  -7.894  34.252  0.00  0.00    +0.000 C 
ATOM     19  C   UNL     1      36.022  -7.014  33.085  0.00  0.00    +0.000 C 
ATOM     20  O   UNL     1      37.071  -6.282  33.047  0.00  0.00    +0.000 OA
ENDBRANCH   1  19
TORSDOF 2
ENDMDL
