MODEL 1
REMARK VINA RESULT:      -6.4      0.000      0.000
REMARK  Name = 
REMARK  3 active torsions:
REMARK  status: ('A' for Active; 'I' for Inactive)
REMARK    1  A    between atoms: C_2  and  C_5
REMARK    2  A    between atoms: C_6  and  C_7
REMARK    3  A    between atoms: C_7  and  C_10
REMARK                            x       y       z     vdW  Elec       q    Type
REMARK                         _______ _______ _______ _____ _____    ______ ____
ROOT
ATOM      1  C   UNL     1      16.604  10.625  37.525  0.00  0.00    +0.000 A 
ATOM      2  C   UNL     1      15.510  11.201  38.130  0.00  0.00    +0.000 A 
ATOM      3  C   UNL     1      14.502  11.810  37.385  0.00  0.00    +0.000 A 
ATOM      4  C   UNL     1      14.587  11.843  36.017  0.00  0.00    +0.000 A 
ATOM      5  C   UNL     1      15.683  11.268  35.376  0.00  0.00    +0.000 A 
ATOM      6  C   UNL     1      15.725  11.327  34.000  0.00  0.00    +0.000 A 
ATOM      7  C   UNL     1      16.803  10.762  33.361  0.00  0.00    +0.000 A 
ATOM      8  C   UNL     1      17.805  10.158  34.084  0.00  0.00    +0.000 A 
ATOM      9  C   UNL     1      17.741  10.113  35.453  0.00  0.00    +0.000 A 
ATOM     10  C   UNL     1      16.668  10.672  36.148  0.00  0.00    +0.000 A 
ENDROOT
BRANCH   1  11
ATOM     11  C   UNL     1      17.698   9.970  38.259  0.00  0.00    +0.000 C 
ATOM     12  C   UNL     1      17.133   9.556  39.623  0.00  0.00    +0.000 C 
ATOM     13  O   UNL     1      18.164   8.817  37.637  0.00  0.00    +0.000 OA
BRANCH  11  15
ATOM     14  C   UNL     1      19.655  11.771  38.579  0.00  0.00    +0.000 C 
ATOM     15  C   UNL     1      18.770  10.967  38.438  0.00  0.00    +0.000 C 
BRANCH  14  17
ATOM     16  C   UNL     1      21.182  12.764  40.196  0.00  0.00    +0.000 C 
ATOM     17  C   UNL     1      20.758  12.744  38.745  0.00  0.00    +0.000 C 
ATOM     18  C   UNL     1      20.261  14.104  38.359  0.00  0.00    +0.000 C 
ATOM     19  O   UNL     1      21.869  12.367  37.985  0.00  0.00    +0.000 OA
ENDBRANCH  14  17
ENDBRANCH  11  15
ENDBRANCH   1  11
TORSDOF 3
ENDMDL
MODEL 2
REMARK VINA RESULT:      -6.3     19.944     22.274
REMARK  Name = 
REMARK  3 active torsions:
REMARK  status: ('A' for Active; 'I' for Inactive)
REMARK    1  A    between atoms: C_2  and  C_5
REMARK    2  A    between atoms: C_6  and  C_7
REMARK    3  A    between atoms: C_7  and  C_10
REMARK                            x       y       z     vdW  Elec       q    Type
REMARK                         _______ _______ _______ _____ _____    ______ ____
ROOT
ATOM      1  C   UNL     1      18.181  -7.423  26.391  0.00  0.00    +0.000 A 
ATOM      2  C   UNL     1      17.782  -6.156  26.752  0.00  0.00    +0.000 A 
ATOM      3  C   UNL     1      18.618  -5.054  26.585  0.00  0.00    +0.000 A 
ATOM      4  C   UNL     1      19.870  -5.218  26.051  0.00  0.00    +0.000 A 
ATOM      5  C   UNL     1      20.302  -6.490  25.676  0.00  0.00    +0.000 A 
ATOM      6  C   UNL     1      21.568  -6.606  25.144  0.00  0.00    +0.000 A 
ATOM      7  C   UNL     1      22.002  -7.856  24.773  0.00  0.00    +0.000 A 
ATOM      8  C   UNL     1      21.187  -8.953  24.932  0.00  0.00    +0.000 A 
ATOM      9  C   UNL     1      19.931  -8.811  25.465  0.00  0.00    +0.000 A 
ATOM     10  C   UNL     1      19.445  -7.564  25.857  0.00  0.00    +0.000 A 
ENDROOT
BRANCH   1  11
ATOM     11  C   UNL     1      17.344  -8.623  26.544  0.00  0.00    +0.000 C 
ATOM     12  C   UNL     1      15.886  -8.168  26.407  0.00  0.00    +0.000 C 
ATOM     13  O   UNL     1      17.572  -9.581  25.563  0.00  0.00    +0.000 OA
BRANCH  11  15
ATOM     14  C   UNL     1      17.776  -9.608  28.997  0.00  0.00    +0.000 C 
ATOM     15  C   UNL     1      17.581  -9.158  27.898  0.00  0.00    +0.000 C 
BRANCH  14  17
ATOM     16  C   UNL     1      19.340  -9.661  30.863  0.00  0.00    +0.000 C 
ATOM     17  C   UNL     1      18.021 -10.183  30.339  0.00  0.00    +0.000 C 
ATOM     18  C   UNL     1      18.096 -11.674  30.218  0.00  0.00    +0.000 C 
ATOM     19  O   UNL     1      17.025  -9.788  31.236  0.00  0.00    +0.000 OA
ENDBRANCH  14  17
ENDBRANCH  11  15
ENDBRANCH   1  11
TORSDOF 3
ENDMDL
MODEL 3
REMARK VINA RESULT:      -6.3      2.255      3.586
REMARK  Name = 
REMARK  3 active torsions:
REMARK  status: ('A' for Active; 'I' for Inactive)
REMARK    1  A    between atoms: C_2  and  C_5
REMARK    2  A    between atoms: C_6  and  C_7
REMARK    3  A    between atoms: C_7  and  C_10
REMARK                            x       y       z     vdW  Elec       q    Type
REMARK                         _______ _______ _______ _____ _____    ______ ____
ROOT
ATOM      1  C   UNL     1      16.283  10.907  37.374  0.00  0.00    +0.000 A 
ATOM      2  C   UNL     1      15.177  11.148  38.158  0.00  0.00    +0.000 A 
ATOM      3  C   UNL     1      13.996  11.651  37.618  0.00  0.00    +0.000 A 
ATOM      4  C   UNL     1      13.916  11.919  36.275  0.00  0.00    +0.000 A 
ATOM      5  C   UNL     1      15.020  11.685  35.455  0.00  0.00    +0.000 A 
ATOM      6  C   UNL     1      14.892  11.970  34.113  0.00  0.00    +0.000 A 
ATOM      7  C   UNL     1      15.976  11.743  33.298  0.00  0.00    +0.000 A 
ATOM      8  C   UNL     1      17.148  11.245  33.818  0.00  0.00    +0.000 A 
ATOM      9  C   UNL     1      17.250  10.971  35.158  0.00  0.00    +0.000 A 
ATOM     10  C   UNL     1      16.179  11.184  36.027  0.00  0.00    +0.000 A 
ENDROOT
BRANCH   1  11
ATOM     11  C   UNL     1      17.555  10.377  37.888  0.00  0.00    +0.000 C 
ATOM     12  C   UNL     1      18.002   9.277  36.918  0.00  0.00    +0.000 C 
ATOM     13  O   UNL     1      18.569  11.327  37.932  0.00  0.00    +0.000 OA
BRANCH  11  15
ATOM     14  C   UNL     1      17.061   9.319  40.299  0.00  0.00    +0.000 C 
ATOM     15  C   UNL     1      17.288   9.799  39.218  0.00  0.00    +0.000 C 
BRANCH  14  17
ATOM     16  C   UNL     1      15.506   7.885  41.506  0.00  0.00    +0.000 C 
ATOM     17  C   UNL     1      16.767   8.712  41.616  0.00  0.00    +0.000 C 
ATOM     18  C   UNL     1      16.549   9.809  42.613  0.00  0.00    +0.000 C 
ATOM     19  O   UNL     1      17.800   7.856  42.009  0.00  0.00    +0.000 OA
ENDBRANCH  14  17
ENDBRANCH  11  15
ENDBRANCH   1  11
TORSDOF 3
ENDMDL
MODEL 4
REMARK VINA RESULT:      -6.1     20.289     22.923
REMARK  Name = 
REMARK  3 active torsions:
REMARK  status: ('A' for Active; 'I' for Inactive)
REMARK    1  A    between atoms: C_2  and  C_5
REMARK    2  A    between atoms: C_6  and  C_7
REMARK    3  A    between atoms: C_7  and  C_10
REMARK                            x       y       z     vdW  Elec       q    Type
REMARK                         _______ _______ _______ _____ _____    ______ ____
ROOT
ATOM      1  C   UNL     1      19.016  -9.086  26.970  0.00  0.00    +0.000 A 
ATOM      2  C   UNL     1      20.005  -9.881  26.436  0.00  0.00    +0.000 A 
ATOM      3  C   UNL     1      21.044  -9.341  25.681  0.00  0.00    +0.000 A 
ATOM      4  C   UNL     1      21.097  -7.989  25.455  0.00  0.00    +0.000 A 
ATOM      5  C   UNL     1      20.109  -7.159  25.984  0.00  0.00    +0.000 A 
ATOM      6  C   UNL     1      20.204  -5.808  25.731  0.00  0.00    +0.000 A 
ATOM      7  C   UNL     1      19.234  -4.983  26.248  0.00  0.00    +0.000 A 
ATOM      8  C   UNL     1      18.202  -5.503  26.996  0.00  0.00    +0.000 A 
ATOM      9  C   UNL     1      18.130  -6.852  27.233  0.00  0.00    +0.000 A 
ATOM     10  C   UNL     1      19.090  -7.730  26.730  0.00  0.00    +0.000 A 
ENDROOT
BRANCH   1  11
ATOM     11  C   UNL     1      17.896  -9.599  27.774  0.00  0.00    +0.000 C 
ATOM     12  C   UNL     1      18.147 -11.097  27.982  0.00  0.00    +0.000 C 
ATOM     13  O   UNL     1      17.809  -9.014  29.032  0.00  0.00    +0.000 OA
BRANCH  11  15
ATOM     14  C   UNL     1      15.660  -9.243  26.341  0.00  0.00    +0.000 C 
ATOM     15  C   UNL     1      16.661  -9.398  26.991  0.00  0.00    +0.000 C 
BRANCH  14  17
ATOM     16  C   UNL     1      13.656 -10.359  25.523  0.00  0.00    +0.000 C 
ATOM     17  C   UNL     1      14.438  -9.065  25.525  0.00  0.00    +0.000 C 
ATOM     18  C   UNL     1      14.841  -8.732  24.121  0.00  0.00    +0.000 C 
ATOM     19  O   UNL     1      13.616  -8.076  26.073  0.00  0.00    +0.000 OA
ENDBRANCH  14  17
ENDBRANCH  11  15
ENDBRANCH   1  11
TORSDOF 3
ENDMDL
MODEL 5
REMARK VINA RESULT:      -6.1      2.644      5.794
REMARK  Name = 
REMARK  3 active torsions:
REMARK  status: ('A' for Active; 'I' for Inactive)
REMARK    1  A    between atoms: C_2  and  C_5
REMARK    2  A    between atoms: C_6  and  C_7
REMARK    3  A    between atoms: C_7  and  C_10
REMARK                            x       y       z     vdW  Elec       q    Type
REMARK                         _______ _______ _______ _____ _____    ______ ____
ROOT
ATOM      1  C   UNL     1      17.399   9.030  39.956  0.00  0.00    +0.000 A 
ATOM      2  C   UNL     1      16.290   9.632  40.508  0.00  0.00    +0.000 A 
ATOM      3  C   UNL     1      15.512   8.987  41.466  0.00  0.00    +0.000 A 
ATOM      4  C   UNL     1      15.845   7.723  41.881  0.00  0.00    +0.000 A 
ATOM      5  C   UNL     1      16.962   7.088  41.341  0.00  0.00    +0.000 A 
ATOM      6  C   UNL     1      17.256   5.818  41.788  0.00  0.00    +0.000 A 
ATOM      7  C   UNL     1      18.356   5.185  41.259  0.00  0.00    +0.000 A 
ATOM      8  C   UNL     1      19.134   5.810  40.312  0.00  0.00    +0.000 A 
ATOM      9  C   UNL     1      18.819   7.074  39.883  0.00  0.00    +0.000 A 
ATOM     10  C   UNL     1      17.713   7.759  40.388  0.00  0.00    +0.000 A 
ENDROOT
BRANCH   1  11
ATOM     11  C   UNL     1      18.257   9.661  38.942  0.00  0.00    +0.000 C 
ATOM     12  C   UNL     1      19.242  10.565  39.692  0.00  0.00    +0.000 C 
ATOM     13  O   UNL     1      19.007   8.747  38.210  0.00  0.00    +0.000 OA
BRANCH  11  15
ATOM     14  C   UNL     1      16.669  11.144  37.373  0.00  0.00    +0.000 C 
ATOM     15  C   UNL     1      17.387  10.476  38.072  0.00  0.00    +0.000 C 
BRANCH  14  17
ATOM     16  C   UNL     1      14.385  11.952  37.130  0.00  0.00    +0.000 C 
ATOM     17  C   UNL     1      15.774  11.971  36.534  0.00  0.00    +0.000 C 
ATOM     18  C   UNL     1      15.727  11.383  35.157  0.00  0.00    +0.000 C 
ATOM     19  O   UNL     1      16.205  13.301  36.512  0.00  0.00    +0.000 OA
ENDBRANCH  14  17
ENDBRANCH  11  15
ENDBRANCH   1  11
TORSDOF 3
ENDMDL
MODEL 6
REMARK VINA RESULT:      -6.0     17.632     19.852
REMARK  Name = 
REMARK  3 active torsions:
REMARK  status: ('A' for Active; 'I' for Inactive)
REMARK    1  A    between atoms: C_2  and  C_5
REMARK    2  A    between atoms: C_6  and  C_7
REMARK    3  A    between atoms: C_7  and  C_10
REMARK                            x       y       z     vdW  Elec       q    Type
REMARK                         _______ _______ _______ _____ _____    ______ ____
ROOT
ATOM      1  C   UNL     1      27.807  23.483  25.449  0.00  0.00    +0.000 A 
ATOM      2  C   UNL     1      28.791  22.780  26.108  0.00  0.00    +0.000 A 
ATOM      3  C   UNL     1      30.032  22.542  25.523  0.00  0.00    +0.000 A 
ATOM      4  C   UNL     1      30.297  23.012  24.262  0.00  0.00    +0.000 A 
ATOM      5  C   UNL     1      29.321  23.728  23.570  0.00  0.00    +0.000 A 
ATOM      6  C   UNL     1      29.633  24.179  22.306  0.00  0.00    +0.000 A 
ATOM      7  C   UNL     1      28.675  24.884  21.617  0.00  0.00    +0.000 A 
ATOM      8  C   UNL     1      27.445  25.127  22.182  0.00  0.00    +0.000 A 
ATOM      9  C   UNL     1      27.159  24.666  23.442  0.00  0.00    +0.000 A 
ATOM     10  C   UNL     1      28.096  23.945  24.182  0.00  0.00    +0.000 A 
ENDROOT
BRANCH   1  11
ATOM     11  C   UNL     1      26.479  23.764  26.015  0.00  0.00    +0.000 C 
ATOM     12  C   UNL     1      26.207  25.256  25.790  0.00  0.00    +0.000 C 
ATOM     13  O   UNL     1      25.455  23.059  25.393  0.00  0.00    +0.000 OA
BRANCH  11  15
ATOM     14  C   UNL     1      26.605  23.251  28.641  0.00  0.00    +0.000 C 
ATOM     15  C   UNL     1      26.544  23.475  27.460  0.00  0.00    +0.000 C 
BRANCH  14  17
ATOM     16  C   UNL     1      28.102  23.279  30.562  0.00  0.00    +0.000 C 
ATOM     17  C   UNL     1      26.691  22.996  30.097  0.00  0.00    +0.000 C 
ATOM     18  C   UNL     1      26.369  21.555  30.353  0.00  0.00    +0.000 C 
ATOM     19  O   UNL     1      25.836  23.848  30.800  0.00  0.00    +0.000 OA
ENDBRANCH  14  17
ENDBRANCH  11  15
ENDBRANCH   1  11
TORSDOF 3
ENDMDL
MODEL 7
REMARK VINA RESULT:      -6.0     21.097     23.684
REMARK  Name = 
REMARK  3 active torsions:
REMARK  status: ('A' for Active; 'I' for Inactive)
REMARK    1  A    between atoms: C_2  and  C_5
REMARK    2  A    between atoms: C_6  and  C_7
REMARK    3  A    between atoms: C_7  and  C_10
REMARK                            x       y       z     vdW  Elec       q    Type
REMARK                         _______ _______ _______ _____ _____    ______ ____
ROOT
ATOM      1  C   UNL     1      20.534  -7.284  25.723  0.00  0.00    +0.000 A 
ATOM      2  C   UNL     1      20.294  -5.934  25.598  0.00  0.00    +0.000 A 
ATOM      3  C   UNL     1      19.204  -5.328  26.218  0.00  0.00    +0.000 A 
ATOM      4  C   UNL     1      18.341  -6.079  26.974  0.00  0.00    +0.000 A 
ATOM      5  C   UNL     1      18.558  -7.448  27.120  0.00  0.00    +0.000 A 
ATOM      6  C   UNL     1      17.664  -8.161  27.888  0.00  0.00    +0.000 A 
ATOM      7  C   UNL     1      17.871  -9.512  28.036  0.00  0.00    +0.000 A 
ATOM      8  C   UNL     1      18.944 -10.124  27.429  0.00  0.00    +0.000 A 
ATOM      9  C   UNL     1      19.819  -9.392  26.668  0.00  0.00    +0.000 A 
ATOM     10  C   UNL     1      19.652  -8.019  26.488  0.00  0.00    +0.000 A 
ENDROOT
BRANCH   1  11
ATOM     11  C   UNL     1      21.667  -7.979  25.092  0.00  0.00    +0.000 C 
ATOM     12  C   UNL     1      22.616  -6.896  24.567  0.00  0.00    +0.000 C 
ATOM     13  O   UNL     1      22.390  -8.769  25.978  0.00  0.00    +0.000 OA
BRANCH  11  15
ATOM     14  C   UNL     1      20.692  -9.425  23.058  0.00  0.00    +0.000 C 
ATOM     15  C   UNL     1      21.130  -8.768  23.967  0.00  0.00    +0.000 C 
BRANCH  14  17
ATOM     16  C   UNL     1      19.392 -11.418  22.540  0.00  0.00    +0.000 C 
ATOM     17  C   UNL     1      20.154 -10.251  21.954  0.00  0.00    +0.000 C 
ATOM     18  C   UNL     1      21.300 -10.770  21.139  0.00  0.00    +0.000 C 
ATOM     19  O   UNL     1      19.261  -9.512  21.173  0.00  0.00    +0.000 OA
ENDBRANCH  14  17
ENDBRANCH  11  15
ENDBRANCH   1  11
TORSDOF 3
ENDMDL
MODEL 8
REMARK VINA RESULT:      -5.9     18.764     20.437
REMARK  Name = 
REMARK  3 active torsions:
REMARK  status: ('A' for Active; 'I' for Inactive)
REMARK    1  A    between atoms: C_2  and  C_5
REMARK    2  A    between atoms: C_6  and  C_7
REMARK    3  A    between atoms: C_7  and  C_10
REMARK                            x       y       z     vdW  Elec       q    Type
REMARK                         _______ _______ _______ _____ _____    ______ ____
ROOT
ATOM      1  C   UNL     1      33.818   0.434  34.741  0.00  0.00    +0.000 A 
ATOM      2  C   UNL     1      33.797   0.148  33.394  0.00  0.00    +0.000 A 
ATOM      3  C   UNL     1      33.838   1.157  32.434  0.00  0.00    +0.000 A 
ATOM      4  C   UNL     1      33.902   2.470  32.823  0.00  0.00    +0.000 A 
ATOM      5  C   UNL     1      33.926   2.791  34.180  0.00  0.00    +0.000 A 
ATOM      6  C   UNL     1      33.990   4.125  34.522  0.00  0.00    +0.000 A 
ATOM      7  C   UNL     1      34.013   4.449  35.858  0.00  0.00    +0.000 A 
ATOM      8  C   UNL     1      33.973   3.463  36.816  0.00  0.00    +0.000 A 
ATOM      9  C   UNL     1      33.908   2.143  36.449  0.00  0.00    +0.000 A 
ATOM     10  C   UNL     1      33.882   1.762  35.108  0.00  0.00    +0.000 A 
ENDROOT
BRANCH   1  11
ATOM     11  C   UNL     1      33.777  -0.587  35.798  0.00  0.00    +0.000 C 
ATOM     12  C   UNL     1      35.099  -0.485  36.568  0.00  0.00    +0.000 C 
ATOM     13  O   UNL     1      32.749  -0.390  36.713  0.00  0.00    +0.000 OA
BRANCH  11  15
ATOM     14  C   UNL     1      33.599  -2.983  34.613  0.00  0.00    +0.000 C 
ATOM     15  C   UNL     1      33.677  -1.903  35.139  0.00  0.00    +0.000 C 
BRANCH  14  17
ATOM     16  C   UNL     1      34.669  -5.166  34.461  0.00  0.00    +0.000 C 
ATOM     17  C   UNL     1      33.508  -4.321  33.987  0.00  0.00    +0.000 C 
ATOM     18  C   UNL     1      33.590  -4.164  32.499  0.00  0.00    +0.000 C 
ATOM     19  O   UNL     1      32.330  -4.969  34.372  0.00  0.00    +0.000 OA
ENDBRANCH  14  17
ENDBRANCH  11  15
ENDBRANCH   1  11
TORSDOF 3
ENDMDL
MODEL 9
REMARK VINA RESULT:      -5.8     17.500     19.918
REMARK  Name = 
REMARK  3 active torsions:
REMARK  status: ('A' for Active; 'I' for Inactive)
REMARK    1  A    between atoms: C_2  and  C_5
REMARK    2  A    between atoms: C_6  and  C_7
REMARK    3  A    between atoms: C_7  and  C_10
REMARK                            x       y       z     vdW  Elec       q    Type
REMARK                         _______ _______ _______ _____ _____    ______ ____
ROOT
ATOM      1  C   UNL     1      27.478  24.750  25.533  0.00  0.00    +0.000 A 
ATOM      2  C   UNL     1      27.390  26.117  25.396  0.00  0.00    +0.000 A 
ATOM      3  C   UNL     1      28.488  26.883  25.011  0.00  0.00    +0.000 A 
ATOM      4  C   UNL     1      29.692  26.276  24.760  0.00  0.00    +0.000 A 
ATOM      5  C   UNL     1      29.812  24.893  24.890  0.00  0.00    +0.000 A 
ATOM      6  C   UNL     1      31.041  24.329  24.627  0.00  0.00    +0.000 A 
ATOM      7  C   UNL     1      31.168  22.966  24.754  0.00  0.00    +0.000 A 
ATOM      8  C   UNL     1      30.091  22.197  25.132  0.00  0.00    +0.000 A 
ATOM      9  C   UNL     1      28.878  22.784  25.390  0.00  0.00    +0.000 A 
ATOM     10  C   UNL     1      28.699  24.162  25.275  0.00  0.00    +0.000 A 
ENDROOT
BRANCH   1  11
ATOM     11  C   UNL     1      26.354  23.891  25.936  0.00  0.00    +0.000 C 
ATOM     12  C   UNL     1      25.069  24.678  25.655  0.00  0.00    +0.000 C 
ATOM     13  O   UNL     1      26.280  22.706  25.212  0.00  0.00    +0.000 OA
BRANCH  11  15
ATOM     14  C   UNL     1      26.594  23.421  28.562  0.00  0.00    +0.000 C 
ATOM     15  C   UNL     1      26.486  23.640  27.384  0.00  0.00    +0.000 C 
BRANCH  14  17
ATOM     16  C   UNL     1      28.123  23.497  30.457  0.00  0.00    +0.000 C 
ATOM     17  C   UNL     1      26.727  23.128  30.007  0.00  0.00    +0.000 C 
ATOM     18  C   UNL     1      26.513  21.661  30.223  0.00  0.00    +0.000 C 
ATOM     19  O   UNL     1      25.827  23.895  30.753  0.00  0.00    +0.000 OA
ENDBRANCH  14  17
ENDBRANCH  11  15
ENDBRANCH   1  11
TORSDOF 3
ENDMDL
MODEL 10
REMARK VINA RESULT:      -5.7     21.294     23.787
REMARK  Name = 
REMARK  3 active torsions:
REMARK  status: ('A' for Active; 'I' for Inactive)
REMARK    1  A    between atoms: C_2  and  C_5
REMARK    2  A    between atoms: C_6  and  C_7
REMARK    3  A    between atoms: C_7  and  C_10
REMARK                            x       y       z     vdW  Elec       q    Type
REMARK                         _______ _______ _______ _____ _____    ______ ____
ROOT
ATOM      1  C   UNL     1      26.265   4.962  17.669  0.00  0.00    +0.000 A 
ATOM      2  C   UNL     1      26.854   5.301  18.867  0.00  0.00    +0.000 A 
ATOM      3  C   UNL     1      27.773   6.344  18.957  0.00  0.00    +0.000 A 
ATOM      4  C   UNL     1      28.110   7.059  17.837  0.00  0.00    +0.000 A 
ATOM      5  C   UNL     1      27.529   6.740  16.610  0.00  0.00    +0.000 A 
ATOM      6  C   UNL     1      27.899   7.487  15.512  0.00  0.00    +0.000 A 
ATOM      7  C   UNL     1      27.332   7.177  14.299  0.00  0.00    +0.000 A 
ATOM      8  C   UNL     1      26.423   6.150  14.195  0.00  0.00    +0.000 A 
ATOM      9  C   UNL     1      26.073   5.421  15.302  0.00  0.00    +0.000 A 
ATOM     10  C   UNL     1      26.620   5.695  16.556  0.00  0.00    +0.000 A 
ENDROOT
BRANCH   1  11
ATOM     11  C   UNL     1      25.290   3.872  17.512  0.00  0.00    +0.000 C 
ATOM     12  C   UNL     1      24.658   3.640  18.889  0.00  0.00    +0.000 C 
ATOM     13  O   UNL     1      24.261   4.177  16.630  0.00  0.00    +0.000 OA
BRANCH  11  15
ATOM     14  C   UNL     1      26.638   1.683  16.757  0.00  0.00    +0.000 C 
ATOM     15  C   UNL     1      26.035   2.670  17.090  0.00  0.00    +0.000 C 
BRANCH  14  17
ATOM     16  C   UNL     1      26.942  -0.679  17.267  0.00  0.00    +0.000 C 
ATOM     17  C   UNL     1      27.372   0.458  16.368  0.00  0.00    +0.000 C 
ATOM     18  C   UNL     1      28.840   0.699  16.549  0.00  0.00    +0.000 C 
ATOM     19  O   UNL     1      27.068   0.095  15.053  0.00  0.00    +0.000 OA
ENDBRANCH  14  17
ENDBRANCH  11  15
ENDBRANCH   1  11
TORSDOF 3
ENDMDL
