MODEL 1
REMARK VINA RESULT:      -8.2      0.000      0.000
REMARK  Name = 
REMARK  7 active torsions:
REMARK  status: ('A' for Active; 'I' for Inactive)
REMARK    1  A    between atoms: C_2  and  O_3
REMARK    2  A    between atoms: O_3  and  C_4
REMARK    3  A    between atoms: C_7  and  N_8
REMARK    4  A    between atoms: N_8  and  C_9
REMARK    5  A    between atoms: C_10  and  S_11
REMARK    6  A    between atoms: S_11  and  C_12
REMARK    7  A    between atoms: N_20  and  C_21
REMARK                            x       y       z     vdW  Elec       q    Type
REMARK                         _______ _______ _______ _____ _____    ______ ____
ROOT
ATOM      1  C   UNL     1      37.370   3.812  15.565  0.00  0.00    +0.000 C 
ATOM      2  C   UNL     1      37.631   4.887  14.779  0.00  0.00    +0.000 C 
ATOM      3  C   UNL     1      38.199   5.926  15.617  0.00  0.00    +0.000 C 
ATOM      4  O   UNL     1      38.594   7.092  15.334  0.00  0.00    +0.000 OA
ATOM      5  N   UNL     1      38.281   5.445  16.977  0.00  0.00    +0.000 N 
ATOM      6  C   UNL     1      37.761   4.132  16.920  0.00  0.00    +0.000 C 
ATOM      7  O   UNL     1      37.654   3.350  17.910  0.00  0.00    +0.000 OA
ENDROOT
BRANCH   5   8
ATOM      8  C   UNL     1      38.779   6.153  18.104  0.00  0.00    +0.000 A 
ATOM      9  C   UNL     1      39.977   5.848  18.710  0.00  0.00    +0.000 A 
ATOM     10  C   UNL     1      40.451   6.542  19.806  0.00  0.00    +0.000 A 
ATOM     11  C   UNL     1      41.746   6.204  20.453  0.00  0.00    +0.000 C 
ATOM     12  C   UNL     1      39.725   7.586  20.341  0.00  0.00    +0.000 A 
ATOM     13  C   UNL     1      38.526   7.902  19.748  0.00  0.00    +0.000 A 
ATOM     14  C   UNL     1      37.741   9.041  20.339  0.00  0.00    +0.000 C 
ATOM     15  C   UNL     1      38.051   7.212  18.656  0.00  0.00    +0.000 A 
ENDBRANCH   5   8
BRANCH   1  16
ATOM     16  N   UNL     1      36.818   2.568  15.162  0.00  0.00    +0.000 NA
BRANCH  16  20
ATOM     17  C   UNL     1      39.443  -0.778  14.975  0.00  0.00    +0.000 A 
ATOM     18  C   UNL     1      38.175  -0.855  15.501  0.00  0.00    +0.000 A 
ATOM     19  C   UNL     1      37.324   0.218  15.566  0.00  0.00    +0.000 A 
ATOM     20  C   UNL     1      37.718   1.446  15.095  0.00  0.00    +0.000 A 
ATOM     21  C   UNL     1      38.975   1.573  14.562  0.00  0.00    +0.000 A 
ATOM     22  C   UNL     1      39.812   0.487  14.506  0.00  0.00    +0.000 A 
BRANCH  17  23
ATOM     23  O   UNL     1      40.320  -1.852  14.899  0.00  0.00    +0.000 OA
BRANCH  23  25
ATOM     24  C   UNL     1      39.758  -2.785  12.718  0.00  0.00    +0.000 C 
ATOM     25  C   UNL     1      40.805  -2.302  13.669  0.00  0.00    +0.000 C 
ENDBRANCH  23  25
ENDBRANCH  17  23
ENDBRANCH  16  20
ENDBRANCH   1  16
BRANCH   2  26
ATOM     26  S   UNL     1      37.305   4.899  13.046  0.00  0.00    +0.000 S 
BRANCH  26  27
ATOM     27  C   UNL     1      35.866   5.807  12.578  0.00  0.00    +0.000 A 
ATOM     28  C   UNL     1      35.760   6.185  11.222  0.00  0.00    +0.000 A 
ATOM     29  C   UNL     1      34.694   6.895  10.772  0.00  0.00    +0.000 A 
ATOM     30  C   UNL     1      33.657   7.290  11.594  0.00  0.00    +0.000 A 
ATOM     31  C   UNL     1      33.774   6.913  12.921  0.00  0.00    +0.000 A 
ATOM     32  C   UNL     1      34.842   6.197  13.390  0.00  0.00    +0.000 A 
ENDBRANCH  26  27
ENDBRANCH   2  26
TORSDOF 7
ENDMDL
MODEL 2
REMARK VINA RESULT:      -8.0      2.452      3.364
REMARK  Name = 
REMARK  7 active torsions:
REMARK  status: ('A' for Active; 'I' for Inactive)
REMARK    1  A    between atoms: C_2  and  O_3
REMARK    2  A    between atoms: O_3  and  C_4
REMARK    3  A    between atoms: C_7  and  N_8
REMARK    4  A    between atoms: N_8  and  C_9
REMARK    5  A    between atoms: C_10  and  S_11
REMARK    6  A    between atoms: S_11  and  C_12
REMARK    7  A    between atoms: N_20  and  C_21
REMARK                            x       y       z     vdW  Elec       q    Type
REMARK                         _______ _______ _______ _____ _____    ______ ____
ROOT
ATOM      1  C   UNL     1      36.930   4.230  14.658  0.00  0.00    +0.000 C 
ATOM      2  C   UNL     1      36.508   5.519  14.684  0.00  0.00    +0.000 C 
ATOM      3  C   UNL     1      37.509   6.304  15.382  0.00  0.00    +0.000 C 
ATOM      4  O   UNL     1      37.553   7.537  15.650  0.00  0.00    +0.000 OA
ATOM      5  N   UNL     1      38.588   5.436  15.795  0.00  0.00    +0.000 N 
ATOM      6  C   UNL     1      38.206   4.155  15.335  0.00  0.00    +0.000 C 
ATOM      7  O   UNL     1      38.883   3.096  15.492  0.00  0.00    +0.000 OA
ENDROOT
BRANCH   5   8
ATOM      8  C   UNL     1      39.761   5.810  16.503  0.00  0.00    +0.000 A 
ATOM      9  C   UNL     1      40.951   6.108  15.876  0.00  0.00    +0.000 A 
ATOM     10  C   UNL     1      42.086   6.470  16.576  0.00  0.00    +0.000 A 
ATOM     11  C   UNL     1      43.365   6.789  15.890  0.00  0.00    +0.000 C 
ATOM     12  C   UNL     1      42.065   6.546  17.953  0.00  0.00    +0.000 A 
ATOM     13  C   UNL     1      40.885   6.250  18.593  0.00  0.00    +0.000 A 
ATOM     14  C   UNL     1      40.873   6.336  20.095  0.00  0.00    +0.000 C 
ATOM     15  C   UNL     1      39.752   5.890  17.900  0.00  0.00    +0.000 A 
ENDBRANCH   5   8
BRANCH   1  16
ATOM     16  N   UNL     1      36.268   3.121  14.070  0.00  0.00    +0.000 NA
BRANCH  16  20
ATOM     17  C   UNL     1      35.268  -0.127  16.634  0.00  0.00    +0.000 A 
ATOM     18  C   UNL     1      36.038  -0.280  15.506  0.00  0.00    +0.000 A 
ATOM     19  C   UNL     1      36.364   0.761  14.674  0.00  0.00    +0.000 A 
ATOM     20  C   UNL     1      35.919   2.031  14.945  0.00  0.00    +0.000 A 
ATOM     21  C   UNL     1      35.146   2.234  16.060  0.00  0.00    +0.000 A 
ATOM     22  C   UNL     1      34.832   1.179  16.879  0.00  0.00    +0.000 A 
BRANCH  17  23
ATOM     23  O   UNL     1      34.928  -1.167  17.490  0.00  0.00    +0.000 OA
BRANCH  23  25
ATOM     24  C   UNL     1      36.774  -1.321  19.074  0.00  0.00    +0.000 C 
ATOM     25  C   UNL     1      35.907  -1.986  18.055  0.00  0.00    +0.000 C 
ENDBRANCH  23  25
ENDBRANCH  17  23
ENDBRANCH  16  20
ENDBRANCH   1  16
BRANCH   2  26
ATOM     26  S   UNL     1      34.989   6.037  13.952  0.00  0.00    +0.000 S 
BRANCH  26  27
ATOM     27  C   UNL     1      35.067   6.292  12.208  0.00  0.00    +0.000 A 
ATOM     28  C   UNL     1      34.086   7.133  11.640  0.00  0.00    +0.000 A 
ATOM     29  C   UNL     1      34.059   7.379  10.305  0.00  0.00    +0.000 A 
ATOM     30  C   UNL     1      34.973   6.834   9.426  0.00  0.00    +0.000 A 
ATOM     31  C   UNL     1      35.929   6.012   9.996  0.00  0.00    +0.000 A 
ATOM     32  C   UNL     1      35.970   5.754  11.340  0.00  0.00    +0.000 A 
ENDBRANCH  26  27
ENDBRANCH   2  26
TORSDOF 7
ENDMDL
MODEL 3
REMARK VINA RESULT:      -7.7      2.464      8.090
REMARK  Name = 
REMARK  7 active torsions:
REMARK  status: ('A' for Active; 'I' for Inactive)
REMARK    1  A    between atoms: C_2  and  O_3
REMARK    2  A    between atoms: O_3  and  C_4
REMARK    3  A    between atoms: C_7  and  N_8
REMARK    4  A    between atoms: N_8  and  C_9
REMARK    5  A    between atoms: C_10  and  S_11
REMARK    6  A    between atoms: S_11  and  C_12
REMARK    7  A    between atoms: N_20  and  C_21
REMARK                            x       y       z     vdW  Elec       q    Type
REMARK                         _______ _______ _______ _____ _____    ______ ____
ROOT
ATOM      1  C   UNL     1      36.063   4.543  14.723  0.00  0.00    +0.000 C 
ATOM      2  C   UNL     1      37.378   4.412  15.033  0.00  0.00    +0.000 C 
ATOM      3  C   UNL     1      37.639   3.007  15.288  0.00  0.00    +0.000 C 
ATOM      4  O   UNL     1      38.704   2.410  15.608  0.00  0.00    +0.000 OA
ATOM      5  N   UNL     1      36.413   2.260  15.122  0.00  0.00    +0.000 N 
ATOM      6  C   UNL     1      35.450   3.234  14.772  0.00  0.00    +0.000 C 
ATOM      7  O   UNL     1      34.229   2.996  14.536  0.00  0.00    +0.000 OA
ENDROOT
BRANCH   5   8
ATOM      8  C   UNL     1      36.240   0.860  15.280  0.00  0.00    +0.000 A 
ATOM      9  C   UNL     1      36.878  -0.068  14.486  0.00  0.00    +0.000 A 
ATOM     10  C   UNL     1      36.702  -1.429  14.647  0.00  0.00    +0.000 A 
ATOM     11  C   UNL     1      37.395  -2.420  13.785  0.00  0.00    +0.000 C 
ATOM     12  C   UNL     1      35.863  -1.913  15.629  0.00  0.00    +0.000 A 
ATOM     13  C   UNL     1      35.217  -1.001  16.429  0.00  0.00    +0.000 A 
ATOM     14  C   UNL     1      34.304  -1.540  17.496  0.00  0.00    +0.000 C 
ATOM     15  C   UNL     1      35.391   0.355  16.271  0.00  0.00    +0.000 A 
ENDBRANCH   5   8
BRANCH   1  16
ATOM     16  N   UNL     1      35.374   5.740  14.394  0.00  0.00    +0.000 NA
BRANCH  16  20
ATOM     17  C   UNL     1      35.094   6.781  10.276  0.00  0.00    +0.000 A 
ATOM     18  C   UNL     1      34.180   7.199  11.213  0.00  0.00    +0.000 A 
ATOM     19  C   UNL     1      34.262   6.868  12.541  0.00  0.00    +0.000 A 
ATOM     20  C   UNL     1      35.290   6.081  12.997  0.00  0.00    +0.000 A 
ATOM     21  C   UNL     1      36.228   5.638  12.100  0.00  0.00    +0.000 A 
ATOM     22  C   UNL     1      36.127   5.982  10.775  0.00  0.00    +0.000 A 
BRANCH  17  23
ATOM     23  O   UNL     1      35.030   7.106   8.927  0.00  0.00    +0.000 OA
BRANCH  23  25
ATOM     24  C   UNL     1      34.264   5.774   7.035  0.00  0.00    +0.000 C 
ATOM     25  C   UNL     1      33.940   6.722   8.143  0.00  0.00    +0.000 C 
ENDBRANCH  23  25
ENDBRANCH  17  23
ENDBRANCH  16  20
ENDBRANCH   1  16
BRANCH   2  26
ATOM     26  S   UNL     1      38.486   5.783  15.074  0.00  0.00    +0.000 S 
BRANCH  26  27
ATOM     27  C   UNL     1      39.398   5.941  16.576  0.00  0.00    +0.000 A 
ATOM     28  C   UNL     1      38.702   5.685  17.778  0.00  0.00    +0.000 A 
ATOM     29  C   UNL     1      39.318   5.794  18.983  0.00  0.00    +0.000 A 
ATOM     30  C   UNL     1      40.644   6.155  19.116  0.00  0.00    +0.000 A 
ATOM     31  C   UNL     1      41.314   6.402  17.930  0.00  0.00    +0.000 A 
ATOM     32  C   UNL     1      40.708   6.297  16.708  0.00  0.00    +0.000 A 
ENDBRANCH  26  27
ENDBRANCH   2  26
TORSDOF 7
ENDMDL
MODEL 4
REMARK VINA RESULT:      -7.7      2.908      5.052
REMARK  Name = 
REMARK  7 active torsions:
REMARK  status: ('A' for Active; 'I' for Inactive)
REMARK    1  A    between atoms: C_2  and  O_3
REMARK    2  A    between atoms: O_3  and  C_4
REMARK    3  A    between atoms: C_7  and  N_8
REMARK    4  A    between atoms: N_8  and  C_9
REMARK    5  A    between atoms: C_10  and  S_11
REMARK    6  A    between atoms: S_11  and  C_12
REMARK    7  A    between atoms: N_20  and  C_21
REMARK                            x       y       z     vdW  Elec       q    Type
REMARK                         _______ _______ _______ _____ _____    ______ ____
ROOT
ATOM      1  C   UNL     1      37.161   2.271  14.932  0.00  0.00    +0.000 C 
ATOM      2  C   UNL     1      38.314   2.484  14.248  0.00  0.00    +0.000 C 
ATOM      3  C   UNL     1      38.976   3.633  14.837  0.00  0.00    +0.000 C 
ATOM      4  O   UNL     1      40.064   4.201  14.540  0.00  0.00    +0.000 OA
ATOM      5  N   UNL     1      38.175   4.133  15.931  0.00  0.00    +0.000 N 
ATOM      6  C   UNL     1      37.054   3.272  15.970  0.00  0.00    +0.000 C 
ATOM      7  O   UNL     1      36.097   3.363  16.794  0.00  0.00    +0.000 OA
ENDROOT
BRANCH   5   8
ATOM      8  C   UNL     1      38.469   5.243  16.767  0.00  0.00    +0.000 A 
ATOM      9  C   UNL     1      39.293   5.153  17.867  0.00  0.00    +0.000 A 
ATOM     10  C   UNL     1      39.572   6.240  18.674  0.00  0.00    +0.000 A 
ATOM     11  C   UNL     1      40.462   6.132  19.859  0.00  0.00    +0.000 C 
ATOM     12  C   UNL     1      39.022   7.475  18.399  0.00  0.00    +0.000 A 
ATOM     13  C   UNL     1      38.197   7.580  17.305  0.00  0.00    +0.000 A 
ATOM     14  C   UNL     1      37.603   8.931  17.014  0.00  0.00    +0.000 C 
ATOM     15  C   UNL     1      37.917   6.500  16.499  0.00  0.00    +0.000 A 
ENDBRANCH   5   8
BRANCH   1  16
ATOM     16  N   UNL     1      36.204   1.247  14.703  0.00  0.00    +0.000 NA
BRANCH  16  20
ATOM     17  C   UNL     1      36.910  -2.529  16.539  0.00  0.00    +0.000 A 
ATOM     18  C   UNL     1      36.499  -2.401  15.233  0.00  0.00    +0.000 A 
ATOM     19  C   UNL     1      36.269  -1.189  14.634  0.00  0.00    +0.000 A 
ATOM     20  C   UNL     1      36.444  -0.023  15.338  0.00  0.00    +0.000 A 
ATOM     21  C   UNL     1      36.852  -0.099  16.645  0.00  0.00    +0.000 A 
ATOM     22  C   UNL     1      37.078  -1.322  17.225  0.00  0.00    +0.000 A 
BRANCH  17  23
ATOM     23  O   UNL     1      37.150  -3.746  17.163  0.00  0.00    +0.000 OA
BRANCH  23  25
ATOM     24  C   UNL     1      37.566  -6.147  17.187  0.00  0.00    +0.000 C 
ATOM     25  C   UNL     1      37.047  -4.949  16.462  0.00  0.00    +0.000 C 
ENDBRANCH  23  25
ENDBRANCH  17  23
ENDBRANCH  16  20
ENDBRANCH   1  16
BRANCH   2  26
ATOM     26  S   UNL     1      38.822   1.467  12.901  0.00  0.00    +0.000 S 
BRANCH  26  27
ATOM     27  C   UNL     1      39.349  -0.152  13.364  0.00  0.00    +0.000 A 
ATOM     28  C   UNL     1      39.937  -0.293  14.640  0.00  0.00    +0.000 A 
ATOM     29  C   UNL     1      40.383  -1.499  15.078  0.00  0.00    +0.000 A 
ATOM     30  C   UNL     1      40.294  -2.649  14.320  0.00  0.00    +0.000 A 
ATOM     31  C   UNL     1      39.715  -2.496  13.072  0.00  0.00    +0.000 A 
ATOM     32  C   UNL     1      39.261  -1.289  12.616  0.00  0.00    +0.000 A 
ENDBRANCH  26  27
ENDBRANCH   2  26
TORSDOF 7
ENDMDL
MODEL 5
REMARK VINA RESULT:      -7.7      2.778      5.443
REMARK  Name = 
REMARK  7 active torsions:
REMARK  status: ('A' for Active; 'I' for Inactive)
REMARK    1  A    between atoms: C_2  and  O_3
REMARK    2  A    between atoms: O_3  and  C_4
REMARK    3  A    between atoms: C_7  and  N_8
REMARK    4  A    between atoms: N_8  and  C_9
REMARK    5  A    between atoms: C_10  and  S_11
REMARK    6  A    between atoms: S_11  and  C_12
REMARK    7  A    between atoms: N_20  and  C_21
REMARK                            x       y       z     vdW  Elec       q    Type
REMARK                         _______ _______ _______ _____ _____    ______ ____
ROOT
ATOM      1  C   UNL     1      37.147   1.681  14.941  0.00  0.00    +0.000 C 
ATOM      2  C   UNL     1      38.167   1.973  14.095  0.00  0.00    +0.000 C 
ATOM      3  C   UNL     1      38.732   3.246  14.500  0.00  0.00    +0.000 C 
ATOM      4  O   UNL     1      39.688   3.916  14.017  0.00  0.00    +0.000 OA
ATOM      5  N   UNL     1      38.010   3.742  15.649  0.00  0.00    +0.000 N 
ATOM      6  C   UNL     1      37.032   2.754  15.904  0.00  0.00    +0.000 C 
ATOM      7  O   UNL     1      36.179   2.801  16.839  0.00  0.00    +0.000 OA
ENDROOT
BRANCH   5   8
ATOM      8  C   UNL     1      38.249   4.954  16.350  0.00  0.00    +0.000 A 
ATOM      9  C   UNL     1      37.813   6.179  15.896  0.00  0.00    +0.000 A 
ATOM     10  C   UNL     1      38.052   7.352  16.585  0.00  0.00    +0.000 A 
ATOM     11  C   UNL     1      37.578   8.669  16.086  0.00  0.00    +0.000 C 
ATOM     12  C   UNL     1      38.751   7.335  17.774  0.00  0.00    +0.000 A 
ATOM     13  C   UNL     1      39.194   6.120  18.240  0.00  0.00    +0.000 A 
ATOM     14  C   UNL     1      39.954   6.112  19.538  0.00  0.00    +0.000 C 
ATOM     15  C   UNL     1      38.957   4.949  17.556  0.00  0.00    +0.000 A 
ENDBRANCH   5   8
BRANCH   1  16
ATOM     16  N   UNL     1      36.319   0.528  14.922  0.00  0.00    +0.000 NA
BRANCH  16  20
ATOM     17  C   UNL     1      38.118  -3.131  16.147  0.00  0.00    +0.000 A 
ATOM     18  C   UNL     1      38.313  -1.945  16.815  0.00  0.00    +0.000 A 
ATOM     19  C   UNL     1      37.739  -0.762  16.427  0.00  0.00    +0.000 A 
ATOM     20  C   UNL     1      36.923  -0.716  15.323  0.00  0.00    +0.000 A 
ATOM     21  C   UNL     1      36.698  -1.874  14.623  0.00  0.00    +0.000 A 
ATOM     22  C   UNL     1      37.283  -3.048  15.028  0.00  0.00    +0.000 A 
BRANCH  17  23
ATOM     23  O   UNL     1      38.689  -4.339  16.524  0.00  0.00    +0.000 OA
BRANCH  23  25
ATOM     24  C   UNL     1      37.388  -6.287  17.200  0.00  0.00    +0.000 C 
ATOM     25  C   UNL     1      38.175  -5.079  17.592  0.00  0.00    +0.000 C 
ENDBRANCH  23  25
ENDBRANCH  17  23
ENDBRANCH  16  20
ENDBRANCH   1  16
BRANCH   2  26
ATOM     26  S   UNL     1      38.642   0.905  12.775  0.00  0.00    +0.000 S 
BRANCH  26  27
ATOM     27  C   UNL     1      39.695  -0.427  13.253  0.00  0.00    +0.000 A 
ATOM     28  C   UNL     1      39.600  -1.620  12.503  0.00  0.00    +0.000 A 
ATOM     29  C   UNL     1      40.362  -2.702  12.805  0.00  0.00    +0.000 A 
ATOM     30  C   UNL     1      41.268  -2.712  13.846  0.00  0.00    +0.000 A 
ATOM     31  C   UNL     1      41.352  -1.536  14.572  0.00  0.00    +0.000 A 
ATOM     32  C   UNL     1      40.591  -0.437  14.281  0.00  0.00    +0.000 A 
ENDBRANCH  26  27
ENDBRANCH   2  26
TORSDOF 7
ENDMDL
MODEL 6
REMARK VINA RESULT:      -7.6      2.486      6.608
REMARK  Name = 
REMARK  7 active torsions:
REMARK  status: ('A' for Active; 'I' for Inactive)
REMARK    1  A    between atoms: C_2  and  O_3
REMARK    2  A    between atoms: O_3  and  C_4
REMARK    3  A    between atoms: C_7  and  N_8
REMARK    4  A    between atoms: N_8  and  C_9
REMARK    5  A    between atoms: C_10  and  S_11
REMARK    6  A    between atoms: S_11  and  C_12
REMARK    7  A    between atoms: N_20  and  C_21
REMARK                            x       y       z     vdW  Elec       q    Type
REMARK                         _______ _______ _______ _____ _____    ______ ____
ROOT
ATOM      1  C   UNL     1      36.280   5.241  14.744  0.00  0.00    +0.000 C 
ATOM      2  C   UNL     1      36.657   3.944  14.880  0.00  0.00    +0.000 C 
ATOM      3  C   UNL     1      37.948   3.921  15.541  0.00  0.00    +0.000 C 
ATOM      4  O   UNL     1      38.686   2.953  15.877  0.00  0.00    +0.000 OA
ATOM      5  N   UNL     1      38.365   5.277  15.815  0.00  0.00    +0.000 N 
ATOM      6  C   UNL     1      37.314   6.078  15.311  0.00  0.00    +0.000 C 
ATOM      7  O   UNL     1      37.283   7.343  15.351  0.00  0.00    +0.000 OA
ENDROOT
BRANCH   5   8
ATOM      8  C   UNL     1      39.566   5.688  16.451  0.00  0.00    +0.000 A 
ATOM      9  C   UNL     1      40.716   5.990  15.755  0.00  0.00    +0.000 A 
ATOM     10  C   UNL     1      41.880   6.389  16.384  0.00  0.00    +0.000 A 
ATOM     11  C   UNL     1      43.115   6.711  15.623  0.00  0.00    +0.000 C 
ATOM     12  C   UNL     1      41.930   6.499  17.758  0.00  0.00    +0.000 A 
ATOM     13  C   UNL     1      40.791   6.200  18.467  0.00  0.00    +0.000 A 
ATOM     14  C   UNL     1      40.856   6.324  19.964  0.00  0.00    +0.000 C 
ATOM     15  C   UNL     1      39.630   5.804  17.844  0.00  0.00    +0.000 A 
ENDBRANCH   5   8
BRANCH   1  16
ATOM     16  N   UNL     1      35.083   5.730  14.160  0.00  0.00    +0.000 NA
BRANCH  16  20
ATOM     17  C   UNL     1      35.248   6.685  10.014  0.00  0.00    +0.000 A 
ATOM     18  C   UNL     1      36.131   5.818  10.615  0.00  0.00    +0.000 A 
ATOM     19  C   UNL     1      36.086   5.506  11.949  0.00  0.00    +0.000 A 
ATOM     20  C   UNL     1      35.129   6.065  12.760  0.00  0.00    +0.000 A 
ATOM     21  C   UNL     1      34.225   6.936  12.207  0.00  0.00    +0.000 A 
ATOM     22  C   UNL     1      34.288   7.235  10.869  0.00  0.00    +0.000 A 
BRANCH  17  23
ATOM     23  O   UNL     1      35.277   7.013   8.665  0.00  0.00    +0.000 OA
BRANCH  23  25
ATOM     24  C   UNL     1      33.447   6.582   7.114  0.00  0.00    +0.000 C 
ATOM     25  C   UNL     1      34.751   6.150   7.701  0.00  0.00    +0.000 C 
ENDBRANCH  23  25
ENDBRANCH  17  23
ENDBRANCH  16  20
ENDBRANCH   1  16
BRANCH   2  26
ATOM     26  S   UNL     1      35.660   2.601  14.320  0.00  0.00    +0.000 S 
BRANCH  26  27
ATOM     27  C   UNL     1      35.594   1.229  15.427  0.00  0.00    +0.000 A 
ATOM     28  C   UNL     1      36.255   0.048  15.023  0.00  0.00    +0.000 A 
ATOM     29  C   UNL     1      36.248  -1.063  15.803  0.00  0.00    +0.000 A 
ATOM     30  C   UNL     1      35.606  -1.115  17.024  0.00  0.00    +0.000 A 
ATOM     31  C   UNL     1      34.962   0.048  17.407  0.00  0.00    +0.000 A 
ATOM     32  C   UNL     1      34.960   1.176  16.633  0.00  0.00    +0.000 A 
ENDBRANCH  26  27
ENDBRANCH   2  26
TORSDOF 7
ENDMDL
MODEL 7
REMARK VINA RESULT:      -7.6      1.903      2.703
REMARK  Name = 
REMARK  7 active torsions:
REMARK  status: ('A' for Active; 'I' for Inactive)
REMARK    1  A    between atoms: C_2  and  O_3
REMARK    2  A    between atoms: O_3  and  C_4
REMARK    3  A    between atoms: C_7  and  N_8
REMARK    4  A    between atoms: N_8  and  C_9
REMARK    5  A    between atoms: C_10  and  S_11
REMARK    6  A    between atoms: S_11  and  C_12
REMARK    7  A    between atoms: N_20  and  C_21
REMARK                            x       y       z     vdW  Elec       q    Type
REMARK                         _______ _______ _______ _____ _____    ______ ____
ROOT
ATOM      1  C   UNL     1      37.479   3.939  15.335  0.00  0.00    +0.000 C 
ATOM      2  C   UNL     1      37.797   5.028  14.591  0.00  0.00    +0.000 C 
ATOM      3  C   UNL     1      38.351   6.031  15.482  0.00  0.00    +0.000 C 
ATOM      4  O   UNL     1      38.784   7.195  15.248  0.00  0.00    +0.000 OA
ATOM      5  N   UNL     1      38.365   5.512  16.830  0.00  0.00    +0.000 N 
ATOM      6  C   UNL     1      37.818   4.213  16.714  0.00  0.00    +0.000 C 
ATOM      7  O   UNL     1      37.651   3.407  17.677  0.00  0.00    +0.000 OA
ENDROOT
BRANCH   5   8
ATOM      8  C   UNL     1      38.828   6.177  17.996  0.00  0.00    +0.000 A 
ATOM      9  C   UNL     1      40.019   5.863  18.613  0.00  0.00    +0.000 A 
ATOM     10  C   UNL     1      40.461   6.516  19.748  0.00  0.00    +0.000 A 
ATOM     11  C   UNL     1      41.746   6.169  20.406  0.00  0.00    +0.000 C 
ATOM     12  C   UNL     1      39.708   7.525  20.312  0.00  0.00    +0.000 A 
ATOM     13  C   UNL     1      38.516   7.850  19.708  0.00  0.00    +0.000 A 
ATOM     14  C   UNL     1      37.703   8.951  20.331  0.00  0.00    +0.000 C 
ATOM     15  C   UNL     1      38.074   7.201  18.578  0.00  0.00    +0.000 A 
ENDBRANCH   5   8
BRANCH   1  16
ATOM     16  N   UNL     1      36.917   2.719  14.875  0.00  0.00    +0.000 NA
BRANCH  16  20
ATOM     17  C   UNL     1      39.345  -0.771  15.106  0.00  0.00    +0.000 A 
ATOM     18  C   UNL     1      38.030  -0.750  15.509  0.00  0.00    +0.000 A 
ATOM     19  C   UNL     1      37.242   0.370  15.439  0.00  0.00    +0.000 A 
ATOM     20  C   UNL     1      37.751   1.547  14.951  0.00  0.00    +0.000 A 
ATOM     21  C   UNL     1      39.058   1.577  14.536  0.00  0.00    +0.000 A 
ATOM     22  C   UNL     1      39.830   0.445  14.615  0.00  0.00    +0.000 A 
BRANCH  17  23
ATOM     23  O   UNL     1      40.159  -1.893  15.168  0.00  0.00    +0.000 OA
BRANCH  23  25
ATOM     24  C   UNL     1      41.373  -2.805  13.260  0.00  0.00    +0.000 C 
ATOM     25  C   UNL     1      41.374  -1.942  14.480  0.00  0.00    +0.000 C 
ENDBRANCH  23  25
ENDBRANCH  17  23
ENDBRANCH  16  20
ENDBRANCH   1  16
BRANCH   2  26
ATOM     26  S   UNL     1      37.546   5.095  12.847  0.00  0.00    +0.000 S 
BRANCH  26  27
ATOM     27  C   UNL     1      38.452   3.889  11.931  0.00  0.00    +0.000 A 
ATOM     28  C   UNL     1      37.711   2.836  11.352  0.00  0.00    +0.000 A 
ATOM     29  C   UNL     1      38.324   1.856  10.639  0.00  0.00    +0.000 A 
ATOM     30  C   UNL     1      39.688   1.821  10.434  0.00  0.00    +0.000 A 
ATOM     31  C   UNL     1      40.402   2.860  11.007  0.00  0.00    +0.000 A 
ATOM     32  C   UNL     1      39.800   3.855  11.728  0.00  0.00    +0.000 A 
ENDBRANCH  26  27
ENDBRANCH   2  26
TORSDOF 7
ENDMDL
MODEL 8
REMARK VINA RESULT:      -7.5     22.481     27.021
REMARK  Name = 
REMARK  7 active torsions:
REMARK  status: ('A' for Active; 'I' for Inactive)
REMARK    1  A    between atoms: C_2  and  O_3
REMARK    2  A    between atoms: O_3  and  C_4
REMARK    3  A    between atoms: C_7  and  N_8
REMARK    4  A    between atoms: N_8  and  C_9
REMARK    5  A    between atoms: C_10  and  S_11
REMARK    6  A    between atoms: S_11  and  C_12
REMARK    7  A    between atoms: N_20  and  C_21
REMARK                            x       y       z     vdW  Elec       q    Type
REMARK                         _______ _______ _______ _____ _____    ______ ____
ROOT
ATOM      1  C   UNL     1      27.463  15.886  38.492  0.00  0.00    +0.000 C 
ATOM      2  C   UNL     1      26.157  15.814  38.132  0.00  0.00    +0.000 C 
ATOM      3  C   UNL     1      25.527  14.786  38.939  0.00  0.00    +0.000 C 
ATOM      4  O   UNL     1      24.336  14.365  38.960  0.00  0.00    +0.000 OA
ATOM      5  N   UNL     1      26.512  14.213  39.830  0.00  0.00    +0.000 N 
ATOM      6  C   UNL     1      27.704  14.912  39.533  0.00  0.00    +0.000 C 
ATOM      7  O   UNL     1      28.821  14.714  40.097  0.00  0.00    +0.000 OA
ENDROOT
BRANCH   5   8
ATOM      8  C   UNL     1      26.303  13.181  40.782  0.00  0.00    +0.000 A 
ATOM      9  C   UNL     1      25.607  13.374  41.955  0.00  0.00    +0.000 A 
ATOM     10  C   UNL     1      25.410  12.362  42.875  0.00  0.00    +0.000 A 
ATOM     11  C   UNL     1      24.658  12.581  44.137  0.00  0.00    +0.000 C 
ATOM     12  C   UNL     1      25.916  11.099  42.644  0.00  0.00    +0.000 A 
ATOM     13  C   UNL     1      26.614  10.891  41.479  0.00  0.00    +0.000 A 
ATOM     14  C   UNL     1      27.160   9.510  41.237  0.00  0.00    +0.000 C 
ATOM     15  C   UNL     1      26.811  11.896  40.560  0.00  0.00    +0.000 A 
ENDBRANCH   5   8
BRANCH   1  16
ATOM     16  N   UNL     1      28.451  16.760  37.967  0.00  0.00    +0.000 NA
BRANCH  16  20
ATOM     17  C   UNL     1      31.138  15.124  35.099  0.00  0.00    +0.000 A 
ATOM     18  C   UNL     1      31.438  15.207  36.438  0.00  0.00    +0.000 A 
ATOM     19  C   UNL     1      30.579  15.734  37.368  0.00  0.00    +0.000 A 
ATOM     20  C   UNL     1      29.351  16.213  36.985  0.00  0.00    +0.000 A 
ATOM     21  C   UNL     1      29.006  16.153  35.659  0.00  0.00    +0.000 A 
ATOM     22  C   UNL     1      29.880  15.622  34.744  0.00  0.00    +0.000 A 
BRANCH  17  23
ATOM     23  O   UNL     1      31.993  14.594  34.141  0.00  0.00    +0.000 OA
BRANCH  23  25
ATOM     24  C   UNL     1      33.045  16.112  32.550  0.00  0.00    +0.000 C 
ATOM     25  C   UNL     1      33.164  15.260  33.771  0.00  0.00    +0.000 C 
ENDBRANCH  23  25
ENDBRANCH  17  23
ENDBRANCH  16  20
ENDBRANCH   1  16
BRANCH   2  26
ATOM     26  S   UNL     1      25.454  16.850  36.891  0.00  0.00    +0.000 S 
BRANCH  26  27
ATOM     27  C   UNL     1      25.447  16.151  35.271  0.00  0.00    +0.000 A 
ATOM     28  C   UNL     1      25.020  16.986  34.215  0.00  0.00    +0.000 A 
ATOM     29  C   UNL     1      24.970  16.532  32.937  0.00  0.00    +0.000 A 
ATOM     30  C   UNL     1      25.327  15.246  32.586  0.00  0.00    +0.000 A 
ATOM     31  C   UNL     1      25.744  14.438  33.630  0.00  0.00    +0.000 A 
ATOM     32  C   UNL     1      25.800  14.881  34.924  0.00  0.00    +0.000 A 
ENDBRANCH  26  27
ENDBRANCH   2  26
TORSDOF 7
ENDMDL
MODEL 9
REMARK VINA RESULT:      -7.5      3.219      6.871
REMARK  Name = 
REMARK  7 active torsions:
REMARK  status: ('A' for Active; 'I' for Inactive)
REMARK    1  A    between atoms: C_2  and  O_3
REMARK    2  A    between atoms: O_3  and  C_4
REMARK    3  A    between atoms: C_7  and  N_8
REMARK    4  A    between atoms: N_8  and  C_9
REMARK    5  A    between atoms: C_10  and  S_11
REMARK    6  A    between atoms: S_11  and  C_12
REMARK    7  A    between atoms: N_20  and  C_21
REMARK                            x       y       z     vdW  Elec       q    Type
REMARK                         _______ _______ _______ _____ _____    ______ ____
ROOT
ATOM      1  C   UNL     1      36.655  -0.126  14.525  0.00  0.00    +0.000 C 
ATOM      2  C   UNL     1      35.900  -0.012  15.647  0.00  0.00    +0.000 C 
ATOM      3  C   UNL     1      35.697   1.401  15.907  0.00  0.00    +0.000 C 
ATOM      4  O   UNL     1      35.067   1.989  16.831  0.00  0.00    +0.000 OA
ATOM      5  N   UNL     1      36.368   2.172  14.885  0.00  0.00    +0.000 N 
ATOM      6  C   UNL     1      36.954   1.202  14.040  0.00  0.00    +0.000 C 
ATOM      7  O   UNL     1      37.642   1.460  13.007  0.00  0.00    +0.000 OA
ENDROOT
BRANCH   5   8
ATOM      8  C   UNL     1      36.412   3.587  14.775  0.00  0.00    +0.000 A 
ATOM      9  C   UNL     1      37.479   4.339  15.215  0.00  0.00    +0.000 A 
ATOM     10  C   UNL     1      37.512   5.715  15.105  0.00  0.00    +0.000 A 
ATOM     11  C   UNL     1      38.668   6.517  15.583  0.00  0.00    +0.000 C 
ATOM     12  C   UNL     1      36.454   6.397  14.538  0.00  0.00    +0.000 A 
ATOM     13  C   UNL     1      35.381   5.661  14.095  0.00  0.00    +0.000 A 
ATOM     14  C   UNL     1      34.234   6.413  13.479  0.00  0.00    +0.000 C 
ATOM     15  C   UNL     1      35.346   4.289  14.203  0.00  0.00    +0.000 A 
ENDBRANCH   5   8
BRANCH   1  16
ATOM     16  N   UNL     1      37.088  -1.325  13.900  0.00  0.00    +0.000 NA
BRANCH  16  20
ATOM     17  C   UNL     1      41.282  -2.043  13.768  0.00  0.00    +0.000 A 
ATOM     18  C   UNL     1      40.488  -2.056  12.645  0.00  0.00    +0.000 A 
ATOM     19  C   UNL     1      39.137  -1.827  12.679  0.00  0.00    +0.000 A 
ATOM     20  C   UNL     1      38.507  -1.570  13.871  0.00  0.00    +0.000 A 
ATOM     21  C   UNL     1      39.256  -1.547  15.020  0.00  0.00    +0.000 A 
ATOM     22  C   UNL     1      40.607  -1.778  14.964  0.00  0.00    +0.000 A 
BRANCH  17  23
ATOM     23  O   UNL     1      42.652  -2.272  13.755  0.00  0.00    +0.000 OA
BRANCH  23  25
ATOM     24  C   UNL     1      43.648  -0.093  14.206  0.00  0.00    +0.000 C 
ATOM     25  C   UNL     1      43.514  -1.536  14.571  0.00  0.00    +0.000 C 
ENDBRANCH  23  25
ENDBRANCH  17  23
ENDBRANCH  16  20
ENDBRANCH   1  16
BRANCH   2  26
ATOM     26  S   UNL     1      35.314  -1.412  16.545  0.00  0.00    +0.000 S 
BRANCH  26  27
ATOM     27  C   UNL     1      36.584  -2.462  17.175  0.00  0.00    +0.000 A 
ATOM     28  C   UNL     1      37.371  -1.952  18.231  0.00  0.00    +0.000 A 
ATOM     29  C   UNL     1      38.379  -2.683  18.772  0.00  0.00    +0.000 A 
ATOM     30  C   UNL     1      38.699  -3.953  18.336  0.00  0.00    +0.000 A 
ATOM     31  C   UNL     1      37.920  -4.440  17.301  0.00  0.00    +0.000 A 
ATOM     32  C   UNL     1      36.900  -3.716  16.745  0.00  0.00    +0.000 A 
ENDBRANCH  26  27
ENDBRANCH   2  26
TORSDOF 7
ENDMDL
MODEL 10
REMARK VINA RESULT:      -7.4     24.533     27.821
REMARK  Name = 
REMARK  7 active torsions:
REMARK  status: ('A' for Active; 'I' for Inactive)
REMARK    1  A    between atoms: C_2  and  O_3
REMARK    2  A    between atoms: O_3  and  C_4
REMARK    3  A    between atoms: C_7  and  N_8
REMARK    4  A    between atoms: N_8  and  C_9
REMARK    5  A    between atoms: C_10  and  S_11
REMARK    6  A    between atoms: S_11  and  C_12
REMARK    7  A    between atoms: N_20  and  C_21
REMARK                            x       y       z     vdW  Elec       q    Type
REMARK                         _______ _______ _______ _____ _____    ______ ____
ROOT
ATOM      1  C   UNL     1      26.462  15.065  39.367  0.00  0.00    +0.000 C 
ATOM      2  C   UNL     1      27.732  15.306  38.954  0.00  0.00    +0.000 C 
ATOM      3  C   UNL     1      27.678  15.719  37.564  0.00  0.00    +0.000 C 
ATOM      4  O   UNL     1      28.599  16.043  36.763  0.00  0.00    +0.000 OA
ATOM      5  N   UNL     1      26.302  15.724  37.124  0.00  0.00    +0.000 N 
ATOM      6  C   UNL     1      25.567  15.315  38.259  0.00  0.00    +0.000 C 
ATOM      7  O   UNL     1      24.307  15.187  38.301  0.00  0.00    +0.000 OA
ENDROOT
BRANCH   5   8
ATOM      8  C   UNL     1      25.820  16.069  35.833  0.00  0.00    +0.000 A 
ATOM      9  C   UNL     1      25.385  17.335  35.510  0.00  0.00    +0.000 A 
ATOM     10  C   UNL     1      24.918  17.659  34.251  0.00  0.00    +0.000 A 
ATOM     11  C   UNL     1      24.450  19.028  33.913  0.00  0.00    +0.000 C 
ATOM     12  C   UNL     1      24.870  16.705  33.255  0.00  0.00    +0.000 A 
ATOM     13  C   UNL     1      25.300  15.436  33.562  0.00  0.00    +0.000 A 
ATOM     14  C   UNL     1      25.243  14.403  32.470  0.00  0.00    +0.000 C 
ATOM     15  C   UNL     1      25.766  15.110  34.815  0.00  0.00    +0.000 A 
ENDBRANCH   5   8
BRANCH   1  16
ATOM     16  N   UNL     1      26.044  14.647  40.658  0.00  0.00    +0.000 NA
BRANCH  16  20
ATOM     17  C   UNL     1      27.650  11.000  42.154  0.00  0.00    +0.000 A 
ATOM     18  C   UNL     1      27.686  12.176  42.865  0.00  0.00    +0.000 A 
ATOM     19  C   UNL     1      27.172  13.356  42.390  0.00  0.00    +0.000 A 
ATOM     20  C   UNL     1      26.586  13.407  41.150  0.00  0.00    +0.000 A 
ATOM     21  C   UNL     1      26.527  12.259  40.401  0.00  0.00    +0.000 A 
ATOM     22  C   UNL     1      27.047  11.089  40.895  0.00  0.00    +0.000 A 
BRANCH  17  23
ATOM     23  O   UNL     1      28.164   9.795  42.617  0.00  0.00    +0.000 OA
BRANCH  23  25
ATOM     24  C   UNL     1      29.906   8.591  41.410  0.00  0.00    +0.000 C 
ATOM     25  C   UNL     1      28.457   8.751  41.737  0.00  0.00    +0.000 C 
ENDBRANCH  23  25
ENDBRANCH  17  23
ENDBRANCH  16  20
ENDBRANCH   1  16
BRANCH   2  26
ATOM     26  S   UNL     1      29.127  15.126  40.016  0.00  0.00    +0.000 S 
BRANCH  26  27
ATOM     27  C   UNL     1      30.213  13.804  39.581  0.00  0.00    +0.000 A 
ATOM     28  C   UNL     1      30.981  13.967  38.407  0.00  0.00    +0.000 A 
ATOM     29  C   UNL     1      31.835  12.998  37.987  0.00  0.00    +0.000 A 
ATOM     30  C   UNL     1      32.009  11.809  38.665  0.00  0.00    +0.000 A 
ATOM     31  C   UNL     1      31.250  11.663  39.814  0.00  0.00    +0.000 A 
ATOM     32  C   UNL     1      30.385  12.629  40.251  0.00  0.00    +0.000 A 
ENDBRANCH  26  27
ENDBRANCH   2  26
TORSDOF 7
ENDMDL
