MODEL 1
REMARK VINA RESULT:      -6.1      0.000      0.000
REMARK  Name = 
REMARK  2 active torsions:
REMARK  status: ('A' for Active; 'I' for Inactive)
REMARK    1  A    between atoms: C_5  and  C_6
REMARK    2  A    between atoms: C_11  and  N_12
REMARK                            x       y       z     vdW  Elec       q    Type
REMARK                         _______ _______ _______ _____ _____    ______ ____
ROOT
ATOM      1  C   UNL     1      28.628  23.425  25.155  0.00  0.00    +0.000 A 
ATOM      2  C   UNL     1      27.339  23.012  25.079  0.00  0.00    +0.000 A 
ATOM      3  C   UNL     1      26.635  23.205  23.909  0.00  0.00    +0.000 A 
ATOM      4  C   UNL     1      27.198  23.809  22.800  0.00  0.00    +0.000 A 
ATOM      5  C   UNL     1      26.393  23.993  21.572  0.00  0.00    +0.000 C 
ATOM      6  C   UNL     1      28.508  24.221  22.892  0.00  0.00    +0.000 A 
ATOM      7  C   UNL     1      29.206  24.027  24.063  0.00  0.00    +0.000 A 
ATOM      8  C   UNL     1      30.627  24.478  24.157  0.00  0.00    +0.000 C 
ENDROOT
BRANCH   1  13
ATOM      9  C   UNL     1      31.831  22.702  29.863  0.00  0.00    +0.000 C 
ATOM     10  C   UNL     1      30.998  22.893  28.648  0.00  0.00    +0.000 A 
ATOM     11  C   UNL     1      31.032  21.975  27.618  0.00  0.00    +0.000 A 
ATOM     12  C   UNL     1      30.256  22.172  26.499  0.00  0.00    +0.000 A 
ATOM     13  C   UNL     1      29.436  23.259  26.361  0.00  0.00    +0.000 A 
ATOM     14  C   UNL     1      29.407  24.166  27.387  0.00  0.00    +0.000 A 
ATOM     15  C   UNL     1      28.542  25.363  27.304  0.00  0.00    +0.000 C 
ATOM     16  C   UNL     1      30.170  24.003  28.522  0.00  0.00    +0.000 A 
ATOM     17  N   UNL     1      30.170  24.921  29.612  0.00  0.00    +0.000 NA
ENDBRANCH   1  13
BRANCH   6  18
ATOM     18  N   UNL     1      29.171  24.845  21.819  0.00  0.00    +0.000 N 
ATOM     19  O   UNL     1      29.737  24.173  20.948  0.00  0.00    +0.000 OA
ATOM     20  O   UNL     1      29.199  26.205  21.727  0.00  0.00    +0.000 OA
ENDBRANCH   6  18
TORSDOF 2
ENDMDL
MODEL 2
REMARK VINA RESULT:      -6.0     34.152     35.191
REMARK  Name = 
REMARK  2 active torsions:
REMARK  status: ('A' for Active; 'I' for Inactive)
REMARK    1  A    between atoms: C_5  and  C_6
REMARK    2  A    between atoms: C_11  and  N_12
REMARK                            x       y       z     vdW  Elec       q    Type
REMARK                         _______ _______ _______ _____ _____    ______ ____
ROOT
ATOM      1  C   UNL     1      17.746  -9.516  27.404  0.00  0.00    +0.000 A 
ATOM      2  C   UNL     1      16.670  -9.994  26.733  0.00  0.00    +0.000 A 
ATOM      3  C   UNL     1      15.731 -10.746  27.407  0.00  0.00    +0.000 A 
ATOM      4  C   UNL     1      15.846 -11.035  28.755  0.00  0.00    +0.000 A 
ATOM      5  C   UNL     1      14.810 -11.850  29.426  0.00  0.00    +0.000 C 
ATOM      6  C   UNL     1      16.945 -10.541  29.423  0.00  0.00    +0.000 A 
ATOM      7  C   UNL     1      17.879  -9.792  28.744  0.00  0.00    +0.000 A 
ATOM      8  C   UNL     1      19.069  -9.260  29.475  0.00  0.00    +0.000 C 
ENDROOT
BRANCH   1  13
ATOM      9  C   UNL     1      21.870  -6.444  24.853  0.00  0.00    +0.000 C 
ATOM     10  C   UNL     1      20.801  -7.234  25.516  0.00  0.00    +0.000 A 
ATOM     11  C   UNL     1      20.931  -8.597  25.682  0.00  0.00    +0.000 A 
ATOM     12  C   UNL     1      19.927  -9.312  26.296  0.00  0.00    +0.000 A 
ATOM     13  C   UNL     1      18.784  -8.716  26.757  0.00  0.00    +0.000 A 
ATOM     14  C   UNL     1      18.662  -7.362  26.589  0.00  0.00    +0.000 A 
ATOM     15  C   UNL     1      17.453  -6.656  27.065  0.00  0.00    +0.000 C 
ATOM     16  C   UNL     1      19.645  -6.615  25.979  0.00  0.00    +0.000 A 
ATOM     17  N   UNL     1      19.558  -5.206  25.785  0.00  0.00    +0.000 NA
ENDBRANCH   1  13
BRANCH   6  18
ATOM     18  N   UNL     1      17.152 -10.779  30.795  0.00  0.00    +0.000 N 
ATOM     19  O   UNL     1      16.710  -9.998  31.646  0.00  0.00    +0.000 OA
ATOM     20  O   UNL     1      17.847 -11.878  31.203  0.00  0.00    +0.000 OA
ENDBRANCH   6  18
TORSDOF 2
ENDMDL
MODEL 3
REMARK VINA RESULT:      -6.0     20.682     22.218
REMARK  Name = 
REMARK  2 active torsions:
REMARK  status: ('A' for Active; 'I' for Inactive)
REMARK    1  A    between atoms: C_5  and  C_6
REMARK    2  A    between atoms: C_11  and  N_12
REMARK                            x       y       z     vdW  Elec       q    Type
REMARK                         _______ _______ _______ _____ _____    ______ ____
ROOT
ATOM      1  C   UNL     1      26.126   4.820  17.153  0.00  0.00    +0.000 A 
ATOM      2  C   UNL     1      25.990   6.152  17.364  0.00  0.00    +0.000 A 
ATOM      3  C   UNL     1      27.081   6.978  17.198  0.00  0.00    +0.000 A 
ATOM      4  C   UNL     1      28.321   6.497  16.820  0.00  0.00    +0.000 A 
ATOM      5  C   UNL     1      29.458   7.430  16.659  0.00  0.00    +0.000 C 
ATOM      6  C   UNL     1      28.443   5.142  16.608  0.00  0.00    +0.000 A 
ATOM      7  C   UNL     1      27.351   4.322  16.777  0.00  0.00    +0.000 A 
ATOM      8  C   UNL     1      27.490   2.852  16.546  0.00  0.00    +0.000 C 
ENDROOT
BRANCH   1  13
ATOM      9  C   UNL     1      21.794   1.123  17.868  0.00  0.00    +0.000 C 
ATOM     10  C   UNL     1      22.915   2.078  17.676  0.00  0.00    +0.000 A 
ATOM     11  C   UNL     1      23.749   2.407  18.726  0.00  0.00    +0.000 A 
ATOM     12  C   UNL     1      24.780   3.297  18.530  0.00  0.00    +0.000 A 
ATOM     13  C   UNL     1      25.018   3.882  17.314  0.00  0.00    +0.000 A 
ATOM     14  C   UNL     1      24.187   3.551  16.277  0.00  0.00    +0.000 A 
ATOM     15  C   UNL     1      24.389   4.145  14.938  0.00  0.00    +0.000 C 
ATOM     16  C   UNL     1      23.145   2.665  16.437  0.00  0.00    +0.000 A 
ATOM     17  N   UNL     1      22.257   2.293  15.385  0.00  0.00    +0.000 NA
ENDBRANCH   1  13
BRANCH   6  18
ATOM     18  N   UNL     1      29.662   4.554  16.220  0.00  0.00    +0.000 N 
ATOM     19  O   UNL     1      29.946   4.417  15.024  0.00  0.00    +0.000 OA
ATOM     20  O   UNL     1      30.549   4.127  17.164  0.00  0.00    +0.000 OA
ENDBRANCH   6  18
TORSDOF 2
ENDMDL
MODEL 4
REMARK VINA RESULT:      -5.9     20.542     22.041
REMARK  Name = 
REMARK  2 active torsions:
REMARK  status: ('A' for Active; 'I' for Inactive)
REMARK    1  A    between atoms: C_5  and  C_6
REMARK    2  A    between atoms: C_11  and  N_12
REMARK                            x       y       z     vdW  Elec       q    Type
REMARK                         _______ _______ _______ _____ _____    ______ ____
ROOT
ATOM      1  C   UNL     1      26.104   4.658  17.539  0.00  0.00    +0.000 A 
ATOM      2  C   UNL     1      26.863   5.050  18.592  0.00  0.00    +0.000 A 
ATOM      3  C   UNL     1      27.897   5.938  18.388  0.00  0.00    +0.000 A 
ATOM      4  C   UNL     1      28.194   6.450  17.138  0.00  0.00    +0.000 A 
ATOM      5  C   UNL     1      29.318   7.399  16.976  0.00  0.00    +0.000 C 
ATOM      6  C   UNL     1      27.413   6.043  16.079  0.00  0.00    +0.000 A 
ATOM      7  C   UNL     1      26.383   5.155  16.289  0.00  0.00    +0.000 A 
ATOM      8  C   UNL     1      25.541   4.717  15.135  0.00  0.00    +0.000 C 
ENDROOT
BRANCH   1  13
ATOM      9  C   UNL     1      21.698   1.023  18.104  0.00  0.00    +0.000 C 
ATOM     10  C   UNL     1      22.843   1.959  17.959  0.00  0.00    +0.000 A 
ATOM     11  C   UNL     1      22.680   3.311  18.178  0.00  0.00    +0.000 A 
ATOM     12  C   UNL     1      23.751   4.163  18.035  0.00  0.00    +0.000 A 
ATOM     13  C   UNL     1      24.996   3.716  17.677  0.00  0.00    +0.000 A 
ATOM     14  C   UNL     1      25.150   2.372  17.461  0.00  0.00    +0.000 A 
ATOM     15  C   UNL     1      26.467   1.824  17.074  0.00  0.00    +0.000 C 
ATOM     16  C   UNL     1      24.100   1.491  17.595  0.00  0.00    +0.000 A 
ATOM     17  N   UNL     1      24.217   0.087  17.380  0.00  0.00    +0.000 NA
ENDBRANCH   1  13
BRANCH   6  18
ATOM     18  N   UNL     1      27.634   6.507  14.768  0.00  0.00    +0.000 N 
ATOM     19  O   UNL     1      27.064   7.524  14.353  0.00  0.00    +0.000 OA
ATOM     20  O   UNL     1      28.482   5.838  13.937  0.00  0.00    +0.000 OA
ENDBRANCH   6  18
TORSDOF 2
ENDMDL
MODEL 5
REMARK VINA RESULT:      -5.9     21.103     22.492
REMARK  Name = 
REMARK  2 active torsions:
REMARK  status: ('A' for Active; 'I' for Inactive)
REMARK    1  A    between atoms: C_5  and  C_6
REMARK    2  A    between atoms: C_11  and  N_12
REMARK                            x       y       z     vdW  Elec       q    Type
REMARK                         _______ _______ _______ _____ _____    ______ ____
ROOT
ATOM      1  C   UNL     1      25.006   3.781  17.340  0.00  0.00    +0.000 A 
ATOM      2  C   UNL     1      24.737   3.227  18.548  0.00  0.00    +0.000 A 
ATOM      3  C   UNL     1      23.666   2.369  18.675  0.00  0.00    +0.000 A 
ATOM      4  C   UNL     1      22.848   2.046  17.607  0.00  0.00    +0.000 A 
ATOM      5  C   UNL     1      21.710   1.120  17.802  0.00  0.00    +0.000 C 
ATOM      6  C   UNL     1      23.136   2.615  16.387  0.00  0.00    +0.000 A 
ATOM      7  C   UNL     1      24.206   3.473  16.267  0.00  0.00    +0.000 A 
ATOM      8  C   UNL     1      24.512   4.088  14.940  0.00  0.00    +0.000 C 
ENDROOT
BRANCH   1  13
ATOM      9  C   UNL     1      29.331   7.469  16.534  0.00  0.00    +0.000 C 
ATOM     10  C   UNL     1      28.214   6.510  16.738  0.00  0.00    +0.000 A 
ATOM     11  C   UNL     1      26.971   6.951  17.144  0.00  0.00    +0.000 A 
ATOM     12  C   UNL     1      25.951   6.047  17.332  0.00  0.00    +0.000 A 
ATOM     13  C   UNL     1      26.120   4.703  17.130  0.00  0.00    +0.000 A 
ATOM     14  C   UNL     1      27.357   4.272  16.728  0.00  0.00    +0.000 A 
ATOM     15  C   UNL     1      27.607   2.834  16.491  0.00  0.00    +0.000 C 
ATOM     16  C   UNL     1      28.401   5.148  16.530  0.00  0.00    +0.000 A 
ATOM     17  N   UNL     1      29.702   4.742  16.112  0.00  0.00    +0.000 NA
ENDBRANCH   1  13
BRANCH   6  18
ATOM     18  N   UNL     1      22.364   2.350  15.240  0.00  0.00    +0.000 N 
ATOM     19  O   UNL     1      21.381   3.048  14.964  0.00  0.00    +0.000 OA
ATOM     20  O   UNL     1      22.693   1.314  14.416  0.00  0.00    +0.000 OA
ENDBRANCH   6  18
TORSDOF 2
ENDMDL
MODEL 6
REMARK VINA RESULT:      -5.8     21.234     22.623
REMARK  Name = 
REMARK  2 active torsions:
REMARK  status: ('A' for Active; 'I' for Inactive)
REMARK    1  A    between atoms: C_5  and  C_6
REMARK    2  A    between atoms: C_11  and  N_12
REMARK                            x       y       z     vdW  Elec       q    Type
REMARK                         _______ _______ _______ _____ _____    ______ ____
ROOT
ATOM      1  C   UNL     1      25.000   3.759  17.560  0.00  0.00    +0.000 A 
ATOM      2  C   UNL     1      23.788   4.157  18.017  0.00  0.00    +0.000 A 
ATOM      3  C   UNL     1      22.783   3.225  18.169  0.00  0.00    +0.000 A 
ATOM      4  C   UNL     1      22.965   1.887  17.871  0.00  0.00    +0.000 A 
ATOM      5  C   UNL     1      21.849   0.932  18.050  0.00  0.00    +0.000 C 
ATOM      6  C   UNL     1      24.202   1.498  17.409  0.00  0.00    +0.000 A 
ATOM      7  C   UNL     1      25.202   2.433  17.258  0.00  0.00    +0.000 A 
ATOM      8  C   UNL     1      26.542   2.004  16.756  0.00  0.00    +0.000 C 
ENDROOT
BRANCH   1  13
ATOM      9  C   UNL     1      29.386   7.402  16.890  0.00  0.00    +0.000 C 
ATOM     10  C   UNL     1      28.247   6.461  17.058  0.00  0.00    +0.000 A 
ATOM     11  C   UNL     1      27.987   5.882  18.283  0.00  0.00    +0.000 A 
ATOM     12  C   UNL     1      26.930   5.010  18.418  0.00  0.00    +0.000 A 
ATOM     13  C   UNL     1      26.111   4.688  17.369  0.00  0.00    +0.000 A 
ATOM     14  C   UNL     1      26.376   5.267  16.155  0.00  0.00    +0.000 A 
ATOM     15  C   UNL     1      25.530   4.963  14.981  0.00  0.00    +0.000 C 
ATOM     16  C   UNL     1      27.425   6.143  15.983  0.00  0.00    +0.000 A 
ATOM     17  N   UNL     1      27.735   6.767  14.740  0.00  0.00    +0.000 NA
ENDBRANCH   1  13
BRANCH   6  18
ATOM     18  N   UNL     1      24.488   0.160  17.079  0.00  0.00    +0.000 N 
ATOM     19  O   UNL     1      24.973  -0.609  17.918  0.00  0.00    +0.000 OA
ATOM     20  O   UNL     1      24.234  -0.306  15.823  0.00  0.00    +0.000 OA
ENDBRANCH   6  18
TORSDOF 2
ENDMDL
MODEL 7
REMARK VINA RESULT:      -5.8      2.694      3.548
REMARK  Name = 
REMARK  2 active torsions:
REMARK  status: ('A' for Active; 'I' for Inactive)
REMARK    1  A    between atoms: C_5  and  C_6
REMARK    2  A    between atoms: C_11  and  N_12
REMARK                            x       y       z     vdW  Elec       q    Type
REMARK                         _______ _______ _______ _____ _____    ______ ____
ROOT
ATOM      1  C   UNL     1      30.433  22.964  26.349  0.00  0.00    +0.000 A 
ATOM      2  C   UNL     1      30.655  22.580  25.068  0.00  0.00    +0.000 A 
ATOM      3  C   UNL     1      29.663  22.756  24.128  0.00  0.00    +0.000 A 
ATOM      4  C   UNL     1      28.438  23.314  24.442  0.00  0.00    +0.000 A 
ATOM      5  C   UNL     1      27.408  23.476  23.392  0.00  0.00    +0.000 C 
ATOM      6  C   UNL     1      28.228  23.701  25.747  0.00  0.00    +0.000 A 
ATOM      7  C   UNL     1      29.222  23.521  26.682  0.00  0.00    +0.000 A 
ATOM      8  C   UNL     1      28.987  23.942  28.097  0.00  0.00    +0.000 C 
ENDROOT
BRANCH   1  13
ATOM      9  C   UNL     1      34.330  22.267  30.506  0.00  0.00    +0.000 C 
ATOM     10  C   UNL     1      33.322  22.454  29.431  0.00  0.00    +0.000 A 
ATOM     11  C   UNL     1      32.353  21.500  29.199  0.00  0.00    +0.000 A 
ATOM     12  C   UNL     1      31.431  21.689  28.195  0.00  0.00    +0.000 A 
ATOM     13  C   UNL     1      31.434  22.806  27.402  0.00  0.00    +0.000 A 
ATOM     14  C   UNL     1      32.399  23.749  27.637  0.00  0.00    +0.000 A 
ATOM     15  C   UNL     1      32.459  24.978  26.818  0.00  0.00    +0.000 C 
ATOM     16  C   UNL     1      33.338  23.593  28.632  0.00  0.00    +0.000 A 
ATOM     17  N   UNL     1      34.358  24.548  28.911  0.00  0.00    +0.000 NA
ENDBRANCH   1  13
BRANCH   6  18
ATOM     18  N   UNL     1      27.016  24.280  26.168  0.00  0.00    +0.000 N 
ATOM     19  O   UNL     1      26.859  25.506  26.145  0.00  0.00    +0.000 OA
ATOM     20  O   UNL     1      25.995  23.490  26.609  0.00  0.00    +0.000 OA
ENDBRANCH   6  18
TORSDOF 2
ENDMDL
MODEL 8
REMARK VINA RESULT:      -5.7      1.940      2.391
REMARK  Name = 
REMARK  2 active torsions:
REMARK  status: ('A' for Active; 'I' for Inactive)
REMARK    1  A    between atoms: C_5  and  C_6
REMARK    2  A    between atoms: C_11  and  N_12
REMARK                            x       y       z     vdW  Elec       q    Type
REMARK                         _______ _______ _______ _____ _____    ______ ____
ROOT
ATOM      1  C   UNL     1      29.727  24.702  25.589  0.00  0.00    +0.000 A 
ATOM      2  C   UNL     1      29.095  25.879  25.820  0.00  0.00    +0.000 A 
ATOM      3  C   UNL     1      28.340  26.450  24.819  0.00  0.00    +0.000 A 
ATOM      4  C   UNL     1      28.200  25.864  23.574  0.00  0.00    +0.000 A 
ATOM      5  C   UNL     1      27.379  26.525  22.535  0.00  0.00    +0.000 C 
ATOM      6  C   UNL     1      28.846  24.668  23.354  0.00  0.00    +0.000 A 
ATOM      7  C   UNL     1      29.600  24.103  24.358  0.00  0.00    +0.000 A 
ATOM      8  C   UNL     1      30.299  22.805  24.113  0.00  0.00    +0.000 C 
ENDROOT
BRANCH   1  13
ATOM      9  C   UNL     1      32.885  22.050  29.582  0.00  0.00    +0.000 C 
ATOM     10  C   UNL     1      32.071  22.742  28.549  0.00  0.00    +0.000 A 
ATOM     11  C   UNL     1      30.740  22.427  28.372  0.00  0.00    +0.000 A 
ATOM     12  C   UNL     1      30.004  23.076  27.407  0.00  0.00    +0.000 A 
ATOM     13  C   UNL     1      30.548  24.038  26.599  0.00  0.00    +0.000 A 
ATOM     14  C   UNL     1      31.870  24.345  26.779  0.00  0.00    +0.000 A 
ATOM     15  C   UNL     1      32.520  25.375  25.941  0.00  0.00    +0.000 C 
ATOM     16  C   UNL     1      32.638  23.716  27.734  0.00  0.00    +0.000 A 
ATOM     17  N   UNL     1      34.015  24.005  27.955  0.00  0.00    +0.000 NA
ENDBRANCH   1  13
BRANCH   6  18
ATOM     18  N   UNL     1      28.766  23.992  22.122  0.00  0.00    +0.000 N 
ATOM     19  O   UNL     1      27.876  23.158  21.916  0.00  0.00    +0.000 OA
ATOM     20  O   UNL     1      29.672  24.250  21.137  0.00  0.00    +0.000 OA
ENDBRANCH   6  18
TORSDOF 2
ENDMDL
MODEL 9
REMARK VINA RESULT:      -5.7     13.818     16.778
REMARK  Name = 
REMARK  2 active torsions:
REMARK  status: ('A' for Active; 'I' for Inactive)
REMARK    1  A    between atoms: C_5  and  C_6
REMARK    2  A    between atoms: C_11  and  N_12
REMARK                            x       y       z     vdW  Elec       q    Type
REMARK                         _______ _______ _______ _____ _____    ______ ____
ROOT
ATOM      1  C   UNL     1      32.015  21.696   8.984  0.00  0.00    +0.000 A 
ATOM      2  C   UNL     1      33.233  22.213   8.691  0.00  0.00    +0.000 A 
ATOM      3  C   UNL     1      33.881  21.810   7.543  0.00  0.00    +0.000 A 
ATOM      4  C   UNL     1      33.331  20.890   6.669  0.00  0.00    +0.000 A 
ATOM      5  C   UNL     1      34.073  20.492   5.452  0.00  0.00    +0.000 C 
ATOM      6  C   UNL     1      32.092  20.375   6.980  0.00  0.00    +0.000 A 
ATOM      7  C   UNL     1      31.451  20.781   8.129  0.00  0.00    +0.000 A 
ATOM      8  C   UNL     1      30.107  20.217   8.460  0.00  0.00    +0.000 C 
ENDROOT
BRANCH   1  13
ATOM      9  C   UNL     1      29.050  23.228  13.655  0.00  0.00    +0.000 C 
ATOM     10  C   UNL     1      29.823  22.829  12.450  0.00  0.00    +0.000 A 
ATOM     11  C   UNL     1      29.618  23.461  11.241  0.00  0.00    +0.000 A 
ATOM     12  C   UNL     1      30.340  23.074  10.135  0.00  0.00    +0.000 A 
ATOM     13  C   UNL     1      31.271  22.070  10.184  0.00  0.00    +0.000 A 
ATOM     14  C   UNL     1      31.468  21.447  11.388  0.00  0.00    +0.000 A 
ATOM     15  C   UNL     1      32.458  20.356  11.512  0.00  0.00    +0.000 C 
ATOM     16  C   UNL     1      30.763  21.807  12.516  0.00  0.00    +0.000 A 
ATOM     17  N   UNL     1      30.938  21.186  13.786  0.00  0.00    +0.000 NA
ENDBRANCH   1  13
BRANCH   6  18
ATOM     18  N   UNL     1      31.447  19.435   6.155  0.00  0.00    +0.000 N 
ATOM     19  O   UNL     1      31.647  18.223   6.302  0.00  0.00    +0.000 OA
ATOM     20  O   UNL     1      30.591  19.850   5.179  0.00  0.00    +0.000 OA
ENDBRANCH   6  18
TORSDOF 2
ENDMDL
MODEL 10
REMARK VINA RESULT:      -5.6      2.939      4.227
REMARK  Name = 
REMARK  2 active torsions:
REMARK  status: ('A' for Active; 'I' for Inactive)
REMARK    1  A    between atoms: C_5  and  C_6
REMARK    2  A    between atoms: C_11  and  N_12
REMARK                            x       y       z     vdW  Elec       q    Type
REMARK                         _______ _______ _______ _____ _____    ______ ____
ROOT
ATOM      1  C   UNL     1      26.383  24.505  25.988  0.00  0.00    +0.000 A 
ATOM      2  C   UNL     1      25.722  23.630  25.191  0.00  0.00    +0.000 A 
ATOM      3  C   UNL     1      26.245  23.311  23.956  0.00  0.00    +0.000 A 
ATOM      4  C   UNL     1      27.429  23.854  23.494  0.00  0.00    +0.000 A 
ATOM      5  C   UNL     1      27.942  23.478  22.158  0.00  0.00    +0.000 C 
ATOM      6  C   UNL     1      28.090  24.740  24.316  0.00  0.00    +0.000 A 
ATOM      7  C   UNL     1      27.562  25.055  25.547  0.00  0.00    +0.000 A 
ATOM      8  C   UNL     1      28.283  26.018  26.433  0.00  0.00    +0.000 C 
ENDROOT
BRANCH   1  13
ATOM      9  C   UNL     1      24.401  26.102  31.133  0.00  0.00    +0.000 C 
ATOM     10  C   UNL     1      24.919  25.686  29.805  0.00  0.00    +0.000 A 
ATOM     11  C   UNL     1      24.598  26.398  28.667  0.00  0.00    +0.000 A 
ATOM     12  C   UNL     1      25.084  25.994  27.445  0.00  0.00    +0.000 A 
ATOM     13  C   UNL     1      25.888  24.894  27.307  0.00  0.00    +0.000 A 
ATOM     14  C   UNL     1      26.203  24.192  28.440  0.00  0.00    +0.000 A 
ATOM     15  C   UNL     1      27.068  22.995  28.362  0.00  0.00    +0.000 C 
ATOM     16  C   UNL     1      25.734  24.566  29.680  0.00  0.00    +0.000 A 
ATOM     17  N   UNL     1      26.037  23.865  30.882  0.00  0.00    +0.000 NA
ENDBRANCH   1  13
BRANCH   6  18
ATOM     18  N   UNL     1      29.303  25.346  23.937  0.00  0.00    +0.000 N 
ATOM     19  O   UNL     1      29.309  26.435  23.351  0.00  0.00    +0.000 OA
ATOM     20  O   UNL     1      30.490  24.736  24.213  0.00  0.00    +0.000 OA
ENDBRANCH   6  18
TORSDOF 2
ENDMDL
