MODEL 1
REMARK VINA RESULT:      -9.3      0.000      0.000
REMARK  Name = 
REMARK  5 active torsions:
REMARK  status: ('A' for Active; 'I' for Inactive)
REMARK    1  A    between atoms: C_5  and  C_6
REMARK    2  A    between atoms: N_8  and  C_9
REMARK    3  A    between atoms: C_9  and  C_10
REMARK    4  A    between atoms: C_10  and  C_11
REMARK    5  A    between atoms: N_13  and  C_14
REMARK                            x       y       z     vdW  Elec       q    Type
REMARK                         _______ _______ _______ _____ _____    ______ ____
ROOT
ATOM      1  C   UNL     1      37.289  -0.027  14.897  0.00  0.00    +0.000 A 
ATOM      2  N   UNL     1      37.190   1.290  14.651  0.00  0.00    +0.000 NA
ATOM      3  N   UNL     1      36.213   2.007  15.194  0.00  0.00    +0.000 N 
ATOM      4  C   UNL     1      35.290   1.460  16.005  0.00  0.00    +0.000 A 
ATOM      5  O   UNL     1      34.369   2.146  16.514  0.00  0.00    +0.000 OA
ATOM      6  C   UNL     1      35.327   0.105  16.306  0.00  0.00    +0.000 A 
ATOM      7  C   UNL     1      34.394  -0.479  17.134  0.00  0.00    +0.000 A 
ATOM      8  C   UNL     1      34.500  -1.831  17.383  0.00  0.00    +0.000 A 
ATOM      9  C   UNL     1      35.520  -2.566  16.813  0.00  0.00    +0.000 A 
ATOM     10  C   UNL     1      36.451  -1.971  15.985  0.00  0.00    +0.000 A 
ATOM     11  C   UNL     1      36.347  -0.629  15.736  0.00  0.00    +0.000 A 
ENDROOT
BRANCH   1  16
ATOM     12  C   UNL     1      41.510  -3.303  12.820  0.00  0.00    +0.000 C 
ATOM     13  C   UNL     1      40.402  -2.459  13.341  0.00  0.00    +0.000 A 
ATOM     14  C   UNL     1      40.562  -1.775  14.511  0.00  0.00    +0.000 A 
ATOM     15  C   UNL     1      39.536  -0.994  14.992  0.00  0.00    +0.000 A 
ATOM     16  C   UNL     1      38.333  -0.868  14.335  0.00  0.00    +0.000 A 
ATOM     17  C   UNL     1      38.186  -1.567  13.153  0.00  0.00    +0.000 A 
ATOM     18  C   UNL     1      39.215  -2.359  12.658  0.00  0.00    +0.000 A 
ENDBRANCH   1  16
BRANCH   3  19
ATOM     19  C   UNL     1      36.145   3.425  14.900  0.00  0.00    +0.000 C 
BRANCH  19  20
ATOM     20  C   UNL     1      37.451   3.930  14.325  0.00  0.00    +0.000 C 
BRANCH  20  21
ATOM     21  C   UNL     1      38.352   4.272  15.471  0.00  0.00    +0.000 C 
ATOM     22  O   UNL     1      39.021   3.381  16.067  0.00  0.00    +0.000 OA
ATOM     23  N   UNL     1      38.493   5.606  15.938  0.00  0.00    +0.000 NA
BRANCH  23  24
ATOM     24  C   UNL     1      39.366   5.878  17.036  0.00  0.00    +0.000 A 
ATOM     25  C   UNL     1      38.906   5.836  18.337  0.00  0.00    +0.000 A 
ATOM     26  C   UNL     1      39.724   6.093  19.417  0.00  0.00    +0.000 A 
ATOM     27  C   UNL     1      41.064   6.408  19.230  0.00  0.00    +0.000 A 
ATOM     28  C   UNL     1      41.940   6.685  20.401  0.00  0.00    +0.000 C 
ATOM     29  C   UNL     1      41.519   6.449  17.929  0.00  0.00    +0.000 A 
ATOM     30  C   UNL     1      40.696   6.190  16.850  0.00  0.00    +0.000 A 
ATOM     31  C   UNL     1      41.222   6.243  15.449  0.00  0.00    +0.000 C 
ENDBRANCH  23  24
ENDBRANCH  20  21
ENDBRANCH  19  20
ENDBRANCH   3  19
TORSDOF 5
ENDMDL
MODEL 2
REMARK VINA RESULT:      -8.9      2.467      8.046
REMARK  Name = 
REMARK  5 active torsions:
REMARK  status: ('A' for Active; 'I' for Inactive)
REMARK    1  A    between atoms: C_5  and  C_6
REMARK    2  A    between atoms: N_8  and  C_9
REMARK    3  A    between atoms: C_9  and  C_10
REMARK    4  A    between atoms: C_10  and  C_11
REMARK    5  A    between atoms: N_13  and  C_14
REMARK                            x       y       z     vdW  Elec       q    Type
REMARK                         _______ _______ _______ _____ _____    ______ ____
ROOT
ATOM      1  C   UNL     1      38.242   5.734  16.343  0.00  0.00    +0.000 A 
ATOM      2  N   UNL     1      37.733   4.514  16.097  0.00  0.00    +0.000 NA
ATOM      3  N   UNL     1      36.771   4.353  15.197  0.00  0.00    +0.000 N 
ATOM      4  C   UNL     1      36.266   5.384  14.497  0.00  0.00    +0.000 A 
ATOM      5  O   UNL     1      35.356   5.223  13.647  0.00  0.00    +0.000 OA
ATOM      6  C   UNL     1      36.742   6.674  14.696  0.00  0.00    +0.000 A 
ATOM      7  C   UNL     1      36.241   7.748  13.991  0.00  0.00    +0.000 A 
ATOM      8  C   UNL     1      36.767   8.996  14.247  0.00  0.00    +0.000 A 
ATOM      9  C   UNL     1      37.767   9.151  15.185  0.00  0.00    +0.000 A 
ATOM     10  C   UNL     1      38.263   8.069  15.885  0.00  0.00    +0.000 A 
ATOM     11  C   UNL     1      37.741   6.829  15.634  0.00  0.00    +0.000 A 
ENDROOT
BRANCH   1  16
ATOM     12  C   UNL     1      42.274   6.690  20.305  0.00  0.00    +0.000 C 
ATOM     13  C   UNL     1      41.244   6.443  19.261  0.00  0.00    +0.000 A 
ATOM     14  C   UNL     1      39.940   6.267  19.622  0.00  0.00    +0.000 A 
ATOM     15  C   UNL     1      38.987   6.038  18.655  0.00  0.00    +0.000 A 
ATOM     16  C   UNL     1      39.296   5.979  17.315  0.00  0.00    +0.000 A 
ATOM     17  C   UNL     1      40.619   6.158  16.965  0.00  0.00    +0.000 A 
ATOM     18  C   UNL     1      41.590   6.389  17.933  0.00  0.00    +0.000 A 
ENDBRANCH   1  16
BRANCH   3  19
ATOM     19  C   UNL     1      36.252   3.020  14.966  0.00  0.00    +0.000 C 
BRANCH  19  20
ATOM     20  C   UNL     1      35.350   2.578  16.099  0.00  0.00    +0.000 C 
BRANCH  20  21
ATOM     21  C   UNL     1      36.088   1.547  16.895  0.00  0.00    +0.000 C 
ATOM     22  O   UNL     1      36.847   1.877  17.850  0.00  0.00    +0.000 OA
ATOM     23  N   UNL     1      35.969   0.160  16.614  0.00  0.00    +0.000 NA
BRANCH  23  24
ATOM     24  C   UNL     1      36.696  -0.783  17.404  0.00  0.00    +0.000 A 
ATOM     25  C   UNL     1      36.341  -1.036  18.713  0.00  0.00    +0.000 A 
ATOM     26  C   UNL     1      37.024  -1.940  19.500  0.00  0.00    +0.000 A 
ATOM     27  C   UNL     1      38.112  -2.639  18.993  0.00  0.00    +0.000 A 
ATOM     28  C   UNL     1      38.843  -3.613  19.849  0.00  0.00    +0.000 C 
ATOM     29  C   UNL     1      38.464  -2.382  17.684  0.00  0.00    +0.000 A 
ATOM     30  C   UNL     1      37.776  -1.476  16.900  0.00  0.00    +0.000 A 
ATOM     31  C   UNL     1      38.184  -1.220  15.482  0.00  0.00    +0.000 C 
ENDBRANCH  23  24
ENDBRANCH  20  21
ENDBRANCH  19  20
ENDBRANCH   3  19
TORSDOF 5
ENDMDL
MODEL 3
REMARK VINA RESULT:      -8.8      1.717      2.580
REMARK  Name = 
REMARK  5 active torsions:
REMARK  status: ('A' for Active; 'I' for Inactive)
REMARK    1  A    between atoms: C_5  and  C_6
REMARK    2  A    between atoms: N_8  and  C_9
REMARK    3  A    between atoms: C_9  and  C_10
REMARK    4  A    between atoms: C_10  and  C_11
REMARK    5  A    between atoms: N_13  and  C_14
REMARK                            x       y       z     vdW  Elec       q    Type
REMARK                         _______ _______ _______ _____ _____    ______ ____
ROOT
ATOM      1  C   UNL     1      39.251  -1.154  14.929  0.00  0.00    +0.000 A 
ATOM      2  N   UNL     1      38.685   0.012  14.577  0.00  0.00    +0.000 NA
ATOM      3  N   UNL     1      37.652   0.494  15.258  0.00  0.00    +0.000 N 
ATOM      4  C   UNL     1      37.130  -0.150  16.316  0.00  0.00    +0.000 A 
ATOM      5  O   UNL     1      36.152   0.312  16.955  0.00  0.00    +0.000 OA
ATOM      6  C   UNL     1      37.662  -1.361  16.740  0.00  0.00    +0.000 A 
ATOM      7  C   UNL     1      37.145  -2.041  17.823  0.00  0.00    +0.000 A 
ATOM      8  C   UNL     1      37.730  -3.236  18.179  0.00  0.00    +0.000 A 
ATOM      9  C   UNL     1      38.804  -3.727  17.464  0.00  0.00    +0.000 A 
ATOM     10  C   UNL     1      39.315  -3.038  16.382  0.00  0.00    +0.000 A 
ATOM     11  C   UNL     1      38.735  -1.851  16.025  0.00  0.00    +0.000 A 
ENDROOT
BRANCH   1  16
ATOM     12  C   UNL     1      43.602  -3.538  12.055  0.00  0.00    +0.000 C 
ATOM     13  C   UNL     1      42.488  -2.909  12.814  0.00  0.00    +0.000 A 
ATOM     14  C   UNL     1      41.195  -3.193  12.483  0.00  0.00    +0.000 A 
ATOM     15  C   UNL     1      40.165  -2.610  13.186  0.00  0.00    +0.000 A 
ATOM     16  C   UNL     1      40.384  -1.736  14.227  0.00  0.00    +0.000 A 
ATOM     17  C   UNL     1      41.697  -1.458  14.549  0.00  0.00    +0.000 A 
ATOM     18  C   UNL     1      42.745  -2.041  13.846  0.00  0.00    +0.000 A 
ENDBRANCH   1  16
BRANCH   3  19
ATOM     19  C   UNL     1      37.072   1.755  14.841  0.00  0.00    +0.000 C 
BRANCH  19  20
ATOM     20  C   UNL     1      38.140   2.806  14.626  0.00  0.00    +0.000 C 
BRANCH  20  21
ATOM     21  C   UNL     1      38.127   3.720  15.812  0.00  0.00    +0.000 C 
ATOM     22  O   UNL     1      37.393   3.483  16.813  0.00  0.00    +0.000 OA
ATOM     23  N   UNL     1      38.935   4.887  15.865  0.00  0.00    +0.000 NA
BRANCH  23  24
ATOM     24  C   UNL     1      38.883   5.726  17.020  0.00  0.00    +0.000 A 
ATOM     25  C   UNL     1      39.505   5.355  18.195  0.00  0.00    +0.000 A 
ATOM     26  C   UNL     1      39.473   6.143  19.327  0.00  0.00    +0.000 A 
ATOM     27  C   UNL     1      38.802   7.360  19.322  0.00  0.00    +0.000 A 
ATOM     28  C   UNL     1      38.773   8.204  20.548  0.00  0.00    +0.000 C 
ATOM     29  C   UNL     1      38.183   7.726  18.146  0.00  0.00    +0.000 A 
ATOM     30  C   UNL     1      38.218   6.933  17.016  0.00  0.00    +0.000 A 
ATOM     31  C   UNL     1      37.534   7.360  15.754  0.00  0.00    +0.000 C 
ENDBRANCH  23  24
ENDBRANCH  20  21
ENDBRANCH  19  20
ENDBRANCH   3  19
TORSDOF 5
ENDMDL
MODEL 4
REMARK VINA RESULT:      -8.7      3.481      4.862
REMARK  Name = 
REMARK  5 active torsions:
REMARK  status: ('A' for Active; 'I' for Inactive)
REMARK    1  A    between atoms: C_5  and  C_6
REMARK    2  A    between atoms: N_8  and  C_9
REMARK    3  A    between atoms: C_9  and  C_10
REMARK    4  A    between atoms: C_10  and  C_11
REMARK    5  A    between atoms: N_13  and  C_14
REMARK                            x       y       z     vdW  Elec       q    Type
REMARK                         _______ _______ _______ _____ _____    ______ ____
ROOT
ATOM      1  C   UNL     1      37.883  -1.127  16.022  0.00  0.00    +0.000 A 
ATOM      2  N   UNL     1      37.035  -0.098  15.860  0.00  0.00    +0.000 NA
ATOM      3  N   UNL     1      36.277   0.317  16.867  0.00  0.00    +0.000 N 
ATOM      4  C   UNL     1      36.317  -0.263  18.079  0.00  0.00    +0.000 A 
ATOM      5  O   UNL     1      35.596   0.136  19.027  0.00  0.00    +0.000 OA
ATOM      6  C   UNL     1      37.169  -1.332  18.324  0.00  0.00    +0.000 A 
ATOM      7  C   UNL     1      37.230  -1.943  19.558  0.00  0.00    +0.000 A 
ATOM      8  C   UNL     1      38.101  -2.999  19.718  0.00  0.00    +0.000 A 
ATOM      9  C   UNL     1      38.886  -3.421  18.664  0.00  0.00    +0.000 A 
ATOM     10  C   UNL     1      38.818  -2.802  17.432  0.00  0.00    +0.000 A 
ATOM     11  C   UNL     1      37.952  -1.754  17.270  0.00  0.00    +0.000 A 
ENDROOT
BRANCH   1  16
ATOM     12  C   UNL     1      41.124  -3.191  11.766  0.00  0.00    +0.000 C 
ATOM     13  C   UNL     1      40.302  -2.645  12.879  0.00  0.00    +0.000 A 
ATOM     14  C   UNL     1      38.965  -2.914  12.931  0.00  0.00    +0.000 A 
ATOM     15  C   UNL     1      38.205  -2.410  13.961  0.00  0.00    +0.000 A 
ATOM     16  C   UNL     1      38.742  -1.630  14.961  0.00  0.00    +0.000 A 
ATOM     17  C   UNL     1      40.095  -1.366  14.895  0.00  0.00    +0.000 A 
ATOM     18  C   UNL     1      40.872  -1.870  13.859  0.00  0.00    +0.000 A 
ENDBRANCH   1  16
BRANCH   3  19
ATOM     19  C   UNL     1      35.376   1.431  16.646  0.00  0.00    +0.000 C 
BRANCH  19  20
ATOM     20  C   UNL     1      36.132   2.740  16.562  0.00  0.00    +0.000 C 
BRANCH  20  21
ATOM     21  C   UNL     1      35.570   3.519  15.414  0.00  0.00    +0.000 C 
ATOM     22  O   UNL     1      34.515   3.148  14.825  0.00  0.00    +0.000 OA
ATOM     23  N   UNL     1      36.194   4.703  14.937  0.00  0.00    +0.000 NA
BRANCH  23  24
ATOM     24  C   UNL     1      35.616   5.408  13.837  0.00  0.00    +0.000 A 
ATOM     25  C   UNL     1      34.496   6.196  14.008  0.00  0.00    +0.000 A 
ATOM     26  C   UNL     1      33.916   6.889  12.965  0.00  0.00    +0.000 A 
ATOM     27  C   UNL     1      34.450   6.815  11.684  0.00  0.00    +0.000 A 
ATOM     28  C   UNL     1      33.817   7.566  10.565  0.00  0.00    +0.000 C 
ATOM     29  C   UNL     1      35.568   6.026  11.518  0.00  0.00    +0.000 A 
ATOM     30  C   UNL     1      36.145   5.335  12.566  0.00  0.00    +0.000 A 
ATOM     31  C   UNL     1      37.360   4.486  12.352  0.00  0.00    +0.000 C 
ENDBRANCH  23  24
ENDBRANCH  20  21
ENDBRANCH  19  20
ENDBRANCH   3  19
TORSDOF 5
ENDMDL
MODEL 5
REMARK VINA RESULT:      -8.7     23.036     27.059
REMARK  Name = 
REMARK  5 active torsions:
REMARK  status: ('A' for Active; 'I' for Inactive)
REMARK    1  A    between atoms: C_5  and  C_6
REMARK    2  A    between atoms: N_8  and  C_9
REMARK    3  A    between atoms: C_9  and  C_10
REMARK    4  A    between atoms: C_10  and  C_11
REMARK    5  A    between atoms: N_13  and  C_14
REMARK                            x       y       z     vdW  Elec       q    Type
REMARK                         _______ _______ _______ _____ _____    ______ ____
ROOT
ATOM      1  C   UNL     1      13.471   0.471  30.537  0.00  0.00    +0.000 A 
ATOM      2  N   UNL     1      14.242   0.177  29.477  0.00  0.00    +0.000 NA
ATOM      3  N   UNL     1      13.815   0.421  28.244  0.00  0.00    +0.000 N 
ATOM      4  C   UNL     1      12.610   0.965  27.998  0.00  0.00    +0.000 A 
ATOM      5  O   UNL     1      12.214   1.193  26.828  0.00  0.00    +0.000 OA
ATOM      6  C   UNL     1      11.757   1.296  29.043  0.00  0.00    +0.000 A 
ATOM      7  C   UNL     1      10.518   1.855  28.818  0.00  0.00    +0.000 A 
ATOM      8  C   UNL     1       9.731   2.154  29.910  0.00  0.00    +0.000 A 
ATOM      9  C   UNL     1      10.185   1.896  31.187  0.00  0.00    +0.000 A 
ATOM     10  C   UNL     1      11.429   1.337  31.402  0.00  0.00    +0.000 A 
ATOM     11  C   UNL     1      12.212   1.038  30.319  0.00  0.00    +0.000 A 
ENDROOT
BRANCH   1  16
ATOM     12  C   UNL     1      15.134  -0.312  35.968  0.00  0.00    +0.000 C 
ATOM     13  C   UNL     1      14.695  -0.131  34.558  0.00  0.00    +0.000 A 
ATOM     14  C   UNL     1      14.876   1.072  33.940  0.00  0.00    +0.000 A 
ATOM     15  C   UNL     1      14.470   1.240  32.636  0.00  0.00    +0.000 A 
ATOM     16  C   UNL     1      13.878   0.229  31.912  0.00  0.00    +0.000 A 
ATOM     17  C   UNL     1      13.700  -0.981  32.551  0.00  0.00    +0.000 A 
ATOM     18  C   UNL     1      14.107  -1.161  33.868  0.00  0.00    +0.000 A 
ENDBRANCH   1  16
BRANCH   3  19
ATOM     19  C   UNL     1      14.680   0.088  27.129  0.00  0.00    +0.000 C 
BRANCH  19  20
ATOM     20  C   UNL     1      16.075   0.637  27.334  0.00  0.00    +0.000 C 
BRANCH  20  21
ATOM     21  C   UNL     1      16.881   0.303  26.118  0.00  0.00    +0.000 C 
ATOM     22  O   UNL     1      16.324  -0.051  25.040  0.00  0.00    +0.000 OA
ATOM     23  N   UNL     1      18.300   0.368  26.120  0.00  0.00    +0.000 NA
BRANCH  23  24
ATOM     24  C   UNL     1      19.021   0.037  24.931  0.00  0.00    +0.000 A 
ATOM     25  C   UNL     1      19.364   1.010  24.015  0.00  0.00    +0.000 A 
ATOM     26  C   UNL     1      20.059   0.721  22.859  0.00  0.00    +0.000 A 
ATOM     27  C   UNL     1      20.446  -0.583  22.573  0.00  0.00    +0.000 A 
ATOM     28  C   UNL     1      21.196  -0.885  21.323  0.00  0.00    +0.000 C 
ATOM     29  C   UNL     1      20.100  -1.551  23.492  0.00  0.00    +0.000 A 
ATOM     30  C   UNL     1      19.404  -1.257  24.648  0.00  0.00    +0.000 A 
ATOM     31  C   UNL     1      19.045  -2.333  25.626  0.00  0.00    +0.000 C 
ENDBRANCH  23  24
ENDBRANCH  20  21
ENDBRANCH  19  20
ENDBRANCH   3  19
TORSDOF 5
ENDMDL
MODEL 6
REMARK VINA RESULT:      -8.5      0.899      1.688
REMARK  Name = 
REMARK  5 active torsions:
REMARK  status: ('A' for Active; 'I' for Inactive)
REMARK    1  A    between atoms: C_5  and  C_6
REMARK    2  A    between atoms: N_8  and  C_9
REMARK    3  A    between atoms: C_9  and  C_10
REMARK    4  A    between atoms: C_10  and  C_11
REMARK    5  A    between atoms: N_13  and  C_14
REMARK                            x       y       z     vdW  Elec       q    Type
REMARK                         _______ _______ _______ _____ _____    ______ ____
ROOT
ATOM      1  C   UNL     1      37.468  -0.281  15.076  0.00  0.00    +0.000 A 
ATOM      2  N   UNL     1      37.427   1.059  14.991  0.00  0.00    +0.000 NA
ATOM      3  N   UNL     1      36.439   1.742  15.556  0.00  0.00    +0.000 N 
ATOM      4  C   UNL     1      35.445   1.137  16.230  0.00  0.00    +0.000 A 
ATOM      5  O   UNL     1      34.514   1.790  16.761  0.00  0.00    +0.000 OA
ATOM      6  C   UNL     1      35.418  -0.246  16.360  0.00  0.00    +0.000 A 
ATOM      7  C   UNL     1      34.412  -0.890  17.046  0.00  0.00    +0.000 A 
ATOM      8  C   UNL     1      34.458  -2.265  17.130  0.00  0.00    +0.000 A 
ATOM      9  C   UNL     1      35.490  -2.964  16.539  0.00  0.00    +0.000 A 
ATOM     10  C   UNL     1      36.495  -2.309  15.854  0.00  0.00    +0.000 A 
ATOM     11  C   UNL     1      36.451  -0.944  15.769  0.00  0.00    +0.000 A 
ENDROOT
BRANCH   1  16
ATOM     12  C   UNL     1      41.716  -3.444  12.880  0.00  0.00    +0.000 C 
ATOM     13  C   UNL     1      40.602  -2.626  13.430  0.00  0.00    +0.000 A 
ATOM     14  C   UNL     1      40.702  -2.100  14.685  0.00  0.00    +0.000 A 
ATOM     15  C   UNL     1      39.670  -1.344  15.194  0.00  0.00    +0.000 A 
ATOM     16  C   UNL     1      38.521  -1.088  14.481  0.00  0.00    +0.000 A 
ATOM     17  C   UNL     1      38.434  -1.628  13.213  0.00  0.00    +0.000 A 
ATOM     18  C   UNL     1      39.470  -2.394  12.689  0.00  0.00    +0.000 A 
ENDBRANCH   1  16
BRANCH   3  19
ATOM     19  C   UNL     1      36.436   3.187  15.438  0.00  0.00    +0.000 C 
BRANCH  19  20
ATOM     20  C   UNL     1      36.798   3.845  16.753  0.00  0.00    +0.000 C 
BRANCH  20  21
ATOM     21  C   UNL     1      38.216   4.313  16.654  0.00  0.00    +0.000 C 
ATOM     22  O   UNL     1      39.075   3.666  15.990  0.00  0.00    +0.000 OA
ATOM     23  N   UNL     1      38.658   5.500  17.298  0.00  0.00    +0.000 NA
BRANCH  23  24
ATOM     24  C   UNL     1      40.023   5.902  17.172  0.00  0.00    +0.000 A 
ATOM     25  C   UNL     1      40.629   5.980  15.934  0.00  0.00    +0.000 A 
ATOM     26  C   UNL     1      41.945   6.365  15.781  0.00  0.00    +0.000 A 
ATOM     27  C   UNL     1      42.720   6.693  16.887  0.00  0.00    +0.000 A 
ATOM     28  C   UNL     1      44.139   7.107  16.712  0.00  0.00    +0.000 C 
ATOM     29  C   UNL     1      42.110   6.613  18.121  0.00  0.00    +0.000 A 
ATOM     30  C   UNL     1      40.792   6.227  18.270  0.00  0.00    +0.000 A 
ATOM     31  C   UNL     1      40.159   6.151  19.625  0.00  0.00    +0.000 C 
ENDBRANCH  23  24
ENDBRANCH  20  21
ENDBRANCH  19  20
ENDBRANCH   3  19
TORSDOF 5
ENDMDL
MODEL 7
REMARK VINA RESULT:      -8.5      2.006      2.991
REMARK  Name = 
REMARK  5 active torsions:
REMARK  status: ('A' for Active; 'I' for Inactive)
REMARK    1  A    between atoms: C_5  and  C_6
REMARK    2  A    between atoms: N_8  and  C_9
REMARK    3  A    between atoms: C_9  and  C_10
REMARK    4  A    between atoms: C_10  and  C_11
REMARK    5  A    between atoms: N_13  and  C_14
REMARK                            x       y       z     vdW  Elec       q    Type
REMARK                         _______ _______ _______ _____ _____    ______ ____
ROOT
ATOM      1  C   UNL     1      37.502  -1.487  15.474  0.00  0.00    +0.000 A 
ATOM      2  N   UNL     1      37.228  -0.368  16.165  0.00  0.00    +0.000 NA
ATOM      3  N   UNL     1      36.053  -0.215  16.763  0.00  0.00    +0.000 N 
ATOM      4  C   UNL     1      35.094  -1.156  16.708  0.00  0.00    +0.000 A 
ATOM      5  O   UNL     1      33.985  -1.004  17.277  0.00  0.00    +0.000 OA
ATOM      6  C   UNL     1      35.304  -2.340  16.013  0.00  0.00    +0.000 A 
ATOM      7  C   UNL     1      34.339  -3.321  15.943  0.00  0.00    +0.000 A 
ATOM      8  C   UNL     1      34.626  -4.467  15.233  0.00  0.00    +0.000 A 
ATOM      9  C   UNL     1      35.851  -4.615  14.616  0.00  0.00    +0.000 A 
ATOM     10  C   UNL     1      36.813  -3.627  14.693  0.00  0.00    +0.000 A 
ATOM     11  C   UNL     1      36.529  -2.488  15.396  0.00  0.00    +0.000 A 
ENDROOT
BRANCH   1  16
ATOM     12  C   UNL     1      42.424  -2.324  12.654  0.00  0.00    +0.000 C 
ATOM     13  C   UNL     1      41.157  -2.116  13.404  0.00  0.00    +0.000 A 
ATOM     14  C   UNL     1      40.083  -1.551  12.780  0.00  0.00    +0.000 A 
ATOM     15  C   UNL     1      38.910  -1.358  13.475  0.00  0.00    +0.000 A 
ATOM     16  C   UNL     1      38.768  -1.718  14.797  0.00  0.00    +0.000 A 
ATOM     17  C   UNL     1      39.863  -2.288  15.415  0.00  0.00    +0.000 A 
ATOM     18  C   UNL     1      41.052  -2.486  14.722  0.00  0.00    +0.000 A 
ENDBRANCH   1  16
BRANCH   3  19
ATOM     19  C   UNL     1      35.800   1.009  17.496  0.00  0.00    +0.000 C 
BRANCH  19  20
ATOM     20  C   UNL     1      35.069   2.021  16.640  0.00  0.00    +0.000 C 
BRANCH  20  21
ATOM     21  C   UNL     1      36.078   3.004  16.132  0.00  0.00    +0.000 C 
ATOM     22  O   UNL     1      35.791   3.820  15.210  0.00  0.00    +0.000 OA
ATOM     23  N   UNL     1      37.395   3.063  16.660  0.00  0.00    +0.000 NA
BRANCH  23  24
ATOM     24  C   UNL     1      38.319   4.019  16.138  0.00  0.00    +0.000 A 
ATOM     25  C   UNL     1      38.380   5.300  16.649  0.00  0.00    +0.000 A 
ATOM     26  C   UNL     1      39.261   6.245  16.166  0.00  0.00    +0.000 A 
ATOM     27  C   UNL     1      40.135   5.934  15.131  0.00  0.00    +0.000 A 
ATOM     28  C   UNL     1      41.083   6.960  14.617  0.00  0.00    +0.000 C 
ATOM     29  C   UNL     1      40.070   4.653  14.624  0.00  0.00    +0.000 A 
ATOM     30  C   UNL     1      39.186   3.710  15.111  0.00  0.00    +0.000 A 
ATOM     31  C   UNL     1      39.142   2.327  14.539  0.00  0.00    +0.000 C 
ENDBRANCH  23  24
ENDBRANCH  20  21
ENDBRANCH  19  20
ENDBRANCH   3  19
TORSDOF 5
ENDMDL
MODEL 8
REMARK VINA RESULT:      -8.5      2.439      3.786
REMARK  Name = 
REMARK  5 active torsions:
REMARK  status: ('A' for Active; 'I' for Inactive)
REMARK    1  A    between atoms: C_5  and  C_6
REMARK    2  A    between atoms: N_8  and  C_9
REMARK    3  A    between atoms: C_9  and  C_10
REMARK    4  A    between atoms: C_10  and  C_11
REMARK    5  A    between atoms: N_13  and  C_14
REMARK                            x       y       z     vdW  Elec       q    Type
REMARK                         _______ _______ _______ _____ _____    ______ ____
ROOT
ATOM      1  C   UNL     1      37.806  -1.182  16.007  0.00  0.00    +0.000 A 
ATOM      2  N   UNL     1      36.927  -0.196  15.763  0.00  0.00    +0.000 NA
ATOM      3  N   UNL     1      36.126   0.248  16.723  0.00  0.00    +0.000 N 
ATOM      4  C   UNL     1      36.153  -0.259  17.968  0.00  0.00    +0.000 A 
ATOM      5  O   UNL     1      35.391   0.166  18.872  0.00  0.00    +0.000 OA
ATOM      6  C   UNL     1      37.034  -1.281  18.297  0.00  0.00    +0.000 A 
ATOM      7  C   UNL     1      37.083  -1.817  19.566  0.00  0.00    +0.000 A 
ATOM      8  C   UNL     1      37.986  -2.829  19.810  0.00  0.00    +0.000 A 
ATOM      9  C   UNL     1      38.814  -3.281  18.804  0.00  0.00    +0.000 A 
ATOM     10  C   UNL     1      38.760  -2.737  17.536  0.00  0.00    +0.000 A 
ATOM     11  C   UNL     1      37.862  -1.733  17.290  0.00  0.00    +0.000 A 
ENDROOT
BRANCH   1  16
ATOM     12  C   UNL     1      41.233  -3.335  11.946  0.00  0.00    +0.000 C 
ATOM     13  C   UNL     1      40.363  -2.769  13.011  0.00  0.00    +0.000 A 
ATOM     14  C   UNL     1      39.007  -2.898  12.919  0.00  0.00    +0.000 A 
ATOM     15  C   UNL     1      38.202  -2.374  13.905  0.00  0.00    +0.000 A 
ATOM     16  C   UNL     1      38.711  -1.713  15.000  0.00  0.00    +0.000 A 
ATOM     17  C   UNL     1      40.084  -1.589  15.078  0.00  0.00    +0.000 A 
ATOM     18  C   UNL     1      40.907  -2.115  14.088  0.00  0.00    +0.000 A 
ENDBRANCH   1  16
BRANCH   3  19
ATOM     19  C   UNL     1      35.192   1.313  16.414  0.00  0.00    +0.000 C 
BRANCH  19  20
ATOM     20  C   UNL     1      35.830   2.673  16.602  0.00  0.00    +0.000 C 
BRANCH  20  21
ATOM     21  C   UNL     1      36.889   2.829  15.555  0.00  0.00    +0.000 C 
ATOM     22  O   UNL     1      36.591   2.896  14.328  0.00  0.00    +0.000 OA
ATOM     23  N   UNL     1      38.266   2.909  15.891  0.00  0.00    +0.000 NA
BRANCH  23  24
ATOM     24  C   UNL     1      39.236   3.057  14.852  0.00  0.00    +0.000 A 
ATOM     25  C   UNL     1      39.713   1.960  14.164  0.00  0.00    +0.000 A 
ATOM     26  C   UNL     1      40.649   2.072  13.156  0.00  0.00    +0.000 A 
ATOM     27  C   UNL     1      41.152   3.315  12.793  0.00  0.00    +0.000 A 
ATOM     28  C   UNL     1      42.161   3.426  11.704  0.00  0.00    +0.000 C 
ATOM     29  C   UNL     1      40.672   4.408  13.484  0.00  0.00    +0.000 A 
ATOM     30  C   UNL     1      39.735   4.291  14.491  0.00  0.00    +0.000 A 
ATOM     31  C   UNL     1      39.234   5.498  15.222  0.00  0.00    +0.000 C 
ENDBRANCH  23  24
ENDBRANCH  20  21
ENDBRANCH  19  20
ENDBRANCH   3  19
TORSDOF 5
ENDMDL
MODEL 9
REMARK VINA RESULT:      -8.3      4.516      6.737
REMARK  Name = 
REMARK  5 active torsions:
REMARK  status: ('A' for Active; 'I' for Inactive)
REMARK    1  A    between atoms: C_5  and  C_6
REMARK    2  A    between atoms: N_8  and  C_9
REMARK    3  A    between atoms: C_9  and  C_10
REMARK    4  A    between atoms: C_10  and  C_11
REMARK    5  A    between atoms: N_13  and  C_14
REMARK                            x       y       z     vdW  Elec       q    Type
REMARK                         _______ _______ _______ _____ _____    ______ ____
ROOT
ATOM      1  C   UNL     1      36.186  -2.856  14.814  0.00  0.00    +0.000 A 
ATOM      2  N   UNL     1      37.118  -2.668  13.865  0.00  0.00    +0.000 NA
ATOM      3  N   UNL     1      37.641  -1.465  13.661  0.00  0.00    +0.000 N 
ATOM      4  C   UNL     1      37.271  -0.392  14.383  0.00  0.00    +0.000 A 
ATOM      5  O   UNL     1      37.771   0.743  14.183  0.00  0.00    +0.000 OA
ATOM      6  C   UNL     1      36.313  -0.508  15.382  0.00  0.00    +0.000 A 
ATOM      7  C   UNL     1      35.917   0.575  16.136  0.00  0.00    +0.000 A 
ATOM      8  C   UNL     1      34.961   0.377  17.108  0.00  0.00    +0.000 A 
ATOM      9  C   UNL     1      34.424  -0.878  17.311  0.00  0.00    +0.000 A 
ATOM     10  C   UNL     1      34.829  -1.958  16.551  0.00  0.00    +0.000 A 
ATOM     11  C   UNL     1      35.777  -1.763  15.584  0.00  0.00    +0.000 A 
ENDROOT
BRANCH   1  16
ATOM     12  C   UNL     1      33.903  -7.977  16.012  0.00  0.00    +0.000 C 
ATOM     13  C   UNL     1      34.478  -6.644  15.687  0.00  0.00    +0.000 A 
ATOM     14  C   UNL     1      35.625  -6.232  16.299  0.00  0.00    +0.000 A 
ATOM     15  C   UNL     1      36.157  -4.999  15.998  0.00  0.00    +0.000 A 
ATOM     16  C   UNL     1      35.574  -4.146  15.088  0.00  0.00    +0.000 A 
ATOM     17  C   UNL     1      34.413  -4.577  14.477  0.00  0.00    +0.000 A 
ATOM     18  C   UNL     1      33.867  -5.820  14.775  0.00  0.00    +0.000 A 
ENDBRANCH   1  16
BRANCH   3  19
ATOM     19  C   UNL     1      38.643  -1.308  12.625  0.00  0.00    +0.000 C 
BRANCH  19  20
ATOM     20  C   UNL     1      39.483  -2.559  12.481  0.00  0.00    +0.000 C 
BRANCH  20  21
ATOM     21  C   UNL     1      40.742  -2.356  13.264  0.00  0.00    +0.000 C 
ATOM     22  O   UNL     1      40.835  -2.736  14.466  0.00  0.00    +0.000 OA
ATOM     23  N   UNL     1      41.884  -1.731  12.695  0.00  0.00    +0.000 NA
BRANCH  23  24
ATOM     24  C   UNL     1      43.061  -1.561  13.487  0.00  0.00    +0.000 A 
ATOM     25  C   UNL     1      43.181  -0.501  14.362  0.00  0.00    +0.000 A 
ATOM     26  C   UNL     1      44.305  -0.311  15.140  0.00  0.00    +0.000 A 
ATOM     27  C   UNL     1      45.373  -1.197  15.068  0.00  0.00    +0.000 A 
ATOM     28  C   UNL     1      46.581  -0.984  15.911  0.00  0.00    +0.000 C 
ATOM     29  C   UNL     1      45.248  -2.254  14.192  0.00  0.00    +0.000 A 
ATOM     30  C   UNL     1      44.121  -2.440  13.416  0.00  0.00    +0.000 A 
ATOM     31  C   UNL     1      44.016  -3.600  12.474  0.00  0.00    +0.000 C 
ENDBRANCH  23  24
ENDBRANCH  20  21
ENDBRANCH  19  20
ENDBRANCH   3  19
TORSDOF 5
ENDMDL
MODEL 10
REMARK VINA RESULT:      -8.2      3.422      4.623
REMARK  Name = 
REMARK  5 active torsions:
REMARK  status: ('A' for Active; 'I' for Inactive)
REMARK    1  A    between atoms: C_5  and  C_6
REMARK    2  A    between atoms: N_8  and  C_9
REMARK    3  A    between atoms: C_9  and  C_10
REMARK    4  A    between atoms: C_10  and  C_11
REMARK    5  A    between atoms: N_13  and  C_14
REMARK                            x       y       z     vdW  Elec       q    Type
REMARK                         _______ _______ _______ _____ _____    ______ ____
ROOT
ATOM      1  C   UNL     1      37.379  -0.025  15.100  0.00  0.00    +0.000 A 
ATOM      2  N   UNL     1      37.327   1.311  14.965  0.00  0.00    +0.000 NA
ATOM      3  N   UNL     1      36.339   2.007  15.513  0.00  0.00    +0.000 N 
ATOM      4  C   UNL     1      35.356   1.421  16.219  0.00  0.00    +0.000 A 
ATOM      5  O   UNL     1      34.425   2.088  16.734  0.00  0.00    +0.000 OA
ATOM      6  C   UNL     1      35.341   0.045  16.401  0.00  0.00    +0.000 A 
ATOM      7  C   UNL     1      34.346  -0.581  17.121  0.00  0.00    +0.000 A 
ATOM      8  C   UNL     1      34.403  -1.951  17.256  0.00  0.00    +0.000 A 
ATOM      9  C   UNL     1      35.436  -2.664  16.682  0.00  0.00    +0.000 A 
ATOM     10  C   UNL     1      36.429  -2.029  15.964  0.00  0.00    +0.000 A 
ATOM     11  C   UNL     1      36.373  -0.668  15.827  0.00  0.00    +0.000 A 
ENDROOT
BRANCH   1  16
ATOM     12  C   UNL     1      41.433  -3.284  12.689  0.00  0.00    +0.000 C 
ATOM     13  C   UNL     1      40.395  -2.436  13.333  0.00  0.00    +0.000 A 
ATOM     14  C   UNL     1      39.230  -2.170  12.673  0.00  0.00    +0.000 A 
ATOM     15  C   UNL     1      38.269  -1.386  13.270  0.00  0.00    +0.000 A 
ATOM     16  C   UNL     1      38.432  -0.846  14.526  0.00  0.00    +0.000 A 
ATOM     17  C   UNL     1      39.616  -1.122  15.180  0.00  0.00    +0.000 A 
ATOM     18  C   UNL     1      40.593  -1.914  14.587  0.00  0.00    +0.000 A 
ENDBRANCH   1  16
BRANCH   3  19
ATOM     19  C   UNL     1      36.324   3.447  15.341  0.00  0.00    +0.000 C 
BRANCH  19  20
ATOM     20  C   UNL     1      35.523   3.845  14.119  0.00  0.00    +0.000 C 
BRANCH  20  21
ATOM     21  C   UNL     1      35.433   5.339  14.099  0.00  0.00    +0.000 C 
ATOM     22  O   UNL     1      36.392   6.058  14.499  0.00  0.00    +0.000 OA
ATOM     23  N   UNL     1      34.272   6.012  13.633  0.00  0.00    +0.000 NA
BRANCH  23  24
ATOM     24  C   UNL     1      34.238   7.440  13.636  0.00  0.00    +0.000 A 
ATOM     25  C   UNL     1      33.939   8.141  14.787  0.00  0.00    +0.000 A 
ATOM     26  C   UNL     1      33.898   9.519  14.821  0.00  0.00    +0.000 A 
ATOM     27  C   UNL     1      34.163  10.263  13.677  0.00  0.00    +0.000 A 
ATOM     28  C   UNL     1      34.117  11.750  13.723  0.00  0.00    +0.000 C 
ATOM     29  C   UNL     1      34.461   9.558  12.530  0.00  0.00    +0.000 A 
ATOM     30  C   UNL     1      34.501   8.178  12.501  0.00  0.00    +0.000 A 
ATOM     31  C   UNL     1      34.828   7.443  11.239  0.00  0.00    +0.000 C 
ENDBRANCH  23  24
ENDBRANCH  20  21
ENDBRANCH  19  20
ENDBRANCH   3  19
TORSDOF 5
ENDMDL
