MODEL 1
REMARK VINA RESULT:      -8.1      0.000      0.000
REMARK  Name = 
REMARK  7 active torsions:
REMARK  status: ('A' for Active; 'I' for Inactive)
REMARK    1  A    between atoms: C_2  and  C_3
REMARK    2  A    between atoms: C_6  and  N_7
REMARK    3  A    between atoms: C_10  and  N_11
REMARK    4  A    between atoms: N_11  and  C_12
REMARK    5  A    between atoms: C_17  and  C_18
REMARK    6  A    between atoms: C_20  and  S_21
REMARK    7  A    between atoms: S_21  and  C_22
REMARK                            x       y       z     vdW  Elec       q    Type
REMARK                         _______ _______ _______ _____ _____    ______ ____
ROOT
ATOM      1  N   UNL     1      37.084   3.518  15.942  0.00  0.00    +0.000 N 
ATOM      2  C   UNL     1      37.778   4.217  16.922  0.00  0.00    +0.000 C 
ATOM      3  O   UNL     1      38.171   3.764  18.037  0.00  0.00    +0.000 OA
ATOM      4  C   UNL     1      37.998   5.616  16.455  0.00  0.00    +0.000 C 
ATOM      5  C   UNL     1      37.447   5.719  15.237  0.00  0.00    +0.000 C 
ATOM      6  C   UNL     1      36.872   4.447  14.884  0.00  0.00    +0.000 C 
ATOM      7  O   UNL     1      36.265   4.160  13.810  0.00  0.00    +0.000 OA
ENDROOT
BRANCH   1  11
ATOM      8  C   UNL     1      35.827  -0.529  15.947  0.00  0.00    +0.000 A 
ATOM      9  C   UNL     1      36.945  -0.131  15.246  0.00  0.00    +0.000 A 
ATOM     10  C   UNL     1      37.333   1.190  15.266  0.00  0.00    +0.000 A 
ATOM     11  C   UNL     1      36.650   2.161  15.963  0.00  0.00    +0.000 A 
ATOM     12  C   UNL     1      35.530   1.763  16.665  0.00  0.00    +0.000 A 
ATOM     13  C   UNL     1      35.140   0.441  16.647  0.00  0.00    +0.000 A 
BRANCH   8  15
ATOM     14  C   UNL     1      34.344  -2.216  17.010  0.00  0.00    +0.000 C 
ATOM     15  C   UNL     1      35.377  -1.965  15.942  0.00  0.00    +0.000 C 
ENDBRANCH   8  15
ENDBRANCH   1  11
BRANCH   4  16
ATOM     16  N   UNL     1      38.652   6.532  17.245  0.00  0.00    +0.000 NA
BRANCH  16  17
ATOM     17  C   UNL     1      38.427   7.327  18.324  0.00  0.00    +0.000 A 
ATOM     18  C   UNL     1      37.487   8.316  18.371  0.00  0.00    +0.000 A 
ATOM     19  C   UNL     1      37.304   9.091  19.515  0.00  0.00    +0.000 A 
ATOM     20  C   UNL     1      38.065   8.890  20.645  0.00  0.00    +0.000 A 
ATOM     21  C   UNL     1      39.006   7.904  20.605  0.00  0.00    +0.000 A 
ATOM     22  C   UNL     1      39.193   7.139  19.490  0.00  0.00    +0.000 A 
BRANCH  22  23
ATOM     23  C   UNL     1      40.220   6.075  19.448  0.00  0.00    +0.000 C 
ATOM     24  C   UNL     1      41.447   6.475  20.262  0.00  0.00    +0.000 C 
ENDBRANCH  22  23
ENDBRANCH  16  17
ENDBRANCH   4  16
BRANCH   5  25
ATOM     25  S   UNL     1      37.481   7.217  14.320  0.00  0.00    +0.000 S 
BRANCH  25  26
ATOM     26  C   UNL     1      36.246   8.394  14.719  0.00  0.00    +0.000 A 
ATOM     27  C   UNL     1      34.915   7.937  14.586  0.00  0.00    +0.000 A 
ATOM     28  C   UNL     1      33.838   8.712  14.847  0.00  0.00    +0.000 A 
ATOM     29  C   UNL     1      34.005  10.008  15.265  0.00  0.00    +0.000 A 
ATOM     30  C   UNL     1      35.306  10.479  15.404  0.00  0.00    +0.000 A 
ATOM     31  C   UNL     1      36.385   9.673  15.133  0.00  0.00    +0.000 A 
ENDBRANCH  25  26
ENDBRANCH   5  25
TORSDOF 7
ENDMDL
MODEL 2
REMARK VINA RESULT:      -7.8      2.849      9.006
REMARK  Name = 
REMARK  7 active torsions:
REMARK  status: ('A' for Active; 'I' for Inactive)
REMARK    1  A    between atoms: C_2  and  C_3
REMARK    2  A    between atoms: C_6  and  N_7
REMARK    3  A    between atoms: C_10  and  N_11
REMARK    4  A    between atoms: N_11  and  C_12
REMARK    5  A    between atoms: C_17  and  C_18
REMARK    6  A    between atoms: C_20  and  S_21
REMARK    7  A    between atoms: S_21  and  C_22
REMARK                            x       y       z     vdW  Elec       q    Type
REMARK                         _______ _______ _______ _____ _____    ______ ____
ROOT
ATOM      1  N   UNL     1      37.979   3.545  16.035  0.00  0.00    +0.000 N 
ATOM      2  C   UNL     1      36.902   2.674  16.150  0.00  0.00    +0.000 C 
ATOM      3  O   UNL     1      35.914   2.795  16.932  0.00  0.00    +0.000 OA
ATOM      4  C   UNL     1      37.087   1.546  15.192  0.00  0.00    +0.000 C 
ATOM      5  C   UNL     1      38.238   1.763  14.540  0.00  0.00    +0.000 C 
ATOM      6  C   UNL     1      38.820   2.986  15.031  0.00  0.00    +0.000 C 
ATOM      7  O   UNL     1      39.908   3.513  14.654  0.00  0.00    +0.000 OA
ENDROOT
BRANCH   1  11
ATOM      8  C   UNL     1      38.712   7.084  18.247  0.00  0.00    +0.000 A 
ATOM      9  C   UNL     1      38.977   5.842  18.782  0.00  0.00    +0.000 A 
ATOM     10  C   UNL     1      38.733   4.708  18.038  0.00  0.00    +0.000 A 
ATOM     11  C   UNL     1      38.226   4.747  16.759  0.00  0.00    +0.000 A 
ATOM     12  C   UNL     1      37.960   5.990  16.223  0.00  0.00    +0.000 A 
ATOM     13  C   UNL     1      38.204   7.127  16.965  0.00  0.00    +0.000 A 
BRANCH   8  15
ATOM     14  C   UNL     1      38.923   8.070  20.519  0.00  0.00    +0.000 C 
ATOM     15  C   UNL     1      38.966   8.340  19.036  0.00  0.00    +0.000 C 
ENDBRANCH   8  15
ENDBRANCH   1  11
BRANCH   4  16
ATOM     16  N   UNL     1      36.166   0.528  15.111  0.00  0.00    +0.000 NA
BRANCH  16  17
ATOM     17  C   UNL     1      36.073  -0.812  15.321  0.00  0.00    +0.000 A 
ATOM     18  C   UNL     1      36.575  -1.762  14.479  0.00  0.00    +0.000 A 
ATOM     19  C   UNL     1      36.450  -3.121  14.759  0.00  0.00    +0.000 A 
ATOM     20  C   UNL     1      35.813  -3.562  15.898  0.00  0.00    +0.000 A 
ATOM     21  C   UNL     1      35.308  -2.619  16.744  0.00  0.00    +0.000 A 
ATOM     22  C   UNL     1      35.426  -1.285  16.479  0.00  0.00    +0.000 A 
BRANCH  22  23
ATOM     23  C   UNL     1      34.871  -0.265  17.396  0.00  0.00    +0.000 C 
ATOM     24  C   UNL     1      35.618  -0.271  18.727  0.00  0.00    +0.000 C 
ENDBRANCH  22  23
ENDBRANCH  16  17
ENDBRANCH   4  16
BRANCH   5  25
ATOM     25  S   UNL     1      38.837   0.661  13.312  0.00  0.00    +0.000 S 
BRANCH  25  26
ATOM     26  C   UNL     1      40.184  -0.358  13.780  0.00  0.00    +0.000 A 
ATOM     27  C   UNL     1      41.450   0.268  13.750  0.00  0.00    +0.000 A 
ATOM     28  C   UNL     1      42.597  -0.369  14.076  0.00  0.00    +0.000 A 
ATOM     29  C   UNL     1      42.571  -1.686  14.460  0.00  0.00    +0.000 A 
ATOM     30  C   UNL     1      41.335  -2.322  14.497  0.00  0.00    +0.000 A 
ATOM     31  C   UNL     1      40.183  -1.655  14.162  0.00  0.00    +0.000 A 
ENDBRANCH  25  26
ENDBRANCH   5  25
TORSDOF 7
ENDMDL
MODEL 3
REMARK VINA RESULT:      -7.7      2.237      5.765
REMARK  Name = 
REMARK  7 active torsions:
REMARK  status: ('A' for Active; 'I' for Inactive)
REMARK    1  A    between atoms: C_2  and  C_3
REMARK    2  A    between atoms: C_6  and  N_7
REMARK    3  A    between atoms: C_10  and  N_11
REMARK    4  A    between atoms: N_11  and  C_12
REMARK    5  A    between atoms: C_17  and  C_18
REMARK    6  A    between atoms: C_20  and  S_21
REMARK    7  A    between atoms: S_21  and  C_22
REMARK                            x       y       z     vdW  Elec       q    Type
REMARK                         _______ _______ _______ _____ _____    ______ ____
ROOT
ATOM      1  N   UNL     1      36.645   2.022  14.938  0.00  0.00    +0.000 N 
ATOM      2  C   UNL     1      35.786   3.042  14.545  0.00  0.00    +0.000 C 
ATOM      3  O   UNL     1      34.543   2.939  14.329  0.00  0.00    +0.000 OA
ATOM      4  C   UNL     1      36.565   4.306  14.411  0.00  0.00    +0.000 C 
ATOM      5  C   UNL     1      37.838   4.023  14.721  0.00  0.00    +0.000 C 
ATOM      6  C   UNL     1      37.930   2.624  15.052  0.00  0.00    +0.000 C 
ATOM      7  O   UNL     1      38.973   1.992  15.395  0.00  0.00    +0.000 OA
ENDROOT
BRANCH   1  11
ATOM      8  C   UNL     1      35.751  -2.070  15.581  0.00  0.00    +0.000 A 
ATOM      9  C   UNL     1      36.545  -1.671  14.527  0.00  0.00    +0.000 A 
ATOM     10  C   UNL     1      36.823  -0.334  14.345  0.00  0.00    +0.000 A 
ATOM     11  C   UNL     1      36.340   0.650  15.176  0.00  0.00    +0.000 A 
ATOM     12  C   UNL     1      35.544   0.252  16.232  0.00  0.00    +0.000 A 
ATOM     13  C   UNL     1      35.266  -1.086  16.417  0.00  0.00    +0.000 A 
BRANCH   8  15
ATOM     14  C   UNL     1      34.048  -3.858  15.299  0.00  0.00    +0.000 C 
ATOM     15  C   UNL     1      35.428  -3.523  15.804  0.00  0.00    +0.000 C 
ENDBRANCH   8  15
ENDBRANCH   1  11
BRANCH   4  16
ATOM     16  N   UNL     1      35.956   5.474  14.016  0.00  0.00    +0.000 NA
BRANCH  16  17
ATOM     17  C   UNL     1      35.444   6.057  12.901  0.00  0.00    +0.000 A 
ATOM     18  C   UNL     1      36.007   5.976  11.660  0.00  0.00    +0.000 A 
ATOM     19  C   UNL     1      35.424   6.594  10.554  0.00  0.00    +0.000 A 
ATOM     20  C   UNL     1      34.255   7.313  10.670  0.00  0.00    +0.000 A 
ATOM     21  C   UNL     1      33.688   7.399  11.908  0.00  0.00    +0.000 A 
ATOM     22  C   UNL     1      34.250   6.797  12.996  0.00  0.00    +0.000 A 
BRANCH  22  23
ATOM     23  C   UNL     1      33.635   6.899  14.337  0.00  0.00    +0.000 C 
ATOM     24  C   UNL     1      33.709   8.331  14.859  0.00  0.00    +0.000 C 
ENDBRANCH  22  23
ENDBRANCH  16  17
ENDBRANCH   4  16
BRANCH   5  25
ATOM     25  S   UNL     1      39.100   5.243  14.689  0.00  0.00    +0.000 S 
BRANCH  25  26
ATOM     26  C   UNL     1      39.817   5.653  16.235  0.00  0.00    +0.000 A 
ATOM     27  C   UNL     1      39.010   5.382  17.362  0.00  0.00    +0.000 A 
ATOM     28  C   UNL     1      39.401   5.638  18.631  0.00  0.00    +0.000 A 
ATOM     29  C   UNL     1      40.635   6.187  18.875  0.00  0.00    +0.000 A 
ATOM     30  C   UNL     1      41.446   6.462  17.780  0.00  0.00    +0.000 A 
ATOM     31  C   UNL     1      41.028   6.193  16.501  0.00  0.00    +0.000 A 
ENDBRANCH  25  26
ENDBRANCH   5  25
TORSDOF 7
ENDMDL
MODEL 4
REMARK VINA RESULT:      -7.6      2.413      7.951
REMARK  Name = 
REMARK  7 active torsions:
REMARK  status: ('A' for Active; 'I' for Inactive)
REMARK    1  A    between atoms: C_2  and  C_3
REMARK    2  A    between atoms: C_6  and  N_7
REMARK    3  A    between atoms: C_10  and  N_11
REMARK    4  A    between atoms: N_11  and  C_12
REMARK    5  A    between atoms: C_17  and  C_18
REMARK    6  A    between atoms: C_20  and  S_21
REMARK    7  A    between atoms: S_21  and  C_22
REMARK                            x       y       z     vdW  Elec       q    Type
REMARK                         _______ _______ _______ _____ _____    ______ ____
ROOT
ATOM      1  N   UNL     1      38.478   4.995  15.693  0.00  0.00    +0.000 N 
ATOM      2  C   UNL     1      37.455   5.718  15.092  0.00  0.00    +0.000 C 
ATOM      3  O   UNL     1      37.253   6.964  15.191  0.00  0.00    +0.000 OA
ATOM      4  C   UNL     1      36.608   4.786  14.294  0.00  0.00    +0.000 C 
ATOM      5  C   UNL     1      37.131   3.559  14.428  0.00  0.00    +0.000 C 
ATOM      6  C   UNL     1      38.286   3.644  15.285  0.00  0.00    +0.000 C 
ATOM      7  O   UNL     1      39.038   2.690  15.642  0.00  0.00    +0.000 OA
ENDROOT
BRANCH   1  11
ATOM      8  C   UNL     1      41.507   6.419  18.293  0.00  0.00    +0.000 A 
ATOM      9  C   UNL     1      40.316   5.930  18.786  0.00  0.00    +0.000 A 
ATOM     10  C   UNL     1      39.351   5.469  17.918  0.00  0.00    +0.000 A 
ATOM     11  C   UNL     1      39.512   5.470  16.551  0.00  0.00    +0.000 A 
ATOM     12  C   UNL     1      40.704   5.960  16.056  0.00  0.00    +0.000 A 
ATOM     13  C   UNL     1      41.672   6.421  16.923  0.00  0.00    +0.000 A 
BRANCH   8  15
ATOM     14  C   UNL     1      42.188   6.745  20.661  0.00  0.00    +0.000 C 
ATOM     15  C   UNL     1      42.578   6.931  19.217  0.00  0.00    +0.000 C 
ENDBRANCH   8  15
ENDBRANCH   1  11
BRANCH   4  16
ATOM     16  N   UNL     1      35.509   5.242  13.604  0.00  0.00    +0.000 NA
BRANCH  16  17
ATOM     17  C   UNL     1      35.199   6.014  12.529  0.00  0.00    +0.000 A 
ATOM     18  C   UNL     1      35.792   5.905  11.304  0.00  0.00    +0.000 A 
ATOM     19  C   UNL     1      35.422   6.726  10.241  0.00  0.00    +0.000 A 
ATOM     20  C   UNL     1      34.440   7.682  10.383  0.00  0.00    +0.000 A 
ATOM     21  C   UNL     1      33.844   7.797  11.604  0.00  0.00    +0.000 A 
ATOM     22  C   UNL     1      34.199   6.998  12.651  0.00  0.00    +0.000 A 
BRANCH  22  23
ATOM     23  C   UNL     1      33.555   7.130  13.976  0.00  0.00    +0.000 C 
ATOM     24  C   UNL     1      33.864   8.491  14.595  0.00  0.00    +0.000 C 
ENDBRANCH  22  23
ENDBRANCH  16  17
ENDBRANCH   4  16
BRANCH   5  25
ATOM     25  S   UNL     1      36.430   2.153  13.643  0.00  0.00    +0.000 S 
BRANCH  25  26
ATOM     26  C   UNL     1      36.135   0.764  14.670  0.00  0.00    +0.000 A 
ATOM     27  C   UNL     1      35.390   1.030  15.841  0.00  0.00    +0.000 A 
ATOM     28  C   UNL     1      35.073   0.078  16.747  0.00  0.00    +0.000 A 
ATOM     29  C   UNL     1      35.476  -1.220  16.555  0.00  0.00    +0.000 A 
ATOM     30  C   UNL     1      36.210  -1.504  15.410  0.00  0.00    +0.000 A 
ATOM     31  C   UNL     1      36.520  -0.521  14.502  0.00  0.00    +0.000 A 
ENDBRANCH  25  26
ENDBRANCH   5  25
TORSDOF 7
ENDMDL
MODEL 5
REMARK VINA RESULT:      -7.6      2.438      8.059
REMARK  Name = 
REMARK  7 active torsions:
REMARK  status: ('A' for Active; 'I' for Inactive)
REMARK    1  A    between atoms: C_2  and  C_3
REMARK    2  A    between atoms: C_6  and  N_7
REMARK    3  A    between atoms: C_10  and  N_11
REMARK    4  A    between atoms: N_11  and  C_12
REMARK    5  A    between atoms: C_17  and  C_18
REMARK    6  A    between atoms: C_20  and  S_21
REMARK    7  A    between atoms: S_21  and  C_22
REMARK                            x       y       z     vdW  Elec       q    Type
REMARK                         _______ _______ _______ _____ _____    ______ ____
ROOT
ATOM      1  N   UNL     1      38.372   5.050  16.512  0.00  0.00    +0.000 N 
ATOM      2  C   UNL     1      38.042   5.516  15.244  0.00  0.00    +0.000 C 
ATOM      3  O   UNL     1      38.563   6.502  14.645  0.00  0.00    +0.000 OA
ATOM      4  C   UNL     1      36.959   4.661  14.681  0.00  0.00    +0.000 C 
ATOM      5  C   UNL     1      36.672   3.726  15.598  0.00  0.00    +0.000 C 
ATOM      6  C   UNL     1      37.521   3.931  16.743  0.00  0.00    +0.000 C 
ATOM      7  O   UNL     1      37.539   3.245  17.808  0.00  0.00    +0.000 OA
ENDROOT
BRANCH   1  11
ATOM      8  C   UNL     1      41.205   6.606  19.252  0.00  0.00    +0.000 A 
ATOM      9  C   UNL     1      39.913   6.331  19.643  0.00  0.00    +0.000 A 
ATOM     10  C   UNL     1      39.013   5.821  18.732  0.00  0.00    +0.000 A 
ATOM     11  C   UNL     1      39.341   5.566  17.420  0.00  0.00    +0.000 A 
ATOM     12  C   UNL     1      40.635   5.842  17.027  0.00  0.00    +0.000 A 
ATOM     13  C   UNL     1      41.537   6.351  17.937  0.00  0.00    +0.000 A 
BRANCH   8  15
ATOM     14  C   UNL     1      42.869   6.067  21.017  0.00  0.00    +0.000 C 
ATOM     15  C   UNL     1      42.209   7.166  20.224  0.00  0.00    +0.000 C 
ENDBRANCH   8  15
ENDBRANCH   1  11
BRANCH   4  16
ATOM     16  N   UNL     1      36.433   4.914  13.435  0.00  0.00    +0.000 NA
BRANCH  16  17
ATOM     17  C   UNL     1      35.530   5.731  12.831  0.00  0.00    +0.000 A 
ATOM     18  C   UNL     1      34.446   6.277  13.454  0.00  0.00    +0.000 A 
ATOM     19  C   UNL     1      33.562   7.115  12.776  0.00  0.00    +0.000 A 
ATOM     20  C   UNL     1      33.748   7.425  11.447  0.00  0.00    +0.000 A 
ATOM     21  C   UNL     1      34.830   6.883  10.818  0.00  0.00    +0.000 A 
ATOM     22  C   UNL     1      35.701   6.062  11.474  0.00  0.00    +0.000 A 
BRANCH  22  23
ATOM     23  C   UNL     1      36.869   5.471  10.786  0.00  0.00    +0.000 C 
ATOM     24  C   UNL     1      36.422   4.552   9.652  0.00  0.00    +0.000 C 
ENDBRANCH  22  23
ENDBRANCH  16  17
ENDBRANCH   4  16
BRANCH   5  25
ATOM     25  S   UNL     1      35.438   2.505  15.333  0.00  0.00    +0.000 S 
BRANCH  25  26
ATOM     26  C   UNL     1      35.780   0.912  15.978  0.00  0.00    +0.000 A 
ATOM     27  C   UNL     1      34.843   0.431  16.920  0.00  0.00    +0.000 A 
ATOM     28  C   UNL     1      34.951  -0.774  17.522  0.00  0.00    +0.000 A 
ATOM     29  C   UNL     1      36.007  -1.600  17.229  0.00  0.00    +0.000 A 
ATOM     30  C   UNL     1      36.941  -1.148  16.304  0.00  0.00    +0.000 A 
ATOM     31  C   UNL     1      36.810   0.081  15.705  0.00  0.00    +0.000 A 
ENDBRANCH  25  26
ENDBRANCH   5  25
TORSDOF 7
ENDMDL
MODEL 6
REMARK VINA RESULT:      -7.6      1.481      2.587
REMARK  Name = 
REMARK  7 active torsions:
REMARK  status: ('A' for Active; 'I' for Inactive)
REMARK    1  A    between atoms: C_2  and  C_3
REMARK    2  A    between atoms: C_6  and  N_7
REMARK    3  A    between atoms: C_10  and  N_11
REMARK    4  A    between atoms: N_11  and  C_12
REMARK    5  A    between atoms: C_17  and  C_18
REMARK    6  A    between atoms: C_20  and  S_21
REMARK    7  A    between atoms: S_21  and  C_22
REMARK                            x       y       z     vdW  Elec       q    Type
REMARK                         _______ _______ _______ _____ _____    ______ ____
ROOT
ATOM      1  N   UNL     1      36.952   3.424  15.837  0.00  0.00    +0.000 N 
ATOM      2  C   UNL     1      37.698   4.201  16.716  0.00  0.00    +0.000 C 
ATOM      3  O   UNL     1      38.098   3.861  17.868  0.00  0.00    +0.000 OA
ATOM      4  C   UNL     1      37.964   5.525  16.086  0.00  0.00    +0.000 C 
ATOM      5  C   UNL     1      37.390   5.512  14.875  0.00  0.00    +0.000 C 
ATOM      6  C   UNL     1      36.753   4.234  14.682  0.00  0.00    +0.000 C 
ATOM      7  O   UNL     1      36.109   3.853  13.661  0.00  0.00    +0.000 OA
ENDROOT
BRANCH   1  11
ATOM      8  C   UNL     1      35.463  -0.496  16.446  0.00  0.00    +0.000 A 
ATOM      9  C   UNL     1      34.822   0.600  16.981  0.00  0.00    +0.000 A 
ATOM     10  C   UNL     1      35.326   1.864  16.763  0.00  0.00    +0.000 A 
ATOM     11  C   UNL     1      36.462   2.099  16.023  0.00  0.00    +0.000 A 
ATOM     12  C   UNL     1      37.105   1.001  15.488  0.00  0.00    +0.000 A 
ATOM     13  C   UNL     1      36.603  -0.264  15.704  0.00  0.00    +0.000 A 
BRANCH   8  15
ATOM     14  C   UNL     1      33.604  -1.862  17.371  0.00  0.00    +0.000 C 
ATOM     15  C   UNL     1      34.938  -1.889  16.669  0.00  0.00    +0.000 C 
ENDBRANCH   8  15
ENDBRANCH   1  11
BRANCH   4  16
ATOM     16  N   UNL     1      38.675   6.496  16.752  0.00  0.00    +0.000 NA
BRANCH  16  17
ATOM     17  C   UNL     1      39.483   6.638  17.835  0.00  0.00    +0.000 A 
ATOM     18  C   UNL     1      40.759   6.160  17.914  0.00  0.00    +0.000 A 
ATOM     19  C   UNL     1      41.536   6.347  19.056  0.00  0.00    +0.000 A 
ATOM     20  C   UNL     1      41.048   7.023  20.152  0.00  0.00    +0.000 A 
ATOM     21  C   UNL     1      39.773   7.503  20.080  0.00  0.00    +0.000 A 
ATOM     22  C   UNL     1      39.004   7.326  18.967  0.00  0.00    +0.000 A 
BRANCH  22  23
ATOM     23  C   UNL     1      37.620   7.843  18.895  0.00  0.00    +0.000 C 
ATOM     24  C   UNL     1      37.351   8.828  20.029  0.00  0.00    +0.000 C 
ENDBRANCH  22  23
ENDBRANCH  16  17
ENDBRANCH   4  16
BRANCH   5  25
ATOM     25  S   UNL     1      37.464   6.891  13.790  0.00  0.00    +0.000 S 
BRANCH  25  26
ATOM     26  C   UNL     1      36.112   7.082  12.692  0.00  0.00    +0.000 A 
ATOM     27  C   UNL     1      34.836   7.036  13.295  0.00  0.00    +0.000 A 
ATOM     28  C   UNL     1      33.683   7.161  12.599  0.00  0.00    +0.000 A 
ATOM     29  C   UNL     1      33.715   7.344  11.239  0.00  0.00    +0.000 A 
ATOM     30  C   UNL     1      34.960   7.393  10.624  0.00  0.00    +0.000 A 
ATOM     31  C   UNL     1      36.118   7.264  11.352  0.00  0.00    +0.000 A 
ENDBRANCH  25  26
ENDBRANCH   5  25
TORSDOF 7
ENDMDL
MODEL 7
REMARK VINA RESULT:      -7.6      5.663      9.724
REMARK  Name = 
REMARK  7 active torsions:
REMARK  status: ('A' for Active; 'I' for Inactive)
REMARK    1  A    between atoms: C_2  and  C_3
REMARK    2  A    between atoms: C_6  and  N_7
REMARK    3  A    between atoms: C_10  and  N_11
REMARK    4  A    between atoms: N_11  and  C_12
REMARK    5  A    between atoms: C_17  and  C_18
REMARK    6  A    between atoms: C_20  and  S_21
REMARK    7  A    between atoms: S_21  and  C_22
REMARK                            x       y       z     vdW  Elec       q    Type
REMARK                         _______ _______ _______ _____ _____    ______ ____
ROOT
ATOM      1  N   UNL     1      40.032  -1.946  14.598  0.00  0.00    +0.000 N 
ATOM      2  C   UNL     1      39.012  -1.082  14.218  0.00  0.00    +0.000 C 
ATOM      3  O   UNL     1      39.087  -0.162  13.351  0.00  0.00    +0.000 OA
ATOM      4  C   UNL     1      37.786  -1.404  15.003  0.00  0.00    +0.000 C 
ATOM      5  C   UNL     1      38.090  -2.429  15.811  0.00  0.00    +0.000 C 
ATOM      6  C   UNL     1      39.467  -2.794  15.593  0.00  0.00    +0.000 C 
ATOM      7  O   UNL     1      40.109  -3.717  16.176  0.00  0.00    +0.000 OA
ENDROOT
BRANCH   1  11
ATOM      8  C   UNL     1      44.014  -2.158  13.163  0.00  0.00    +0.000 A 
ATOM      9  C   UNL     1      43.051  -3.043  12.727  0.00  0.00    +0.000 A 
ATOM     10  C   UNL     1      41.763  -2.948  13.207  0.00  0.00    +0.000 A 
ATOM     11  C   UNL     1      41.374  -1.996  14.121  0.00  0.00    +0.000 A 
ATOM     12  C   UNL     1      42.337  -1.110  14.559  0.00  0.00    +0.000 A 
ATOM     13  C   UNL     1      43.627  -1.202  14.080  0.00  0.00    +0.000 A 
BRANCH   8  15
ATOM     14  C   UNL     1      46.063  -3.557  13.024  0.00  0.00    +0.000 C 
ATOM     15  C   UNL     1      45.429  -2.239  12.659  0.00  0.00    +0.000 C 
ENDBRANCH   8  15
ENDBRANCH   1  11
BRANCH   4  16
ATOM     16  N   UNL     1      36.626  -0.685  14.833  0.00  0.00    +0.000 NA
BRANCH  16  17
ATOM     17  C   UNL     1      36.159   0.585  14.962  0.00  0.00    +0.000 A 
ATOM     18  C   UNL     1      36.410   1.593  14.077  0.00  0.00    +0.000 A 
ATOM     19  C   UNL     1      35.893   2.873  14.267  0.00  0.00    +0.000 A 
ATOM     20  C   UNL     1      35.106   3.173  15.357  0.00  0.00    +0.000 A 
ATOM     21  C   UNL     1      34.852   2.170  16.246  0.00  0.00    +0.000 A 
ATOM     22  C   UNL     1      35.353   0.913  16.069  0.00  0.00    +0.000 A 
BRANCH  22  23
ATOM     23  C   UNL     1      35.080  -0.170  17.039  0.00  0.00    +0.000 C 
ATOM     24  C   UNL     1      35.668   0.167  18.406  0.00  0.00    +0.000 C 
ENDBRANCH  22  23
ENDBRANCH  16  17
ENDBRANCH   4  16
BRANCH   5  25
ATOM     25  S   UNL     1      36.918  -3.127  16.917  0.00  0.00    +0.000 S 
BRANCH  25  26
ATOM     26  C   UNL     1      35.590  -4.003  16.182  0.00  0.00    +0.000 A 
ATOM     27  C   UNL     1      35.746  -5.407  16.141  0.00  0.00    +0.000 A 
ATOM     28  C   UNL     1      34.823  -6.238  15.607  0.00  0.00    +0.000 A 
ATOM     29  C   UNL     1      33.666  -5.731  15.068  0.00  0.00    +0.000 A 
ATOM     30  C   UNL     1      33.492  -4.352  15.097  0.00  0.00    +0.000 A 
ATOM     31  C   UNL     1      34.443  -3.528  15.646  0.00  0.00    +0.000 A 
ENDBRANCH  25  26
ENDBRANCH   5  25
TORSDOF 7
ENDMDL
MODEL 8
REMARK VINA RESULT:      -7.6      1.270      2.405
REMARK  Name = 
REMARK  7 active torsions:
REMARK  status: ('A' for Active; 'I' for Inactive)
REMARK    1  A    between atoms: C_2  and  C_3
REMARK    2  A    between atoms: C_6  and  N_7
REMARK    3  A    between atoms: C_10  and  N_11
REMARK    4  A    between atoms: N_11  and  C_12
REMARK    5  A    between atoms: C_17  and  C_18
REMARK    6  A    between atoms: C_20  and  S_21
REMARK    7  A    between atoms: S_21  and  C_22
REMARK                            x       y       z     vdW  Elec       q    Type
REMARK                         _______ _______ _______ _____ _____    ______ ____
ROOT
ATOM      1  N   UNL     1      36.757   3.268  15.928  0.00  0.00    +0.000 N 
ATOM      2  C   UNL     1      37.658   3.961  16.728  0.00  0.00    +0.000 C 
ATOM      3  O   UNL     1      38.191   3.544  17.798  0.00  0.00    +0.000 OA
ATOM      4  C   UNL     1      37.910   5.301  16.126  0.00  0.00    +0.000 C 
ATOM      5  C   UNL     1      37.176   5.378  15.007  0.00  0.00    +0.000 C 
ATOM      6  C   UNL     1      36.449   4.144  14.848  0.00  0.00    +0.000 C 
ATOM      7  O   UNL     1      35.652   3.847  13.910  0.00  0.00    +0.000 OA
ENDROOT
BRANCH   1  11
ATOM      8  C   UNL     1      35.148  -0.600  16.565  0.00  0.00    +0.000 A 
ATOM      9  C   UNL     1      34.637   0.501  17.219  0.00  0.00    +0.000 A 
ATOM     10  C   UNL     1      35.177   1.747  16.989  0.00  0.00    +0.000 A 
ATOM     11  C   UNL     1      36.225   1.961  16.122  0.00  0.00    +0.000 A 
ATOM     12  C   UNL     1      36.737   0.859  15.468  0.00  0.00    +0.000 A 
ATOM     13  C   UNL     1      36.198  -0.389  15.695  0.00  0.00    +0.000 A 
BRANCH   8  15
ATOM     14  C   UNL     1      35.415  -3.030  16.117  0.00  0.00    +0.000 C 
ATOM     15  C   UNL     1      34.581  -1.974  16.797  0.00  0.00    +0.000 C 
ENDBRANCH   8  15
ENDBRANCH   1  11
BRANCH   4  16
ATOM     16  N   UNL     1      38.757   6.201  16.729  0.00  0.00    +0.000 NA
BRANCH  16  17
ATOM     17  C   UNL     1      40.074   6.355  17.026  0.00  0.00    +0.000 A 
ATOM     18  C   UNL     1      41.065   6.485  16.096  0.00  0.00    +0.000 A 
ATOM     19  C   UNL     1      42.398   6.646  16.470  0.00  0.00    +0.000 A 
ATOM     20  C   UNL     1      42.769   6.681  17.796  0.00  0.00    +0.000 A 
ATOM     21  C   UNL     1      41.785   6.550  18.731  0.00  0.00    +0.000 A 
ATOM     22  C   UNL     1      40.477   6.393  18.374  0.00  0.00    +0.000 A 
BRANCH  22  23
ATOM     23  C   UNL     1      39.413   6.245  19.391  0.00  0.00    +0.000 C 
ATOM     24  C   UNL     1      39.377   7.458  20.317  0.00  0.00    +0.000 C 
ENDBRANCH  22  23
ENDBRANCH  16  17
ENDBRANCH   4  16
BRANCH   5  25
ATOM     25  S   UNL     1      37.179   6.805  13.983  0.00  0.00    +0.000 S 
BRANCH  25  26
ATOM     26  C   UNL     1      36.017   8.051  14.393  0.00  0.00    +0.000 A 
ATOM     27  C   UNL     1      36.563   9.212  14.985  0.00  0.00    +0.000 A 
ATOM     28  C   UNL     1      35.813  10.269  15.368  0.00  0.00    +0.000 A 
ATOM     29  C   UNL     1      34.452  10.252  15.189  0.00  0.00    +0.000 A 
ATOM     30  C   UNL     1      33.893   9.119  14.609  0.00  0.00    +0.000 A 
ATOM     31  C   UNL     1      34.675   8.057  14.227  0.00  0.00    +0.000 A 
ENDBRANCH  25  26
ENDBRANCH   5  25
TORSDOF 7
ENDMDL
MODEL 9
REMARK VINA RESULT:      -7.5      5.903      9.862
REMARK  Name = 
REMARK  7 active torsions:
REMARK  status: ('A' for Active; 'I' for Inactive)
REMARK    1  A    between atoms: C_2  and  C_3
REMARK    2  A    between atoms: C_6  and  N_7
REMARK    3  A    between atoms: C_10  and  N_11
REMARK    4  A    between atoms: N_11  and  C_12
REMARK    5  A    between atoms: C_17  and  C_18
REMARK    6  A    between atoms: C_20  and  S_21
REMARK    7  A    between atoms: S_21  and  C_22
REMARK                            x       y       z     vdW  Elec       q    Type
REMARK                         _______ _______ _______ _____ _____    ______ ____
ROOT
ATOM      1  N   UNL     1      40.179  -2.102  14.475  0.00  0.00    +0.000 N 
ATOM      2  C   UNL     1      39.198  -1.233  14.013  0.00  0.00    +0.000 C 
ATOM      3  O   UNL     1      39.320  -0.385  13.081  0.00  0.00    +0.000 OA
ATOM      4  C   UNL     1      37.949  -1.453  14.796  0.00  0.00    +0.000 C 
ATOM      5  C   UNL     1      38.202  -2.424  15.685  0.00  0.00    +0.000 C 
ATOM      6  C   UNL     1      39.567  -2.852  15.520  0.00  0.00    +0.000 C 
ATOM      7  O   UNL     1      40.167  -3.751  16.182  0.00  0.00    +0.000 OA
ENDROOT
BRANCH   1  11
ATOM      8  C   UNL     1      44.198  -2.434  13.171  0.00  0.00    +0.000 A 
ATOM      9  C   UNL     1      43.842  -1.550  14.168  0.00  0.00    +0.000 A 
ATOM     10  C   UNL     1      42.529  -1.467  14.575  0.00  0.00    +0.000 A 
ATOM     11  C   UNL     1      41.526  -2.235  14.029  0.00  0.00    +0.000 A 
ATOM     12  C   UNL     1      41.881  -3.119  13.030  0.00  0.00    +0.000 A 
ATOM     13  C   UNL     1      43.194  -3.205  12.622  0.00  0.00    +0.000 A 
BRANCH   8  15
ATOM     14  C   UNL     1      46.387  -3.556  13.521  0.00  0.00    +0.000 C 
ATOM     15  C   UNL     1      45.623  -2.545  12.704  0.00  0.00    +0.000 C 
ENDBRANCH   8  15
ENDBRANCH   1  11
BRANCH   4  16
ATOM     16  N   UNL     1      36.818  -0.708  14.552  0.00  0.00    +0.000 NA
BRANCH  16  17
ATOM     17  C   UNL     1      36.124   0.335  15.077  0.00  0.00    +0.000 A 
ATOM     18  C   UNL     1      35.545   0.333  16.313  0.00  0.00    +0.000 A 
ATOM     19  C   UNL     1      34.852   1.442  16.794  0.00  0.00    +0.000 A 
ATOM     20  C   UNL     1      34.722   2.587  16.039  0.00  0.00    +0.000 A 
ATOM     21  C   UNL     1      35.297   2.596  14.803  0.00  0.00    +0.000 A 
ATOM     22  C   UNL     1      35.979   1.516  14.323  0.00  0.00    +0.000 A 
BRANCH  22  23
ATOM     23  C   UNL     1      36.595   1.527  12.979  0.00  0.00    +0.000 C 
ATOM     24  C   UNL     1      37.317   2.848  12.726  0.00  0.00    +0.000 C 
ENDBRANCH  22  23
ENDBRANCH  16  17
ENDBRANCH   4  16
BRANCH   5  25
ATOM     25  S   UNL     1      36.987  -2.995  16.817  0.00  0.00    +0.000 S 
BRANCH  25  26
ATOM     26  C   UNL     1      35.779  -4.087  16.168  0.00  0.00    +0.000 A 
ATOM     27  C   UNL     1      34.630  -3.462  15.633  0.00  0.00    +0.000 A 
ATOM     28  C   UNL     1      33.598  -4.149  15.095  0.00  0.00    +0.000 A 
ATOM     29  C   UNL     1      33.632  -5.521  15.047  0.00  0.00    +0.000 A 
ATOM     30  C   UNL     1      34.753  -6.157  15.568  0.00  0.00    +0.000 A 
ATOM     31  C   UNL     1      35.790  -5.437  16.109  0.00  0.00    +0.000 A 
ENDBRANCH  25  26
ENDBRANCH   5  25
TORSDOF 7
ENDMDL
MODEL 10
REMARK VINA RESULT:      -7.3      2.058      7.424
REMARK  Name = 
REMARK  7 active torsions:
REMARK  status: ('A' for Active; 'I' for Inactive)
REMARK    1  A    between atoms: C_2  and  C_3
REMARK    2  A    between atoms: C_6  and  N_7
REMARK    3  A    between atoms: C_10  and  N_11
REMARK    4  A    between atoms: N_11  and  C_12
REMARK    5  A    between atoms: C_17  and  C_18
REMARK    6  A    between atoms: C_20  and  S_21
REMARK    7  A    between atoms: S_21  and  C_22
REMARK                            x       y       z     vdW  Elec       q    Type
REMARK                         _______ _______ _______ _____ _____    ______ ____
ROOT
ATOM      1  N   UNL     1      38.712   6.051  16.601  0.00  0.00    +0.000 N 
ATOM      2  C   UNL     1      38.128   7.039  15.817  0.00  0.00    +0.000 C 
ATOM      3  O   UNL     1      38.372   8.281  15.863  0.00  0.00    +0.000 OA
ATOM      4  C   UNL     1      37.148   6.406  14.890  0.00  0.00    +0.000 C 
ATOM      5  C   UNL     1      37.167   5.088  15.131  0.00  0.00    +0.000 C 
ATOM      6  C   UNL     1      38.118   4.827  16.180  0.00  0.00    +0.000 C 
ATOM      7  O   UNL     1      38.410   3.699  16.678  0.00  0.00    +0.000 OA
ENDROOT
BRANCH   1  11
ATOM      8  C   UNL     1      41.672   6.464  19.605  0.00  0.00    +0.000 A 
ATOM      9  C   UNL     1      42.009   6.460  18.269  0.00  0.00    +0.000 A 
ATOM     10  C   UNL     1      41.025   6.328  17.313  0.00  0.00    +0.000 A 
ATOM     11  C   UNL     1      39.691   6.197  17.626  0.00  0.00    +0.000 A 
ATOM     12  C   UNL     1      39.353   6.201  18.964  0.00  0.00    +0.000 A 
ATOM     13  C   UNL     1      40.335   6.333  19.922  0.00  0.00    +0.000 A 
BRANCH   8  15
ATOM     14  C   UNL     1      44.107   6.644  20.070  0.00  0.00    +0.000 C 
ATOM     15  C   UNL     1      42.724   6.603  20.671  0.00  0.00    +0.000 C 
ENDBRANCH   8  15
ENDBRANCH   1  11
BRANCH   4  16
ATOM     16  N   UNL     1      36.414   7.165  14.008  0.00  0.00    +0.000 NA
BRANCH  16  17
ATOM     17  C   UNL     1      35.595   8.250  13.997  0.00  0.00    +0.000 A 
ATOM     18  C   UNL     1      34.906   8.707  15.083  0.00  0.00    +0.000 A 
ATOM     19  C   UNL     1      34.087   9.832  15.004  0.00  0.00    +0.000 A 
ATOM     20  C   UNL     1      33.941  10.529  13.825  0.00  0.00    +0.000 A 
ATOM     21  C   UNL     1      34.626  10.078  12.736  0.00  0.00    +0.000 A 
ATOM     22  C   UNL     1      35.431   8.978  12.803  0.00  0.00    +0.000 A 
BRANCH  22  23
ATOM     23  C   UNL     1      36.167   8.487  11.618  0.00  0.00    +0.000 C 
ATOM     24  C   UNL     1      35.200   8.081  10.509  0.00  0.00    +0.000 C 
ENDBRANCH  22  23
ENDBRANCH  16  17
ENDBRANCH   4  16
BRANCH   5  25
ATOM     25  S   UNL     1      36.149   3.961  14.248  0.00  0.00    +0.000 S 
BRANCH  25  26
ATOM     26  C   UNL     1      35.893   2.400  15.001  0.00  0.00    +0.000 A 
ATOM     27  C   UNL     1      35.107   2.420  16.175  0.00  0.00    +0.000 A 
ATOM     28  C   UNL     1      34.813   1.309  16.887  0.00  0.00    +0.000 A 
ATOM     29  C   UNL     1      35.282   0.084  16.481  0.00  0.00    +0.000 A 
ATOM     30  C   UNL     1      36.058   0.041  15.329  0.00  0.00    +0.000 A 
ATOM     31  C   UNL     1      36.343   1.183  14.621  0.00  0.00    +0.000 A 
ENDBRANCH  25  26
ENDBRANCH   5  25
TORSDOF 7
ENDMDL
