MODEL 1
REMARK VINA RESULT:      -8.7      0.000      0.000
REMARK  Name = 
REMARK  2 active torsions:
REMARK  status: ('A' for Active; 'I' for Inactive)
REMARK    1  A    between atoms: O_2  and  C_3
REMARK    2  A    between atoms: C_5  and  C_6
REMARK                            x       y       z     vdW  Elec       q    Type
REMARK                         _______ _______ _______ _____ _____    ______ ____
ROOT
ATOM      1  C   UNL     1      14.670  11.864  36.268  0.00  0.00    +0.000 A 
ATOM      2  C   UNL     1      13.609  11.684  37.130  0.00  0.00    +0.000 A 
ATOM      3  C   UNL     1      13.800  11.070  38.347  0.00  0.00    +0.000 A 
ATOM      4  O   UNL     1      12.882  10.873  39.181  0.00  0.00    +0.000 OA
ATOM      5  C   UNL     1      15.077  10.647  38.667  0.00  0.00    +0.000 A 
ATOM      6  C   UNL     1      15.315  10.026  39.873  0.00  0.00    +0.000 A 
ATOM      7  C   UNL     1      16.577   9.592  40.224  0.00  0.00    +0.000 A 
ATOM      8  C   UNL     1      16.840   8.918  41.534  0.00  0.00    +0.000 C 
ATOM      9  C   UNL     1      17.592   9.806  39.310  0.00  0.00    +0.000 A 
ATOM     10  C   UNL     1      17.378  10.420  38.105  0.00  0.00    +0.000 A 
ATOM     11  C   UNL     1      18.451  10.663  37.105  0.00  0.00    +0.000 C 
ATOM     12  C   UNL     1      16.105  10.856  37.756  0.00  0.00    +0.000 A 
ATOM     13  O   UNL     1      15.875  11.445  36.611  0.00  0.00    +0.000 OA
ENDROOT
BRANCH   1  16
ATOM     14  C   UNL     1      14.835  12.539  32.587  0.00  0.00    +0.000 A 
ATOM     15  C   UNL     1      15.003  11.962  33.838  0.00  0.00    +0.000 A 
ATOM     16  C   UNL     1      14.455  12.523  34.969  0.00  0.00    +0.000 A 
ATOM     17  C   UNL     1      13.730  13.684  34.822  0.00  0.00    +0.000 A 
ATOM     18  C   UNL     1      13.551  14.275  33.583  0.00  0.00    +0.000 A 
ATOM     19  C   UNL     1      14.111  13.690  32.470  0.00  0.00    +0.000 A 
ATOM     20  O   UNL     1      13.899  14.329  31.236  0.00  0.00    +0.000 OA
BRANCH  14  22
ATOM     21  C   UNL     1      15.981  10.698  31.471  0.00  0.00    +0.000 C 
ATOM     22  O   UNL     1      15.384  11.980  31.440  0.00  0.00    +0.000 OA
ENDBRANCH  14  22
ENDBRANCH   1  16
TORSDOF 2
ENDMDL
MODEL 2
REMARK VINA RESULT:      -8.7      1.456      3.370
REMARK  Name = 
REMARK  2 active torsions:
REMARK  status: ('A' for Active; 'I' for Inactive)
REMARK    1  A    between atoms: O_2  and  C_3
REMARK    2  A    between atoms: C_5  and  C_6
REMARK                            x       y       z     vdW  Elec       q    Type
REMARK                         _______ _______ _______ _____ _____    ______ ____
ROOT
ATOM      1  C   UNL     1      16.492  10.919  34.819  0.00  0.00    +0.000 A 
ATOM      2  C   UNL     1      17.752  10.358  34.829  0.00  0.00    +0.000 A 
ATOM      3  C   UNL     1      18.296   9.895  36.004  0.00  0.00    +0.000 A 
ATOM      4  O   UNL     1      19.435   9.374  36.089  0.00  0.00    +0.000 OA
ATOM      5  C   UNL     1      17.542  10.012  37.158  0.00  0.00    +0.000 A 
ATOM      6  C   UNL     1      18.046   9.562  38.358  0.00  0.00    +0.000 A 
ATOM      7  C   UNL     1      17.321   9.664  39.528  0.00  0.00    +0.000 A 
ATOM      8  C   UNL     1      17.865   9.176  40.834  0.00  0.00    +0.000 C 
ATOM      9  C   UNL     1      16.066  10.237  39.442  0.00  0.00    +0.000 A 
ATOM     10  C   UNL     1      15.545  10.690  38.260  0.00  0.00    +0.000 A 
ATOM     11  C   UNL     1      14.200  11.310  38.139  0.00  0.00    +0.000 C 
ATOM     12  C   UNL     1      16.280  10.586  37.084  0.00  0.00    +0.000 A 
ATOM     13  O   UNL     1      15.805  11.012  35.942  0.00  0.00    +0.000 OA
ENDROOT
BRANCH   1  16
ATOM     14  C   UNL     1      14.459  12.968  32.430  0.00  0.00    +0.000 A 
ATOM     15  C   UNL     1      15.031  12.463  33.590  0.00  0.00    +0.000 A 
ATOM     16  C   UNL     1      15.919  11.411  33.555  0.00  0.00    +0.000 A 
ATOM     17  C   UNL     1      16.223  10.870  32.327  0.00  0.00    +0.000 A 
ATOM     18  C   UNL     1      15.663  11.359  31.159  0.00  0.00    +0.000 A 
ATOM     19  C   UNL     1      14.779  12.413  31.226  0.00  0.00    +0.000 A 
ATOM     20  O   UNL     1      14.238  12.872  30.012  0.00  0.00    +0.000 OA
BRANCH  14  22
ATOM     21  C   UNL     1      13.300  14.729  33.656  0.00  0.00    +0.000 C 
ATOM     22  O   UNL     1      13.563  14.029  32.456  0.00  0.00    +0.000 OA
ENDBRANCH  14  22
ENDBRANCH   1  16
TORSDOF 2
ENDMDL
MODEL 3
REMARK VINA RESULT:      -8.0      2.066      6.843
REMARK  Name = 
REMARK  2 active torsions:
REMARK  status: ('A' for Active; 'I' for Inactive)
REMARK    1  A    between atoms: O_2  and  C_3
REMARK    2  A    between atoms: C_5  and  C_6
REMARK                            x       y       z     vdW  Elec       q    Type
REMARK                         _______ _______ _______ _____ _____    ______ ____
ROOT
ATOM      1  C   UNL     1      15.600  11.327  36.693  0.00  0.00    +0.000 A 
ATOM      2  C   UNL     1      14.558  12.210  36.882  0.00  0.00    +0.000 A 
ATOM      3  C   UNL     1      13.998  12.863  35.809  0.00  0.00    +0.000 A 
ATOM      4  O   UNL     1      13.048  13.679  35.905  0.00  0.00    +0.000 OA
ATOM      5  C   UNL     1      14.513  12.604  34.551  0.00  0.00    +0.000 A 
ATOM      6  C   UNL     1      13.984  13.235  33.447  0.00  0.00    +0.000 A 
ATOM      7  C   UNL     1      14.474  12.999  32.179  0.00  0.00    +0.000 A 
ATOM      8  C   UNL     1      13.902  13.682  30.976  0.00  0.00    +0.000 C 
ATOM      9  C   UNL     1      15.519  12.101  32.066  0.00  0.00    +0.000 A 
ATOM     10  C   UNL     1      16.060  11.463  33.149  0.00  0.00    +0.000 A 
ATOM     11  C   UNL     1      17.183  10.494  33.055  0.00  0.00    +0.000 C 
ATOM     12  C   UNL     1      15.563  11.704  34.425  0.00  0.00    +0.000 A 
ATOM     13  O   UNL     1      16.063  11.107  35.476  0.00  0.00    +0.000 OA
ENDROOT
BRANCH   1  16
ATOM     14  C   UNL     1      18.061   9.432  38.787  0.00  0.00    +0.000 A 
ATOM     15  C   UNL     1      17.454  10.098  37.731  0.00  0.00    +0.000 A 
ATOM     16  C   UNL     1      16.191  10.633  37.849  0.00  0.00    +0.000 A 
ATOM     17  C   UNL     1      15.543  10.486  39.054  0.00  0.00    +0.000 A 
ATOM     18  C   UNL     1      16.131   9.826  40.120  0.00  0.00    +0.000 A 
ATOM     19  C   UNL     1      17.396   9.301  39.971  0.00  0.00    +0.000 A 
ATOM     20  O   UNL     1      17.948   8.640  41.082  0.00  0.00    +0.000 OA
BRANCH  14  22
ATOM     21  C   UNL     1      20.476   9.722  38.606  0.00  0.00    +0.000 C 
ATOM     22  O   UNL     1      19.335   8.889  38.678  0.00  0.00    +0.000 OA
ENDBRANCH  14  22
ENDBRANCH   1  16
TORSDOF 2
ENDMDL
MODEL 4
REMARK VINA RESULT:      -7.8      2.078      7.247
REMARK  Name = 
REMARK  2 active torsions:
REMARK  status: ('A' for Active; 'I' for Inactive)
REMARK    1  A    between atoms: O_2  and  C_3
REMARK    2  A    between atoms: C_5  and  C_6
REMARK                            x       y       z     vdW  Elec       q    Type
REMARK                         _______ _______ _______ _____ _____    ______ ____
ROOT
ATOM      1  C   UNL     1      16.325  10.950  35.851  0.00  0.00    +0.000 A 
ATOM      2  C   UNL     1      16.906  10.369  34.744  0.00  0.00    +0.000 A 
ATOM      3  C   UNL     1      16.540  10.766  33.478  0.00  0.00    +0.000 A 
ATOM      4  O   UNL     1      17.026  10.283  32.427  0.00  0.00    +0.000 OA
ATOM      5  C   UNL     1      15.582  11.757  33.361  0.00  0.00    +0.000 A 
ATOM      6  C   UNL     1      15.184  12.186  32.115  0.00  0.00    +0.000 A 
ATOM      7  C   UNL     1      14.230  13.171  31.962  0.00  0.00    +0.000 A 
ATOM      8  C   UNL     1      13.795  13.641  30.610  0.00  0.00    +0.000 C 
ATOM      9  C   UNL     1      13.691  13.709  33.117  0.00  0.00    +0.000 A 
ATOM     10  C   UNL     1      14.071  13.297  34.366  0.00  0.00    +0.000 A 
ATOM     11  C   UNL     1      13.508  13.857  35.622  0.00  0.00    +0.000 C 
ATOM     12  C   UNL     1      15.033  12.304  34.514  0.00  0.00    +0.000 A 
ATOM     13  O   UNL     1      15.413  11.893  35.696  0.00  0.00    +0.000 OA
ENDROOT
BRANCH   1  16
ATOM     14  C   UNL     1      18.441   9.642  38.652  0.00  0.00    +0.000 A 
ATOM     15  C   UNL     1      18.008  10.063  37.402  0.00  0.00    +0.000 A 
ATOM     16  C   UNL     1      16.725  10.518  37.200  0.00  0.00    +0.000 A 
ATOM     17  C   UNL     1      15.876  10.542  38.283  0.00  0.00    +0.000 A 
ATOM     18  C   UNL     1      16.288  10.127  39.538  0.00  0.00    +0.000 A 
ATOM     19  C   UNL     1      17.579   9.677  39.708  0.00  0.00    +0.000 A 
ATOM     20  O   UNL     1      17.948   9.267  41.001  0.00  0.00    +0.000 OA
BRANCH  14  22
ATOM     21  C   UNL     1      20.826   9.726  38.149  0.00  0.00    +0.000 C 
ATOM     22  O   UNL     1      19.735   9.182  38.865  0.00  0.00    +0.000 OA
ENDBRANCH  14  22
ENDBRANCH   1  16
TORSDOF 2
ENDMDL
MODEL 5
REMARK VINA RESULT:      -7.7      2.036      7.150
REMARK  Name = 
REMARK  2 active torsions:
REMARK  status: ('A' for Active; 'I' for Inactive)
REMARK    1  A    between atoms: O_2  and  C_3
REMARK    2  A    between atoms: C_5  and  C_6
REMARK                            x       y       z     vdW  Elec       q    Type
REMARK                         _______ _______ _______ _____ _____    ______ ____
ROOT
ATOM      1  C   UNL     1      16.190  11.058  36.585  0.00  0.00    +0.000 A 
ATOM      2  C   UNL     1      15.173  11.917  36.941  0.00  0.00    +0.000 A 
ATOM      3  C   UNL     1      14.466  12.595  35.974  0.00  0.00    +0.000 A 
ATOM      4  O   UNL     1      13.529  13.392  36.223  0.00  0.00    +0.000 OA
ATOM      5  C   UNL     1      14.810  12.383  34.651  0.00  0.00    +0.000 A 
ATOM      6  C   UNL     1      14.131  13.039  33.649  0.00  0.00    +0.000 A 
ATOM      7  C   UNL     1      14.449  12.851  32.319  0.00  0.00    +0.000 A 
ATOM      8  C   UNL     1      13.712  13.563  31.228  0.00  0.00    +0.000 C 
ATOM      9  C   UNL     1      15.480  11.975  32.038  0.00  0.00    +0.000 A 
ATOM     10  C   UNL     1      16.169  11.312  33.017  0.00  0.00    +0.000 A 
ATOM     11  C   UNL     1      17.280  10.365  32.742  0.00  0.00    +0.000 C 
ATOM     12  C   UNL     1      15.845  11.504  34.356  0.00  0.00    +0.000 A 
ATOM     13  O   UNL     1      16.488  10.883  35.310  0.00  0.00    +0.000 OA
ENDROOT
BRANCH   1  16
ATOM     14  C   UNL     1      17.050   9.555  39.907  0.00  0.00    +0.000 A 
ATOM     15  C   UNL     1      16.390  10.223  38.885  0.00  0.00    +0.000 A 
ATOM     16  C   UNL     1      16.940  10.338  37.627  0.00  0.00    +0.000 A 
ATOM     17  C   UNL     1      18.174   9.768  37.413  0.00  0.00    +0.000 A 
ATOM     18  C   UNL     1      18.849   9.098  38.420  0.00  0.00    +0.000 A 
ATOM     19  C   UNL     1      18.273   8.999  39.667  0.00  0.00    +0.000 A 
ATOM     20  O   UNL     1      18.999   8.310  40.653  0.00  0.00    +0.000 OA
BRANCH  14  22
ATOM     21  C   UNL     1      15.611   8.382  41.487  0.00  0.00    +0.000 C 
ATOM     22  O   UNL     1      16.504   9.434  41.178  0.00  0.00    +0.000 OA
ENDBRANCH  14  22
ENDBRANCH   1  16
TORSDOF 2
ENDMDL
MODEL 6
REMARK VINA RESULT:      -7.4      2.173      7.502
REMARK  Name = 
REMARK  2 active torsions:
REMARK  status: ('A' for Active; 'I' for Inactive)
REMARK    1  A    between atoms: O_2  and  C_3
REMARK    2  A    between atoms: C_5  and  C_6
REMARK                            x       y       z     vdW  Elec       q    Type
REMARK                         _______ _______ _______ _____ _____    ______ ____
ROOT
ATOM      1  C   UNL     1      17.093  10.446  36.305  0.00  0.00    +0.000 A 
ATOM      2  C   UNL     1      17.653  10.021  35.120  0.00  0.00    +0.000 A 
ATOM      3  C   UNL     1      17.165  10.479  33.918  0.00  0.00    +0.000 A 
ATOM      4  O   UNL     1      17.624  10.137  32.801  0.00  0.00    +0.000 OA
ATOM      5  C   UNL     1      16.108  11.371  33.945  0.00  0.00    +0.000 A 
ATOM      6  C   UNL     1      15.586  11.857  32.767  0.00  0.00    +0.000 A 
ATOM      7  C   UNL     1      14.532  12.747  32.758  0.00  0.00    +0.000 A 
ATOM      8  C   UNL     1      13.963  13.278  31.479  0.00  0.00    +0.000 C 
ATOM      9  C   UNL     1      14.022  13.129  33.985  0.00  0.00    +0.000 A 
ATOM     10  C   UNL     1      14.524  12.659  35.168  0.00  0.00    +0.000 A 
ATOM     11  C   UNL     1      13.995  13.053  36.499  0.00  0.00    +0.000 C 
ATOM     12  C   UNL     1      15.587  11.762  35.172  0.00  0.00    +0.000 A 
ATOM     13  O   UNL     1      16.084  11.298  36.289  0.00  0.00    +0.000 OA
ENDROOT
BRANCH   1  16
ATOM     14  C   UNL     1      17.285   9.588  39.947  0.00  0.00    +0.000 A 
ATOM     15  C   UNL     1      16.838  10.039  38.713  0.00  0.00    +0.000 A 
ATOM     16  C   UNL     1      17.623   9.949  37.586  0.00  0.00    +0.000 A 
ATOM     17  C   UNL     1      18.876   9.395  37.721  0.00  0.00    +0.000 A 
ATOM     18  C   UNL     1      19.341   8.939  38.943  0.00  0.00    +0.000 A 
ATOM     19  C   UNL     1      18.531   9.043  40.052  0.00  0.00    +0.000 A 
ATOM     20  O   UNL     1      19.050   8.566  41.268  0.00  0.00    +0.000 OA
BRANCH  14  22
ATOM     21  C   UNL     1      15.518   8.695  41.372  0.00  0.00    +0.000 C 
ATOM     22  O   UNL     1      16.500   9.674  41.090  0.00  0.00    +0.000 OA
ENDBRANCH  14  22
ENDBRANCH   1  16
TORSDOF 2
ENDMDL
MODEL 7
REMARK VINA RESULT:      -7.3     18.030     19.701
REMARK  Name = 
REMARK  2 active torsions:
REMARK  status: ('A' for Active; 'I' for Inactive)
REMARK    1  A    between atoms: O_2  and  C_3
REMARK    2  A    between atoms: C_5  and  C_6
REMARK                            x       y       z     vdW  Elec       q    Type
REMARK                         _______ _______ _______ _____ _____    ______ ____
ROOT
ATOM      1  C   UNL     1      27.424  23.053  26.919  0.00  0.00    +0.000 A 
ATOM      2  C   UNL     1      26.469  23.168  27.906  0.00  0.00    +0.000 A 
ATOM      3  C   UNL     1      26.828  23.086  29.232  0.00  0.00    +0.000 A 
ATOM      4  O   UNL     1      26.014  23.181  30.183  0.00  0.00    +0.000 OA
ATOM      5  C   UNL     1      28.164  22.886  29.531  0.00  0.00    +0.000 A 
ATOM      6  C   UNL     1      28.570  22.797  30.844  0.00  0.00    +0.000 A 
ATOM      7  C   UNL     1      29.894  22.598  31.177  0.00  0.00    +0.000 A 
ATOM      8  C   UNL     1      30.339  22.501  32.603  0.00  0.00    +0.000 C 
ATOM      9  C   UNL     1      30.795  22.492  30.134  0.00  0.00    +0.000 A 
ATOM     10  C   UNL     1      30.415  22.578  28.823  0.00  0.00    +0.000 A 
ATOM     11  C   UNL     1      31.362  22.468  27.683  0.00  0.00    +0.000 C 
ATOM     12  C   UNL     1      29.079  22.779  28.492  0.00  0.00    +0.000 A 
ATOM     13  O   UNL     1      28.690  22.863  27.246  0.00  0.00    +0.000 OA
ENDROOT
BRANCH   1  16
ATOM     14  C   UNL     1      27.694  23.407  23.199  0.00  0.00    +0.000 A 
ATOM     15  C   UNL     1      28.006  23.314  24.548  0.00  0.00    +0.000 A 
ATOM     16  C   UNL     1      27.030  23.144  25.503  0.00  0.00    +0.000 A 
ATOM     17  C   UNL     1      25.723  23.070  25.077  0.00  0.00    +0.000 A 
ATOM     18  C   UNL     1      25.390  23.160  23.736  0.00  0.00    +0.000 A 
ATOM     19  C   UNL     1      26.390  23.330  22.804  0.00  0.00    +0.000 A 
ATOM     20  O   UNL     1      26.000  23.416  21.457  0.00  0.00    +0.000 OA
BRANCH  14  22
ATOM     21  C   UNL     1      29.189  24.862  21.936  0.00  0.00    +0.000 C 
ATOM     22  O   UNL     1      28.672  23.578  22.228  0.00  0.00    +0.000 OA
ENDBRANCH  14  22
ENDBRANCH   1  16
TORSDOF 2
ENDMDL
MODEL 8
REMARK VINA RESULT:      -7.3     19.379     20.821
REMARK  Name = 
REMARK  2 active torsions:
REMARK  status: ('A' for Active; 'I' for Inactive)
REMARK    1  A    between atoms: O_2  and  C_3
REMARK    2  A    between atoms: C_5  and  C_6
REMARK                            x       y       z     vdW  Elec       q    Type
REMARK                         _______ _______ _______ _____ _____    ______ ____
ROOT
ATOM      1  C   UNL     1      33.834   4.317  35.550  0.00  0.00    +0.000 A 
ATOM      2  C   UNL     1      33.778   4.348  34.173  0.00  0.00    +0.000 A 
ATOM      3  C   UNL     1      33.736   3.176  33.453  0.00  0.00    +0.000 A 
ATOM      4  O   UNL     1      33.684   3.127  32.200  0.00  0.00    +0.000 OA
ATOM      5  C   UNL     1      33.750   1.983  34.155  0.00  0.00    +0.000 A 
ATOM      6  C   UNL     1      33.710   0.786  33.477  0.00  0.00    +0.000 A 
ATOM      7  C   UNL     1      33.724  -0.422  34.145  0.00  0.00    +0.000 A 
ATOM      8  C   UNL     1      33.679  -1.726  33.411  0.00  0.00    +0.000 C 
ATOM      9  C   UNL     1      33.780  -0.375  35.525  0.00  0.00    +0.000 A 
ATOM     10  C   UNL     1      33.821   0.803  36.220  0.00  0.00    +0.000 A 
ATOM     11  C   UNL     1      33.882   0.881  37.702  0.00  0.00    +0.000 C 
ATOM     12  C   UNL     1      33.807   2.017  35.542  0.00  0.00    +0.000 A 
ATOM     13  O   UNL     1      33.847   3.157  36.182  0.00  0.00    +0.000 OA
ENDROOT
BRANCH   1  16
ATOM     14  C   UNL     1      34.315   7.949  36.330  0.00  0.00    +0.000 A 
ATOM     15  C   UNL     1      34.255   6.733  35.664  0.00  0.00    +0.000 A 
ATOM     16  C   UNL     1      33.878   5.577  36.310  0.00  0.00    +0.000 A 
ATOM     17  C   UNL     1      33.562   5.664  37.647  0.00  0.00    +0.000 A 
ATOM     18  C   UNL     1      33.615   6.868  38.329  0.00  0.00    +0.000 A 
ATOM     19  C   UNL     1      33.996   8.007  37.655  0.00  0.00    +0.000 A 
ATOM     20  O   UNL     1      34.035   9.203  38.392  0.00  0.00    +0.000 OA
BRANCH  14  22
ATOM     21  C   UNL     1      36.060   9.451  35.526  0.00  0.00    +0.000 C 
ATOM     22  O   UNL     1      34.694   9.121  35.686  0.00  0.00    +0.000 OA
ENDBRANCH  14  22
ENDBRANCH   1  16
TORSDOF 2
ENDMDL
MODEL 9
REMARK VINA RESULT:      -7.3     19.892     22.406
REMARK  Name = 
REMARK  2 active torsions:
REMARK  status: ('A' for Active; 'I' for Inactive)
REMARK    1  A    between atoms: O_2  and  C_3
REMARK    2  A    between atoms: C_5  and  C_6
REMARK                            x       y       z     vdW  Elec       q    Type
REMARK                         _______ _______ _______ _____ _____    ______ ____
ROOT
ATOM      1  C   UNL     1      33.807   0.569  34.478  0.00  0.00    +0.000 A 
ATOM      2  C   UNL     1      33.709   1.200  33.256  0.00  0.00    +0.000 A 
ATOM      3  C   UNL     1      33.723   2.573  33.181  0.00  0.00    +0.000 A 
ATOM      4  O   UNL     1      33.638   3.215  32.105  0.00  0.00    +0.000 OA
ATOM      5  C   UNL     1      33.840   3.286  34.361  0.00  0.00    +0.000 A 
ATOM      6  C   UNL     1      33.859   4.663  34.334  0.00  0.00    +0.000 A 
ATOM      7  C   UNL     1      33.974   5.405  35.492  0.00  0.00    +0.000 A 
ATOM      8  C   UNL     1      33.995   6.901  35.468  0.00  0.00    +0.000 C 
ATOM      9  C   UNL     1      34.069   4.704  36.680  0.00  0.00    +0.000 A 
ATOM     10  C   UNL     1      34.052   3.336  36.730  0.00  0.00    +0.000 A 
ATOM     11  C   UNL     1      34.153   2.559  37.992  0.00  0.00    +0.000 C 
ATOM     12  C   UNL     1      33.936   2.593  35.560  0.00  0.00    +0.000 A 
ATOM     13  O   UNL     1      33.917   1.286  35.581  0.00  0.00    +0.000 OA
ENDROOT
BRANCH   1  16
ATOM     14  C   UNL     1      34.017  -2.898  35.882  0.00  0.00    +0.000 A 
ATOM     15  C   UNL     1      34.020  -1.515  35.757  0.00  0.00    +0.000 A 
ATOM     16  C   UNL     1      33.792  -0.902  34.546  0.00  0.00    +0.000 A 
ATOM     17  C   UNL     1      33.560  -1.707  33.454  0.00  0.00    +0.000 A 
ATOM     18  C   UNL     1      33.554  -3.087  33.558  0.00  0.00    +0.000 A 
ATOM     19  C   UNL     1      33.785  -3.671  34.783  0.00  0.00    +0.000 A 
ATOM     20  O   UNL     1      33.768  -5.076  34.835  0.00  0.00    +0.000 OA
BRANCH  14  22
ATOM     21  C   UNL     1      33.827  -2.932  38.314  0.00  0.00    +0.000 C 
ATOM     22  O   UNL     1      34.247  -3.526  37.100  0.00  0.00    +0.000 OA
ENDBRANCH  14  22
ENDBRANCH   1  16
TORSDOF 2
ENDMDL
MODEL 10
REMARK VINA RESULT:      -7.2     18.450     20.361
REMARK  Name = 
REMARK  2 active torsions:
REMARK  status: ('A' for Active; 'I' for Inactive)
REMARK    1  A    between atoms: O_2  and  C_3
REMARK    2  A    between atoms: C_5  and  C_6
REMARK                            x       y       z     vdW  Elec       q    Type
REMARK                         _______ _______ _______ _____ _____    ______ ____
ROOT
ATOM      1  C   UNL     1      28.726  22.985  26.344  0.00  0.00    +0.000 A 
ATOM      2  C   UNL     1      30.104  23.003  26.361  0.00  0.00    +0.000 A 
ATOM      3  C   UNL     1      30.785  22.875  27.550  0.00  0.00    +0.000 A 
ATOM      4  O   UNL     1      32.037  22.882  27.643  0.00  0.00    +0.000 OA
ATOM      5  C   UNL     1      30.044  22.728  28.709  0.00  0.00    +0.000 A 
ATOM      6  C   UNL     1      30.682  22.597  29.923  0.00  0.00    +0.000 A 
ATOM      7  C   UNL     1      29.974  22.450  31.098  0.00  0.00    +0.000 A 
ATOM      8  C   UNL     1      30.665  22.306  32.418  0.00  0.00    +0.000 C 
ATOM      9  C   UNL     1      28.595  22.440  31.003  0.00  0.00    +0.000 A 
ATOM     10  C   UNL     1      27.940  22.570  29.808  0.00  0.00    +0.000 A 
ATOM     11  C   UNL     1      26.459  22.563  29.679  0.00  0.00    +0.000 C 
ATOM     12  C   UNL     1      28.658  22.718  28.627  0.00  0.00    +0.000 A 
ATOM     13  O   UNL     1      28.055  22.844  27.473  0.00  0.00    +0.000 OA
ENDROOT
BRANCH   1  16
ATOM     14  C   UNL     1      28.107  23.469  22.681  0.00  0.00    +0.000 A 
ATOM     15  C   UNL     1      28.730  23.332  23.914  0.00  0.00    +0.000 A 
ATOM     16  C   UNL     1      28.007  23.123  25.066  0.00  0.00    +0.000 A 
ATOM     17  C   UNL     1      26.637  23.055  24.959  0.00  0.00    +0.000 A 
ATOM     18  C   UNL     1      25.996  23.190  23.739  0.00  0.00    +0.000 A 
ATOM     19  C   UNL     1      26.747  23.397  22.604  0.00  0.00    +0.000 A 
ATOM     20  O   UNL     1      26.049  23.528  21.391  0.00  0.00    +0.000 OA
BRANCH  14  22
ATOM     21  C   UNL     1      29.284  24.972  21.163  0.00  0.00    +0.000 C 
ATOM     22  O   UNL     1      28.829  23.679  21.512  0.00  0.00    +0.000 OA
ENDBRANCH  14  22
ENDBRANCH   1  16
TORSDOF 2
ENDMDL
