MODEL 1
REMARK VINA RESULT:      -5.7      0.000      0.000
REMARK  Name = 
REMARK  3 active torsions:
REMARK  status: ('A' for Active; 'I' for Inactive)
REMARK    1  A    between atoms: C_7  and  S_8
REMARK    2  A    between atoms: S_8  and  C_9
REMARK    3  A    between atoms: C_14  and  N_15
REMARK                            x       y       z     vdW  Elec       q    Type
REMARK                         _______ _______ _______ _____ _____    ______ ____
ROOT
ATOM      1  C   UNL     1      23.840   9.589  36.371  0.00  0.00    +0.000 C 
ATOM      2  C   UNL     1      22.704   9.975  37.292  0.00  0.00    +0.000 C 
ATOM      3  C   UNL     1      22.849  11.454  37.638  0.00  0.00    +0.000 C 
ATOM      4  C   UNL     1      22.837   9.115  38.537  0.00  0.00    +0.000 C 
ATOM      5  C   UNL     1      21.674   9.338  39.416  0.00  0.00    +0.000 C 
ATOM      6  O   UNL     1      21.827   9.215  40.670  0.00  0.00    +0.000 OA
ATOM      7  C   UNL     1      20.405   9.692  38.804  0.00  0.00    +0.000 C 
ATOM      8  C   UNL     1      20.241   9.885  37.505  0.00  0.00    +0.000 C 
ATOM      9  O   UNL     1      19.002  10.225  36.956  0.00  0.00    +0.000 OA
ATOM     10  C   UNL     1      21.384   9.743  36.600  0.00  0.00    +0.000 C 
ENDROOT
BRANCH   7  11
ATOM     11  S   UNL     1      18.980   9.878  39.860  0.00  0.00    +0.000 S 
BRANCH  11  12
ATOM     12  C   UNL     1      18.334   8.290  40.362  0.00  0.00    +0.000 A 
ATOM     13  C   UNL     1      19.002   7.109  40.108  0.00  0.00    +0.000 A 
ATOM     14  C   UNL     1      18.518   5.875  40.488  0.00  0.00    +0.000 A 
ATOM     15  C   UNL     1      17.318   5.824  41.147  0.00  0.00    +0.000 A 
ATOM     16  C   UNL     1      16.606   6.953  41.430  0.00  0.00    +0.000 A 
ATOM     17  C   UNL     1      17.119   8.172  41.036  0.00  0.00    +0.000 A 
BRANCH  17  18
ATOM     18  N   UNL     1      16.400   9.356  41.317  0.00  0.00    +0.000 N 
ATOM     19  O   UNL     1      15.613   9.802  40.468  0.00  0.00    +0.000 OA
ATOM     20  O   UNL     1      16.587   9.993  42.534  0.00  0.00    +0.000 OA
ENDBRANCH  17  18
ENDBRANCH  11  12
ENDBRANCH   7  11
TORSDOF 3
ENDMDL
MODEL 2
REMARK VINA RESULT:      -5.7     19.770     22.277
REMARK  Name = 
REMARK  3 active torsions:
REMARK  status: ('A' for Active; 'I' for Inactive)
REMARK    1  A    between atoms: C_7  and  S_8
REMARK    2  A    between atoms: S_8  and  C_9
REMARK    3  A    between atoms: C_14  and  N_15
REMARK                            x       y       z     vdW  Elec       q    Type
REMARK                         _______ _______ _______ _____ _____    ______ ____
ROOT
ATOM      1  C   UNL     1      25.380  25.841  30.474  0.00  0.00    +0.000 C 
ATOM      2  C   UNL     1      26.017  25.244  29.239  0.00  0.00    +0.000 C 
ATOM      3  C   UNL     1      27.290  26.027  28.931  0.00  0.00    +0.000 C 
ATOM      4  C   UNL     1      25.010  25.390  28.112  0.00  0.00    +0.000 C 
ATOM      5  C   UNL     1      25.511  24.697  26.910  0.00  0.00    +0.000 C 
ATOM      6  O   UNL     1      25.178  25.140  25.769  0.00  0.00    +0.000 OA
ATOM      7  C   UNL     1      26.367  23.537  27.091  0.00  0.00    +0.000 C 
ATOM      8  C   UNL     1      26.775  23.097  28.271  0.00  0.00    +0.000 C 
ATOM      9  O   UNL     1      27.598  21.976  28.401  0.00  0.00    +0.000 OA
ATOM     10  C   UNL     1      26.358  23.797  29.489  0.00  0.00    +0.000 C 
ENDROOT
BRANCH   7  11
ATOM     11  S   UNL     1      26.903  22.648  25.641  0.00  0.00    +0.000 S 
BRANCH  11  12
ATOM     12  C   UNL     1      28.584  23.067  25.209  0.00  0.00    +0.000 A 
ATOM     13  C   UNL     1      29.658  22.720  26.005  0.00  0.00    +0.000 A 
ATOM     14  C   UNL     1      30.962  23.035  25.687  0.00  0.00    +0.000 A 
ATOM     15  C   UNL     1      31.199  23.724  24.527  0.00  0.00    +0.000 A 
ATOM     16  C   UNL     1      30.185  24.098  23.694  0.00  0.00    +0.000 A 
ATOM     17  C   UNL     1      28.890  23.767  24.042  0.00  0.00    +0.000 A 
BRANCH  17  18
ATOM     18  N   UNL     1      27.822  24.143  23.196  0.00  0.00    +0.000 N 
ATOM     19  O   UNL     1      27.313  25.266  23.328  0.00  0.00    +0.000 OA
ATOM     20  O   UNL     1      27.367  23.251  22.237  0.00  0.00    +0.000 OA
ENDBRANCH  17  18
ENDBRANCH  11  12
ENDBRANCH   7  11
TORSDOF 3
ENDMDL
MODEL 3
REMARK VINA RESULT:      -5.6     20.632     22.488
REMARK  Name = 
REMARK  3 active torsions:
REMARK  status: ('A' for Active; 'I' for Inactive)
REMARK    1  A    between atoms: C_7  and  S_8
REMARK    2  A    between atoms: S_8  and  C_9
REMARK    3  A    between atoms: C_14  and  N_15
REMARK                            x       y       z     vdW  Elec       q    Type
REMARK                         _______ _______ _______ _____ _____    ______ ____
ROOT
ATOM      1  C   UNL     1      24.420  27.927  28.668  0.00  0.00    +0.000 C 
ATOM      2  C   UNL     1      24.567  26.672  27.837  0.00  0.00    +0.000 C 
ATOM      3  C   UNL     1      23.176  26.096  27.589  0.00  0.00    +0.000 C 
ATOM      4  C   UNL     1      25.413  25.706  28.647  0.00  0.00    +0.000 C 
ATOM      5  C   UNL     1      25.717  24.515  27.832  0.00  0.00    +0.000 C 
ATOM      6  O   UNL     1      25.877  23.401  28.419  0.00  0.00    +0.000 OA
ATOM      7  C   UNL     1      25.818  24.673  26.391  0.00  0.00    +0.000 C 
ATOM      8  C   UNL     1      25.594  25.812  25.756  0.00  0.00    +0.000 C 
ATOM      9  O   UNL     1      25.701  25.922  24.368  0.00  0.00    +0.000 OA
ATOM     10  C   UNL     1      25.221  27.007  26.520  0.00  0.00    +0.000 C 
ENDROOT
BRANCH   7  11
ATOM     11  S   UNL     1      26.269  23.251  25.415  0.00  0.00    +0.000 S 
BRANCH  11  12
ATOM     12  C   UNL     1      28.027  22.943  25.492  0.00  0.00    +0.000 A 
ATOM     13  C   UNL     1      28.630  22.393  26.606  0.00  0.00    +0.000 A 
ATOM     14  C   UNL     1      29.985  22.149  26.682  0.00  0.00    +0.000 A 
ATOM     15  C   UNL     1      30.764  22.469  25.602  0.00  0.00    +0.000 A 
ATOM     16  C   UNL     1      30.233  23.015  24.470  0.00  0.00    +0.000 A 
ATOM     17  C   UNL     1      28.872  23.247  24.426  0.00  0.00    +0.000 A 
BRANCH  17  18
ATOM     18  N   UNL     1      28.298  23.812  23.264  0.00  0.00    +0.000 N 
ATOM     19  O   UNL     1      28.378  25.037  23.085  0.00  0.00    +0.000 OA
ATOM     20  O   UNL     1      27.659  22.987  22.351  0.00  0.00    +0.000 OA
ENDBRANCH  17  18
ENDBRANCH  11  12
ENDBRANCH   7  11
TORSDOF 3
ENDMDL
MODEL 4
REMARK VINA RESULT:      -5.4     19.807     23.010
REMARK  Name = 
REMARK  3 active torsions:
REMARK  status: ('A' for Active; 'I' for Inactive)
REMARK    1  A    between atoms: C_7  and  S_8
REMARK    2  A    between atoms: S_8  and  C_9
REMARK    3  A    between atoms: C_14  and  N_15
REMARK                            x       y       z     vdW  Elec       q    Type
REMARK                         _______ _______ _______ _____ _____    ______ ____
ROOT
ATOM      1  C   UNL     1      25.499  25.280  29.826  0.00  0.00    +0.000 C 
ATOM      2  C   UNL     1      26.260  24.378  28.881  0.00  0.00    +0.000 C 
ATOM      3  C   UNL     1      26.361  22.994  29.517  0.00  0.00    +0.000 C 
ATOM      4  C   UNL     1      27.638  24.990  28.704  0.00  0.00    +0.000 C 
ATOM      5  C   UNL     1      28.384  24.237  27.679  0.00  0.00    +0.000 C 
ATOM      6  O   UNL     1      29.648  24.173  27.770  0.00  0.00    +0.000 OA
ATOM      7  C   UNL     1      27.633  23.599  26.610  0.00  0.00    +0.000 C 
ATOM      8  C   UNL     1      26.313  23.603  26.532  0.00  0.00    +0.000 C 
ATOM      9  O   UNL     1      25.629  22.977  25.487  0.00  0.00    +0.000 OA
ATOM     10  C   UNL     1      25.526  24.280  27.567  0.00  0.00    +0.000 C 
ENDROOT
BRANCH   7  11
ATOM     11  S   UNL     1      28.542  22.761  25.324  0.00  0.00    +0.000 S 
BRANCH  11  12
ATOM     12  C   UNL     1      28.536  23.703  23.807  0.00  0.00    +0.000 A 
ATOM     13  C   UNL     1      27.430  23.765  22.983  0.00  0.00    +0.000 A 
ATOM     14  C   UNL     1      27.408  24.487  21.808  0.00  0.00    +0.000 A 
ATOM     15  C   UNL     1      28.538  25.171  21.446  0.00  0.00    +0.000 A 
ATOM     16  C   UNL     1      29.666  25.153  22.214  0.00  0.00    +0.000 A 
ATOM     17  C   UNL     1      29.655  24.420  23.384  0.00  0.00    +0.000 A 
BRANCH  17  18
ATOM     18  N   UNL     1      30.810  24.385  24.197  0.00  0.00    +0.000 N 
ATOM     19  O   UNL     1      31.601  23.436  24.082  0.00  0.00    +0.000 OA
ATOM     20  O   UNL     1      31.037  25.409  25.103  0.00  0.00    +0.000 OA
ENDBRANCH  17  18
ENDBRANCH  11  12
ENDBRANCH   7  11
TORSDOF 3
ENDMDL
MODEL 5
REMARK VINA RESULT:      -5.4     20.457     22.300
REMARK  Name = 
REMARK  3 active torsions:
REMARK  status: ('A' for Active; 'I' for Inactive)
REMARK    1  A    between atoms: C_7  and  S_8
REMARK    2  A    between atoms: S_8  and  C_9
REMARK    3  A    between atoms: C_14  and  N_15
REMARK                            x       y       z     vdW  Elec       q    Type
REMARK                         _______ _______ _______ _____ _____    ______ ____
ROOT
ATOM      1  C   UNL     1      23.883  26.449  25.497  0.00  0.00    +0.000 C 
ATOM      2  C   UNL     1      25.121  25.624  25.770  0.00  0.00    +0.000 C 
ATOM      3  C   UNL     1      26.311  26.572  25.883  0.00  0.00    +0.000 C 
ATOM      4  C   UNL     1      25.291  24.685  24.588  0.00  0.00    +0.000 C 
ATOM      5  C   UNL     1      26.399  23.751  24.858  0.00  0.00    +0.000 C 
ATOM      6  O   UNL     1      27.074  23.309  23.878  0.00  0.00    +0.000 OA
ATOM      7  C   UNL     1      26.669  23.380  26.237  0.00  0.00    +0.000 C 
ATOM      8  C   UNL     1      26.017  23.878  27.275  0.00  0.00    +0.000 C 
ATOM      9  O   UNL     1      26.307  23.494  28.587  0.00  0.00    +0.000 OA
ATOM     10  C   UNL     1      24.953  24.863  27.060  0.00  0.00    +0.000 C 
ENDROOT
BRANCH   7  11
ATOM     11  S   UNL     1      27.953  22.185  26.554  0.00  0.00    +0.000 S 
BRANCH  11  12
ATOM     12  C   UNL     1      29.558  22.820  26.094  0.00  0.00    +0.000 A 
ATOM     13  C   UNL     1      30.120  22.577  24.857  0.00  0.00    +0.000 A 
ATOM     14  C   UNL     1      31.357  23.058  24.485  0.00  0.00    +0.000 A 
ATOM     15  C   UNL     1      32.057  23.813  25.388  0.00  0.00    +0.000 A 
ATOM     16  C   UNL     1      31.561  24.093  26.629  0.00  0.00    +0.000 A 
ATOM     17  C   UNL     1      30.319  23.594  26.969  0.00  0.00    +0.000 A 
BRANCH  17  18
ATOM     18  N   UNL     1      29.784  23.870  28.248  0.00  0.00    +0.000 N 
ATOM     19  O   UNL     1      29.238  24.965  28.452  0.00  0.00    +0.000 OA
ATOM     20  O   UNL     1      29.877  22.912  29.246  0.00  0.00    +0.000 OA
ENDBRANCH  17  18
ENDBRANCH  11  12
ENDBRANCH   7  11
TORSDOF 3
ENDMDL
MODEL 6
REMARK VINA RESULT:      -5.3     21.086     23.354
REMARK  Name = 
REMARK  3 active torsions:
REMARK  status: ('A' for Active; 'I' for Inactive)
REMARK    1  A    between atoms: C_7  and  S_8
REMARK    2  A    between atoms: S_8  and  C_9
REMARK    3  A    between atoms: C_14  and  N_15
REMARK                            x       y       z     vdW  Elec       q    Type
REMARK                         _______ _______ _______ _____ _____    ______ ____
ROOT
ATOM      1  C   UNL     1      24.893  29.225  26.170  0.00  0.00    +0.000 C 
ATOM      2  C   UNL     1      24.958  27.822  25.607  0.00  0.00    +0.000 C 
ATOM      3  C   UNL     1      23.654  27.543  24.865  0.00  0.00    +0.000 C 
ATOM      4  C   UNL     1      25.116  26.882  26.789  0.00  0.00    +0.000 C 
ATOM      5  C   UNL     1      25.331  25.508  26.300  0.00  0.00    +0.000 C 
ATOM      6  O   UNL     1      24.925  24.538  27.010  0.00  0.00    +0.000 OA
ATOM      7  C   UNL     1      26.001  25.328  25.022  0.00  0.00    +0.000 C 
ATOM      8  C   UNL     1      26.376  26.326  24.240  0.00  0.00    +0.000 C 
ATOM      9  O   UNL     1      27.018  26.110  23.018  0.00  0.00    +0.000 OA
ATOM     10  C   UNL     1      26.120  27.709  24.653  0.00  0.00    +0.000 C 
ENDROOT
BRANCH   7  11
ATOM     11  S   UNL     1      26.337  23.666  24.472  0.00  0.00    +0.000 S 
BRANCH  11  12
ATOM     12  C   UNL     1      27.901  23.078  25.104  0.00  0.00    +0.000 A 
ATOM     13  C   UNL     1      28.063  22.678  26.415  0.00  0.00    +0.000 A 
ATOM     14  C   UNL     1      29.263  22.222  26.919  0.00  0.00    +0.000 A 
ATOM     15  C   UNL     1      30.341  22.166  26.077  0.00  0.00    +0.000 A 
ATOM     16  C   UNL     1      30.251  22.546  24.769  0.00  0.00    +0.000 A 
ATOM     17  C   UNL     1      29.035  22.998  24.296  0.00  0.00    +0.000 A 
BRANCH  17  18
ATOM     18  N   UNL     1      28.917  23.398  22.946  0.00  0.00    +0.000 N 
ATOM     19  O   UNL     1      28.000  22.927  22.254  0.00  0.00    +0.000 OA
ATOM     20  O   UNL     1      29.824  24.305  22.422  0.00  0.00    +0.000 OA
ENDBRANCH  17  18
ENDBRANCH  11  12
ENDBRANCH   7  11
TORSDOF 3
ENDMDL
MODEL 7
REMARK VINA RESULT:      -5.3     31.825     34.256
REMARK  Name = 
REMARK  3 active torsions:
REMARK  status: ('A' for Active; 'I' for Inactive)
REMARK    1  A    between atoms: C_7  and  S_8
REMARK    2  A    between atoms: S_8  and  C_9
REMARK    3  A    between atoms: C_14  and  N_15
REMARK                            x       y       z     vdW  Elec       q    Type
REMARK                         _______ _______ _______ _____ _____    ______ ____
ROOT
ATOM      1  C   UNL     1      28.364  24.183  13.115  0.00  0.00    +0.000 C 
ATOM      2  C   UNL     1      28.977  23.092  12.265  0.00  0.00    +0.000 C 
ATOM      3  C   UNL     1      27.850  22.215  11.726  0.00  0.00    +0.000 C 
ATOM      4  C   UNL     1      29.893  22.292  13.174  0.00  0.00    +0.000 C 
ATOM      5  C   UNL     1      30.635  21.299  12.374  0.00  0.00    +0.000 C 
ATOM      6  O   UNL     1      30.978  20.208  12.924  0.00  0.00    +0.000 OA
ATOM      7  C   UNL     1      30.938  21.618  10.989  0.00  0.00    +0.000 C 
ATOM      8  C   UNL     1      30.536  22.722  10.381  0.00  0.00    +0.000 C 
ATOM      9  O   UNL     1      30.850  22.991   9.046  0.00  0.00    +0.000 OA
ATOM     10  C   UNL     1      29.737  23.706  11.117  0.00  0.00    +0.000 C 
ENDROOT
BRANCH   7  11
ATOM     11  S   UNL     1      31.909  20.455  10.048  0.00  0.00    +0.000 S 
BRANCH  11  12
ATOM     12  C   UNL     1      33.640  20.560  10.475  0.00  0.00    +0.000 A 
ATOM     13  C   UNL     1      34.117  20.185  11.715  0.00  0.00    +0.000 A 
ATOM     14  C   UNL     1      35.450  20.260  12.061  0.00  0.00    +0.000 A 
ATOM     15  C   UNL     1      36.337  20.730  11.129  0.00  0.00    +0.000 A 
ATOM     16  C   UNL     1      35.933  21.118   9.885  0.00  0.00    +0.000 A 
ATOM     17  C   UNL     1      34.592  21.031   9.570  0.00  0.00    +0.000 A 
BRANCH  17  18
ATOM     18  N   UNL     1      34.148  21.427   8.288  0.00  0.00    +0.000 N 
ATOM     19  O   UNL     1      34.001  20.566   7.406  0.00  0.00    +0.000 OA
ATOM     20  O   UNL     1      33.886  22.766   8.041  0.00  0.00    +0.000 OA
ENDBRANCH  17  18
ENDBRANCH  11  12
ENDBRANCH   7  11
TORSDOF 3
ENDMDL
MODEL 8
REMARK VINA RESULT:      -5.2     20.248     21.764
REMARK  Name = 
REMARK  3 active torsions:
REMARK  status: ('A' for Active; 'I' for Inactive)
REMARK    1  A    between atoms: C_7  and  S_8
REMARK    2  A    between atoms: S_8  and  C_9
REMARK    3  A    between atoms: C_14  and  N_15
REMARK                            x       y       z     vdW  Elec       q    Type
REMARK                         _______ _______ _______ _____ _____    ______ ____
ROOT
ATOM      1  C   UNL     1      32.772  23.736  29.529  0.00  0.00    +0.000 C 
ATOM      2  C   UNL     1      31.650  23.080  28.755  0.00  0.00    +0.000 C 
ATOM      3  C   UNL     1      31.947  21.586  28.655  0.00  0.00    +0.000 C 
ATOM      4  C   UNL     1      31.635  23.719  27.378  0.00  0.00    +0.000 C 
ATOM      5  C   UNL     1      30.471  23.226  26.619  0.00  0.00    +0.000 C 
ATOM      6  O   UNL     1      30.558  23.145  25.355  0.00  0.00    +0.000 OA
ATOM      7  C   UNL     1      29.275  22.855  27.356  0.00  0.00    +0.000 C 
ATOM      8  C   UNL     1      29.186  22.874  28.676  0.00  0.00    +0.000 C 
ATOM      9  O   UNL     1      28.017  22.509  29.347  0.00  0.00    +0.000 OA
ATOM     10  C   UNL     1      30.342  23.290  29.475  0.00  0.00    +0.000 C 
ENDROOT
BRANCH   7  11
ATOM     11  S   UNL     1      27.839  22.341  26.432  0.00  0.00    +0.000 S 
BRANCH  11  12
ATOM     12  C   UNL     1      26.628  23.650  26.334  0.00  0.00    +0.000 A 
ATOM     13  C   UNL     1      25.844  24.011  27.411  0.00  0.00    +0.000 A 
ATOM     14  C   UNL     1      24.904  25.018  27.353  0.00  0.00    +0.000 A 
ATOM     15  C   UNL     1      24.746  25.690  26.170  0.00  0.00    +0.000 A 
ATOM     16  C   UNL     1      25.488  25.385  25.066  0.00  0.00    +0.000 A 
ATOM     17  C   UNL     1      26.420  24.370  25.158  0.00  0.00    +0.000 A 
BRANCH  17  18
ATOM     18  N   UNL     1      27.201  24.035  24.029  0.00  0.00    +0.000 N 
ATOM     19  O   UNL     1      28.257  24.653  23.819  0.00  0.00    +0.000 OA
ATOM     20  O   UNL     1      26.773  23.026  23.180  0.00  0.00    +0.000 OA
ENDBRANCH  17  18
ENDBRANCH  11  12
ENDBRANCH   7  11
TORSDOF 3
ENDMDL
MODEL 9
REMARK VINA RESULT:      -5.2     19.385     21.847
REMARK  Name = 
REMARK  3 active torsions:
REMARK  status: ('A' for Active; 'I' for Inactive)
REMARK    1  A    between atoms: C_7  and  S_8
REMARK    2  A    between atoms: S_8  and  C_9
REMARK    3  A    between atoms: C_14  and  N_15
REMARK                            x       y       z     vdW  Elec       q    Type
REMARK                         _______ _______ _______ _____ _____    ______ ____
ROOT
ATOM      1  C   UNL     1      28.016  25.984  21.701  0.00  0.00    +0.000 C 
ATOM      2  C   UNL     1      27.796  24.876  22.706  0.00  0.00    +0.000 C 
ATOM      3  C   UNL     1      26.890  23.825  22.069  0.00  0.00    +0.000 C 
ATOM      4  C   UNL     1      27.123  25.506  23.913  0.00  0.00    +0.000 C 
ATOM      5  C   UNL     1      27.010  24.506  24.991  0.00  0.00    +0.000 C 
ATOM      6  O   UNL     1      26.037  24.593  25.802  0.00  0.00    +0.000 OA
ATOM      7  C   UNL     1      28.020  23.465  25.074  0.00  0.00    +0.000 C 
ATOM      8  C   UNL     1      29.006  23.322  24.203  0.00  0.00    +0.000 C 
ATOM      9  O   UNL     1      29.958  22.307  24.320  0.00  0.00    +0.000 OA
ATOM     10  C   UNL     1      29.118  24.251  23.075  0.00  0.00    +0.000 C 
ENDROOT
BRANCH   7  11
ATOM     11  S   UNL     1      27.931  22.308  26.429  0.00  0.00    +0.000 S 
BRANCH  11  12
ATOM     12  C   UNL     1      28.960  22.827  27.793  0.00  0.00    +0.000 A 
ATOM     13  C   UNL     1      30.294  23.147  27.630  0.00  0.00    +0.000 A 
ATOM     14  C   UNL     1      31.103  23.548  28.672  0.00  0.00    +0.000 A 
ATOM     15  C   UNL     1      30.555  23.632  29.924  0.00  0.00    +0.000 A 
ATOM     16  C   UNL     1      29.244  23.331  30.156  0.00  0.00    +0.000 A 
ATOM     17  C   UNL     1      28.461  22.932  29.091  0.00  0.00    +0.000 A 
BRANCH  17  18
ATOM     18  N   UNL     1      27.100  22.615  29.305  0.00  0.00    +0.000 N 
ATOM     19  O   UNL     1      26.803  21.493  29.743  0.00  0.00    +0.000 OA
ATOM     20  O   UNL     1      26.128  23.562  29.023  0.00  0.00    +0.000 OA
ENDBRANCH  17  18
ENDBRANCH  11  12
ENDBRANCH   7  11
TORSDOF 3
ENDMDL
MODEL 10
REMARK VINA RESULT:      -5.1     31.461     34.355
REMARK  Name = 
REMARK  3 active torsions:
REMARK  status: ('A' for Active; 'I' for Inactive)
REMARK    1  A    between atoms: C_7  and  S_8
REMARK    2  A    between atoms: S_8  and  C_9
REMARK    3  A    between atoms: C_14  and  N_15
REMARK                            x       y       z     vdW  Elec       q    Type
REMARK                         _______ _______ _______ _____ _____    ______ ____
ROOT
ATOM      1  C   UNL     1      35.600  22.742   7.163  0.00  0.00    +0.000 C 
ATOM      2  C   UNL     1      34.294  22.094   7.565  0.00  0.00    +0.000 C 
ATOM      3  C   UNL     1      33.803  21.243   6.397  0.00  0.00    +0.000 C 
ATOM      4  C   UNL     1      33.318  23.220   7.858  0.00  0.00    +0.000 C 
ATOM      5  C   UNL     1      32.065  22.658   8.396  0.00  0.00    +0.000 C 
ATOM      6  O   UNL     1      30.977  23.272   8.171  0.00  0.00    +0.000 OA
ATOM      7  C   UNL     1      32.135  21.423   9.158  0.00  0.00    +0.000 C 
ATOM      8  C   UNL     1      33.250  20.736   9.350  0.00  0.00    +0.000 C 
ATOM      9  O   UNL     1      33.274  19.552  10.091  0.00  0.00    +0.000 OA
ATOM     10  C   UNL     1      34.508  21.221   8.775  0.00  0.00    +0.000 C 
ENDROOT
BRANCH   7  11
ATOM     11  S   UNL     1      30.632  20.790   9.880  0.00  0.00    +0.000 S 
BRANCH  11  12
ATOM     12  C   UNL     1      30.040  21.857  11.184  0.00  0.00    +0.000 A 
ATOM     13  C   UNL     1      29.048  22.795  10.975  0.00  0.00    +0.000 A 
ATOM     14  C   UNL     1      28.579  23.627  11.969  0.00  0.00    +0.000 A 
ATOM     15  C   UNL     1      29.125  23.515  13.221  0.00  0.00    +0.000 A 
ATOM     16  C   UNL     1      30.109  22.609  13.496  0.00  0.00    +0.000 A 
ATOM     17  C   UNL     1      30.556  21.791  12.478  0.00  0.00    +0.000 A 
BRANCH  17  18
ATOM     18  N   UNL     1      31.574  20.845  12.738  0.00  0.00    +0.000 N 
ATOM     19  O   UNL     1      32.750  21.231  12.820  0.00  0.00    +0.000 OA
ATOM     20  O   UNL     1      31.237  19.510  12.897  0.00  0.00    +0.000 OA
ENDBRANCH  17  18
ENDBRANCH  11  12
ENDBRANCH   7  11
TORSDOF 3
ENDMDL
