MODEL 1
REMARK VINA RESULT:      -7.3      0.000      0.000
REMARK  Name = 
REMARK  1 active torsions:
REMARK  status: ('A' for Active; 'I' for Inactive)
REMARK    1  A    between atoms: O_2  and  C_3
REMARK                            x       y       z     vdW  Elec       q    Type
REMARK                         _______ _______ _______ _____ _____    ______ ____
ROOT
ATOM      1  C   UNL     1      18.169  -8.335  27.575  0.00  0.00    +0.000 A 
ATOM      2  C   UNL     1      17.659  -7.085  27.314  0.00  0.00    +0.000 A 
ATOM      3  C   UNL     1      18.326  -6.158  26.541  0.00  0.00    +0.000 A 
ATOM      4  C   UNL     1      19.562  -6.459  25.989  0.00  0.00    +0.000 A 
ATOM      5  N   UNL     1      20.433  -5.791  25.217  0.00  0.00    +0.000 NA
ATOM      6  C   UNL     1      21.527  -6.562  24.948  0.00  0.00    +0.000 A 
ATOM      7  N   UNL     1      22.645  -6.340  24.233  0.00  0.00    +0.000 NA
ATOM      8  C   UNL     1      23.582  -7.291  24.129  0.00  0.00    +0.000 A 
ATOM      9  C   UNL     1      24.752  -7.078  23.390  0.00  0.00    +0.000 A 
ATOM     10  C   UNL     1      25.662  -8.108  23.335  0.00  0.00    +0.000 A 
ATOM     11  C   UNL     1      26.936  -7.944  22.558  0.00  0.00    +0.000 C 
ATOM     12  C   UNL     1      25.457  -9.313  23.971  0.00  0.00    +0.000 A 
ATOM     13  C   UNL     1      26.439 -10.420  23.910  0.00  0.00    +0.000 C 
ATOM     14  C   UNL     1      24.295  -9.496  24.694  0.00  0.00    +0.000 A 
ATOM     15  C   UNL     1      23.348  -8.485  24.777  0.00  0.00    +0.000 A 
ATOM     16  N   UNL     1      22.230  -8.728  25.501  0.00  0.00    +0.000 NA
ATOM     17  C   UNL     1      21.292  -7.755  25.597  0.00  0.00    +0.000 A 
ATOM     18  C   UNL     1      20.077  -7.711  26.249  0.00  0.00    +0.000 A 
ATOM     19  C   UNL     1      19.397  -8.649  27.033  0.00  0.00    +0.000 A 
ENDROOT
BRANCH   1  21
ATOM     20  C   UNL     1      18.107  -9.760  29.520  0.00  0.00    +0.000 C 
ATOM     21  O   UNL     1      17.451  -9.231  28.362  0.00  0.00    +0.000 OA
ENDBRANCH   1  21
TORSDOF 1
ENDMDL
MODEL 2
REMARK VINA RESULT:      -6.9     21.434     23.802
REMARK  Name = 
REMARK  1 active torsions:
REMARK  status: ('A' for Active; 'I' for Inactive)
REMARK    1  A    between atoms: O_2  and  C_3
REMARK                            x       y       z     vdW  Elec       q    Type
REMARK                         _______ _______ _______ _____ _____    ______ ____
ROOT
ATOM      1  C   UNL     1      22.014  10.347  37.760  0.00  0.00    +0.000 A 
ATOM      2  C   UNL     1      22.016   9.500  38.843  0.00  0.00    +0.000 A 
ATOM      3  C   UNL     1      20.860   9.135  39.501  0.00  0.00    +0.000 A 
ATOM      4  C   UNL     1      19.629   9.619  39.084  0.00  0.00    +0.000 A 
ATOM      5  N   UNL     1      18.365   9.454  39.503  0.00  0.00    +0.000 NA
ATOM      6  C   UNL     1      17.503  10.172  38.725  0.00  0.00    +0.000 A 
ATOM      7  N   UNL     1      16.166  10.325  38.748  0.00  0.00    +0.000 NA
ATOM      8  C   UNL     1      15.559  11.107  37.847  0.00  0.00    +0.000 A 
ATOM      9  C   UNL     1      14.169  11.279  37.855  0.00  0.00    +0.000 A 
ATOM     10  C   UNL     1      13.627  12.099  36.894  0.00  0.00    +0.000 A 
ATOM     11  C   UNL     1      12.143  12.324  36.848  0.00  0.00    +0.000 C 
ATOM     12  C   UNL     1      14.396  12.739  35.947  0.00  0.00    +0.000 A 
ATOM     13  C   UNL     1      13.809  13.622  34.912  0.00  0.00    +0.000 C 
ATOM     14  C   UNL     1      15.763  12.553  35.961  0.00  0.00    +0.000 A 
ATOM     15  C   UNL     1      16.355  11.734  36.913  0.00  0.00    +0.000 A 
ATOM     16  N   UNL     1      17.701  11.593  36.873  0.00  0.00    +0.000 NA
ATOM     17  C   UNL     1      18.300  10.798  37.791  0.00  0.00    +0.000 A 
ATOM     18  C   UNL     1      19.624  10.467  37.998  0.00  0.00    +0.000 A 
ATOM     19  C   UNL     1      20.799  10.836  37.334  0.00  0.00    +0.000 A 
ENDROOT
BRANCH   1  21
ATOM     20  C   UNL     1      23.651   9.839  36.062  0.00  0.00    +0.000 C 
ATOM     21  O   UNL     1      23.213  10.681  37.134  0.00  0.00    +0.000 OA
ENDBRANCH   1  21
TORSDOF 1
ENDMDL
MODEL 3
REMARK VINA RESULT:      -6.8     31.788     32.512
REMARK  Name = 
REMARK  1 active torsions:
REMARK  status: ('A' for Active; 'I' for Inactive)
REMARK    1  A    between atoms: O_2  and  C_3
REMARK                            x       y       z     vdW  Elec       q    Type
REMARK                         _______ _______ _______ _____ _____    ______ ____
ROOT
ATOM      1  C   UNL     1      28.634  23.895  22.299  0.00  0.00    +0.000 A 
ATOM      2  C   UNL     1      27.266  23.794  22.213  0.00  0.00    +0.000 A 
ATOM      3  C   UNL     1      26.472  23.524  23.307  0.00  0.00    +0.000 A 
ATOM      4  C   UNL     1      27.037  23.340  24.560  0.00  0.00    +0.000 A 
ATOM      5  N   UNL     1      26.547  23.073  25.780  0.00  0.00    +0.000 NA
ATOM      6  C   UNL     1      27.556  22.990  26.696  0.00  0.00    +0.000 A 
ATOM      7  N   UNL     1      27.568  22.746  28.020  0.00  0.00    +0.000 NA
ATOM      8  C   UNL     1      28.725  22.720  28.692  0.00  0.00    +0.000 A 
ATOM      9  C   UNL     1      28.758  22.469  30.069  0.00  0.00    +0.000 A 
ATOM     10  C   UNL     1      29.989  22.460  30.682  0.00  0.00    +0.000 A 
ATOM     11  C   UNL     1      30.092  22.197  32.157  0.00  0.00    +0.000 C 
ATOM     12  C   UNL     1      31.161  22.689  29.994  0.00  0.00    +0.000 A 
ATOM     13  C   UNL     1      32.485  22.679  30.658  0.00  0.00    +0.000 C 
ATOM     14  C   UNL     1      31.100  22.934  28.638  0.00  0.00    +0.000 A 
ATOM     15  C   UNL     1      29.880  22.952  27.976  0.00  0.00    +0.000 A 
ATOM     16  N   UNL     1      29.889  23.199  26.645  0.00  0.00    +0.000 NA
ATOM     17  C   UNL     1      28.710  23.221  25.979  0.00  0.00    +0.000 A 
ATOM     18  C   UNL     1      28.408  23.441  24.651  0.00  0.00    +0.000 A 
ATOM     19  C   UNL     1      29.211  23.715  23.538  0.00  0.00    +0.000 A 
ENDROOT
BRANCH   1  21
ATOM     20  C   UNL     1      29.415  25.528  20.704  0.00  0.00    +0.000 C 
ATOM     21  O   UNL     1      29.387  24.170  21.161  0.00  0.00    +0.000 OA
ENDBRANCH   1  21
TORSDOF 1
ENDMDL
MODEL 4
REMARK VINA RESULT:      -6.8     17.778     18.784
REMARK  Name = 
REMARK  1 active torsions:
REMARK  status: ('A' for Active; 'I' for Inactive)
REMARK    1  A    between atoms: O_2  and  C_3
REMARK                            x       y       z     vdW  Elec       q    Type
REMARK                         _______ _______ _______ _____ _____    ______ ____
ROOT
ATOM      1  C   UNL     1      34.144   5.392  36.597  0.00  0.00    +0.000 A 
ATOM      2  C   UNL     1      33.800   6.020  35.423  0.00  0.00    +0.000 A 
ATOM      3  C   UNL     1      33.512   5.325  34.267  0.00  0.00    +0.000 A 
ATOM      4  C   UNL     1      33.559   3.939  34.247  0.00  0.00    +0.000 A 
ATOM      5  N   UNL     1      33.339   3.006  33.309  0.00  0.00    +0.000 NA
ATOM      6  C   UNL     1      33.527   1.755  33.822  0.00  0.00    +0.000 A 
ATOM      7  N   UNL     1      33.427   0.525  33.284  0.00  0.00    +0.000 NA
ATOM      8  C   UNL     1      33.672  -0.561  34.029  0.00  0.00    +0.000 A 
ATOM      9  C   UNL     1      33.573  -1.849  33.487  0.00  0.00    +0.000 A 
ATOM     10  C   UNL     1      33.842  -2.908  34.322  0.00  0.00    +0.000 A 
ATOM     11  C   UNL     1      33.753  -4.314  33.802  0.00  0.00    +0.000 C 
ATOM     12  C   UNL     1      34.194  -2.741  35.643  0.00  0.00    +0.000 A 
ATOM     13  C   UNL     1      34.482  -3.884  36.539  0.00  0.00    +0.000 C 
ATOM     14  C   UNL     1      34.284  -1.460  36.151  0.00  0.00    +0.000 A 
ATOM     15  C   UNL     1      34.023  -0.360  35.346  0.00  0.00    +0.000 A 
ATOM     16  N   UNL     1      34.128   0.869  35.905  0.00  0.00    +0.000 NA
ATOM     17  C   UNL     1      33.878   1.956  35.139  0.00  0.00    +0.000 A 
ATOM     18  C   UNL     1      33.903   3.306  35.422  0.00  0.00    +0.000 A 
ATOM     19  C   UNL     1      34.196   4.015  36.593  0.00  0.00    +0.000 A 
ENDROOT
BRANCH   1  21
ATOM     20  C   UNL     1      33.964   7.501  37.754  0.00  0.00    +0.000 C 
ATOM     21  O   UNL     1      34.425   6.145  37.734  0.00  0.00    +0.000 OA
ENDBRANCH   1  21
TORSDOF 1
ENDMDL
MODEL 5
REMARK VINA RESULT:      -6.4      1.700      3.134
REMARK  Name = 
REMARK  1 active torsions:
REMARK  status: ('A' for Active; 'I' for Inactive)
REMARK    1  A    between atoms: O_2  and  C_3
REMARK                            x       y       z     vdW  Elec       q    Type
REMARK                         _______ _______ _______ _____ _____    ______ ____
ROOT
ATOM      1  C   UNL     1      19.307  -6.907  26.080  0.00  0.00    +0.000 A 
ATOM      2  C   UNL     1      18.929  -8.026  26.784  0.00  0.00    +0.000 A 
ATOM      3  C   UNL     1      19.734  -9.140  26.894  0.00  0.00    +0.000 A 
ATOM      4  C   UNL     1      20.980  -9.172  26.285  0.00  0.00    +0.000 A 
ATOM      5  N   UNL     1      21.964 -10.081  26.210  0.00  0.00    +0.000 NA
ATOM      6  C   UNL     1      23.005  -9.602  25.469  0.00  0.00    +0.000 A 
ATOM      7  N   UNL     1      24.192 -10.129  25.117  0.00  0.00    +0.000 NA
ATOM      8  C   UNL     1      25.048  -9.426  24.364  0.00  0.00    +0.000 A 
ATOM      9  C   UNL     1      26.288  -9.957  23.988  0.00  0.00    +0.000 A 
ATOM     10  C   UNL     1      27.106  -9.168  23.215  0.00  0.00    +0.000 A 
ATOM     11  C   UNL     1      28.449  -9.680  22.779  0.00  0.00    +0.000 C 
ATOM     12  C   UNL     1      26.748  -7.901  22.812  0.00  0.00    +0.000 A 
ATOM     13  C   UNL     1      27.633  -7.053  21.978  0.00  0.00    +0.000 C 
ATOM     14  C   UNL     1      25.520  -7.401  23.196  0.00  0.00    +0.000 A 
ATOM     15  C   UNL     1      24.661  -8.162  23.976  0.00  0.00    +0.000 A 
ATOM     16  N   UNL     1      23.471  -7.614  24.320  0.00  0.00    +0.000 NA
ATOM     17  C   UNL     1      22.616  -8.337  25.081  0.00  0.00    +0.000 A 
ATOM     18  C   UNL     1      21.362  -8.053  25.578  0.00  0.00    +0.000 A 
ATOM     19  C   UNL     1      20.542  -6.924  25.469  0.00  0.00    +0.000 A 
ENDROOT
BRANCH   1  21
ATOM     20  C   UNL     1      18.812  -4.643  26.753  0.00  0.00    +0.000 C 
ATOM     21  O   UNL     1      18.452  -5.810  26.003  0.00  0.00    +0.000 OA
ENDBRANCH   1  21
TORSDOF 1
ENDMDL
MODEL 6
REMARK VINA RESULT:      -6.4     16.563     17.924
REMARK  Name = 
REMARK  1 active torsions:
REMARK  status: ('A' for Active; 'I' for Inactive)
REMARK    1  A    between atoms: O_2  and  C_3
REMARK                            x       y       z     vdW  Elec       q    Type
REMARK                         _______ _______ _______ _____ _____    ______ ____
ROOT
ATOM      1  C   UNL     1      33.641  -4.251  33.267  0.00  0.00    +0.000 A 
ATOM      2  C   UNL     1      34.061  -4.886  34.412  0.00  0.00    +0.000 A 
ATOM      3  C   UNL     1      34.389  -4.199  35.562  0.00  0.00    +0.000 A 
ATOM      4  C   UNL     1      34.306  -2.815  35.606  0.00  0.00    +0.000 A 
ATOM      5  N   UNL     1      34.549  -1.891  36.546  0.00  0.00    +0.000 NA
ATOM      6  C   UNL     1      34.304  -0.638  36.063  0.00  0.00    +0.000 A 
ATOM      7  N   UNL     1      34.398   0.587  36.614  0.00  0.00    +0.000 NA
ATOM      8  C   UNL     1      34.088   1.676  35.899  0.00  0.00    +0.000 A 
ATOM      9  C   UNL     1      34.180   2.958  36.455  0.00  0.00    +0.000 A 
ATOM     10  C   UNL     1      33.843   4.022  35.651  0.00  0.00    +0.000 A 
ATOM     11  C   UNL     1      33.920   5.422  36.188  0.00  0.00    +0.000 C 
ATOM     12  C   UNL     1      33.427   3.863  34.348  0.00  0.00    +0.000 A 
ATOM     13  C   UNL     1      33.065   5.011  33.485  0.00  0.00    +0.000 C 
ATOM     14  C   UNL     1      33.346   2.588  33.825  0.00  0.00    +0.000 A 
ATOM     15  C   UNL     1      33.676   1.484  34.598  0.00  0.00    +0.000 A 
ATOM     16  N   UNL     1      33.574   0.261  34.026  0.00  0.00    +0.000 NA
ATOM     17  C   UNL     1      33.891  -0.830  34.762  0.00  0.00    +0.000 A 
ATOM     18  C   UNL     1      33.887  -2.176  34.460  0.00  0.00    +0.000 A 
ATOM     19  C   UNL     1      33.555  -2.876  33.294  0.00  0.00    +0.000 A 
ENDROOT
BRANCH   1  21
ATOM     20  C   UNL     1      33.093  -6.398  32.313  0.00  0.00    +0.000 C 
ATOM     21  O   UNL     1      33.323  -4.995  32.134  0.00  0.00    +0.000 OA
ENDBRANCH   1  21
TORSDOF 1
ENDMDL
MODEL 7
REMARK VINA RESULT:      -6.3     21.316     22.371
REMARK  Name = 
REMARK  1 active torsions:
REMARK  status: ('A' for Active; 'I' for Inactive)
REMARK    1  A    between atoms: O_2  and  C_3
REMARK                            x       y       z     vdW  Elec       q    Type
REMARK                         _______ _______ _______ _____ _____    ______ ____
ROOT
ATOM      1  C   UNL     1      16.902   8.642  42.591  0.00  0.00    +0.000 A 
ATOM      2  C   UNL     1      15.809   9.083  41.884  0.00  0.00    +0.000 A 
ATOM      3  C   UNL     1      15.901   9.547  40.589  0.00  0.00    +0.000 A 
ATOM      4  C   UNL     1      17.125   9.585  39.939  0.00  0.00    +0.000 A 
ATOM      5  N   UNL     1      17.528   9.969  38.718  0.00  0.00    +0.000 NA
ATOM      6  C   UNL     1      18.875   9.798  38.580  0.00  0.00    +0.000 A 
ATOM      7  N   UNL     1      19.724  10.033  37.563  0.00  0.00    +0.000 NA
ATOM      8  C   UNL     1      21.030   9.769  37.698  0.00  0.00    +0.000 A 
ATOM      9  C   UNL     1      21.929  10.007  36.650  0.00  0.00    +0.000 A 
ATOM     10  C   UNL     1      23.253   9.707  36.873  0.00  0.00    +0.000 A 
ATOM     11  C   UNL     1      24.267   9.939  35.790  0.00  0.00    +0.000 C 
ATOM     12  C   UNL     1      23.706   9.191  38.067  0.00  0.00    +0.000 A 
ATOM     13  C   UNL     1      25.132   8.868  38.302  0.00  0.00    +0.000 C 
ATOM     14  C   UNL     1      22.798   8.966  39.082  0.00  0.00    +0.000 A 
ATOM     15  C   UNL     1      21.452   9.254  38.904  0.00  0.00    +0.000 A 
ATOM     16  N   UNL     1      20.613   9.010  39.939  0.00  0.00    +0.000 NA
ATOM     17  C   UNL     1      19.296   9.283  39.787  0.00  0.00    +0.000 A 
ATOM     18  C   UNL     1      18.224   9.143  40.644  0.00  0.00    +0.000 A 
ATOM     19  C   UNL     1      18.126   8.674  41.959  0.00  0.00    +0.000 A 
ENDROOT
BRANCH   1  21
ATOM     20  C   UNL     1      15.654   7.301  44.160  0.00  0.00    +0.000 C 
ATOM     21  O   UNL     1      16.751   8.185  43.897  0.00  0.00    +0.000 OA
ENDBRANCH   1  21
TORSDOF 1
ENDMDL
MODEL 8
REMARK VINA RESULT:      -6.2     34.013     35.404
REMARK  Name = 
REMARK  1 active torsions:
REMARK  status: ('A' for Active; 'I' for Inactive)
REMARK    1  A    between atoms: O_2  and  C_3
REMARK                            x       y       z     vdW  Elec       q    Type
REMARK                         _______ _______ _______ _____ _____    ______ ____
ROOT
ATOM      1  C   UNL     1      26.396  24.704  24.720  0.00  0.00    +0.000 A 
ATOM      2  C   UNL     1      26.817  23.409  24.529  0.00  0.00    +0.000 A 
ATOM      3  C   UNL     1      27.688  23.054  23.521  0.00  0.00    +0.000 A 
ATOM      4  C   UNL     1      28.182  24.010  22.646  0.00  0.00    +0.000 A 
ATOM      5  N   UNL     1      29.017  23.979  21.597  0.00  0.00    +0.000 NA
ATOM      6  C   UNL     1      29.174  25.229  21.070  0.00  0.00    +0.000 A 
ATOM      7  N   UNL     1      29.895  25.698  20.035  0.00  0.00    +0.000 NA
ATOM      8  C   UNL     1      29.867  27.001  19.727  0.00  0.00    +0.000 A 
ATOM      9  C   UNL     1      30.610  27.508  18.654  0.00  0.00    +0.000 A 
ATOM     10  C   UNL     1      30.524  28.858  18.406  0.00  0.00    +0.000 A 
ATOM     11  C   UNL     1      31.297  29.464  17.270  0.00  0.00    +0.000 C 
ATOM     12  C   UNL     1      29.747  29.703  19.167  0.00  0.00    +0.000 A 
ATOM     13  C   UNL     1      29.657  31.157  18.897  0.00  0.00    +0.000 C 
ATOM     14  C   UNL     1      29.024  29.177  20.219  0.00  0.00    +0.000 A 
ATOM     15  C   UNL     1      29.079  27.820  20.506  0.00  0.00    +0.000 A 
ATOM     16  N   UNL     1      28.347  27.367  21.551  0.00  0.00    +0.000 NA
ATOM     17  C   UNL     1      28.386  26.047  21.850  0.00  0.00    +0.000 A 
ATOM     18  C   UNL     1      27.762  25.309  22.834  0.00  0.00    +0.000 A 
ATOM     19  C   UNL     1      26.877  25.665  23.858  0.00  0.00    +0.000 A 
ENDROOT
BRANCH   1  21
ATOM     20  C   UNL     1      25.659  24.270  26.976  0.00  0.00    +0.000 C 
ATOM     21  O   UNL     1      25.514  25.005  25.755  0.00  0.00    +0.000 OA
ENDBRANCH   1  21
TORSDOF 1
ENDMDL
MODEL 9
REMARK VINA RESULT:      -6.0     31.830     33.484
REMARK  Name = 
REMARK  1 active torsions:
REMARK  status: ('A' for Active; 'I' for Inactive)
REMARK    1  A    between atoms: O_2  and  C_3
REMARK                            x       y       z     vdW  Elec       q    Type
REMARK                         _______ _______ _______ _____ _____    ______ ____
ROOT
ATOM      1  C   UNL     1      30.276  22.446  26.515  0.00  0.00    +0.000 A 
ATOM      2  C   UNL     1      30.558  22.321  25.175  0.00  0.00    +0.000 A 
ATOM      3  C   UNL     1      29.721  22.808  24.194  0.00  0.00    +0.000 A 
ATOM      4  C   UNL     1      28.541  23.454  24.530  0.00  0.00    +0.000 A 
ATOM      5  N   UNL     1      27.549  24.021  23.827  0.00  0.00    +0.000 NA
ATOM      6  C   UNL     1      26.597  24.529  24.663  0.00  0.00    +0.000 A 
ATOM      7  N   UNL     1      25.439  25.177  24.439  0.00  0.00    +0.000 NA
ATOM      8  C   UNL     1      24.677  25.576  25.466  0.00  0.00    +0.000 A 
ATOM      9  C   UNL     1      23.468  26.251  25.252  0.00  0.00    +0.000 A 
ATOM     10  C   UNL     1      22.748  26.624  26.362  0.00  0.00    +0.000 A 
ATOM     11  C   UNL     1      21.444  27.352  26.202  0.00  0.00    +0.000 C 
ATOM     12  C   UNL     1      23.173  26.360  27.646  0.00  0.00    +0.000 A 
ATOM     13  C   UNL     1      22.394  26.764  28.839  0.00  0.00    +0.000 C 
ATOM     14  C   UNL     1      24.368  25.692  27.827  0.00  0.00    +0.000 A 
ATOM     15  C   UNL     1      25.129  25.295  26.737  0.00  0.00    +0.000 A 
ATOM     16  N   UNL     1      26.291  24.645  26.983  0.00  0.00    +0.000 NA
ATOM     17  C   UNL     1      27.050  24.249  25.934  0.00  0.00    +0.000 A 
ATOM     18  C   UNL     1      28.256  23.581  25.872  0.00  0.00    +0.000 A 
ATOM     19  C   UNL     1      29.107  23.086  26.865  0.00  0.00    +0.000 A 
ENDROOT
BRANCH   1  21
ATOM     20  C   UNL     1      31.066  22.456  28.795  0.00  0.00    +0.000 C 
ATOM     21  O   UNL     1      31.158  21.934  27.464  0.00  0.00    +0.000 OA
ENDBRANCH   1  21
TORSDOF 1
ENDMDL
MODEL 10
REMARK VINA RESULT:      -6.0     34.522     36.281
REMARK  Name = 
REMARK  1 active torsions:
REMARK  status: ('A' for Active; 'I' for Inactive)
REMARK    1  A    between atoms: O_2  and  C_3
REMARK                            x       y       z     vdW  Elec       q    Type
REMARK                         _______ _______ _______ _____ _____    ______ ____
ROOT
ATOM      1  C   UNL     1      30.246  29.908  19.349  0.00  0.00    +0.000 A 
ATOM      2  C   UNL     1      30.925  29.118  18.452  0.00  0.00    +0.000 A 
ATOM      3  C   UNL     1      30.874  27.740  18.491  0.00  0.00    +0.000 A 
ATOM      4  C   UNL     1      30.120  27.090  19.457  0.00  0.00    +0.000 A 
ATOM      5  N   UNL     1      29.876  25.803  19.747  0.00  0.00    +0.000 NA
ATOM      6  C   UNL     1      29.044  25.702  20.824  0.00  0.00    +0.000 A 
ATOM      7  N   UNL     1      28.523  24.648  21.478  0.00  0.00    +0.000 NA
ATOM      8  C   UNL     1      27.716  24.836  22.530  0.00  0.00    +0.000 A 
ATOM      9  C   UNL     1      27.164  23.751  23.224  0.00  0.00    +0.000 A 
ATOM     10  C   UNL     1      26.346  24.033  24.292  0.00  0.00    +0.000 A 
ATOM     11  C   UNL     1      25.723  22.915  25.077  0.00  0.00    +0.000 C 
ATOM     12  C   UNL     1      26.060  25.322  24.687  0.00  0.00    +0.000 A 
ATOM     13  C   UNL     1      25.178  25.622  25.838  0.00  0.00    +0.000 C 
ATOM     14  C   UNL     1      26.618  26.372  23.986  0.00  0.00    +0.000 A 
ATOM     15  C   UNL     1      27.450  26.136  22.901  0.00  0.00    +0.000 A 
ATOM     16  N   UNL     1      27.964  27.210  22.256  0.00  0.00    +0.000 NA
ATOM     17  C   UNL     1      28.779  27.003  21.194  0.00  0.00    +0.000 A 
ATOM     18  C   UNL     1      29.438  27.879  20.357  0.00  0.00    +0.000 A 
ATOM     19  C   UNL     1      29.493  29.277  20.314  0.00  0.00    +0.000 A 
ENDROOT
BRANCH   1  21
ATOM     20  C   UNL     1      30.183  31.883  17.965  0.00  0.00    +0.000 C 
ATOM     21  O   UNL     1      30.335  31.295  19.262  0.00  0.00    +0.000 OA
ENDBRANCH   1  21
TORSDOF 1
ENDMDL
