MODEL 1
REMARK VINA RESULT:      -7.8      0.000      0.000
REMARK  Name = 
REMARK  3 active torsions:
REMARK  status: ('A' for Active; 'I' for Inactive)
REMARK    1  A    between atoms: C_2  and  O_3
REMARK    2  A    between atoms: O_3  and  C_4
REMARK    3  A    between atoms: C_4  and  C_6
REMARK                            x       y       z     vdW  Elec       q    Type
REMARK                         _______ _______ _______ _____ _____    ______ ____
ROOT
ATOM      1  C   UNL     1      16.967  10.427  35.726  0.00  0.00    +0.000 A 
ATOM      2  C   UNL     1      16.401  10.999  36.856  0.00  0.00    +0.000 A 
ATOM      3  C   UNL     1      16.747  10.577  38.230  0.00  0.00    +0.000 C 
ATOM      4  O   UNL     1      15.553  11.931  36.456  0.00  0.00    +0.000 OA
ATOM      5  C   UNL     1      15.545  11.987  35.133  0.00  0.00    +0.000 A 
ATOM      6  C   UNL     1      16.421  11.056  34.633  0.00  0.00    +0.000 A 
ATOM      7  C   UNL     1      16.588  10.922  33.271  0.00  0.00    +0.000 A 
ATOM      8  C   UNL     1      15.896  11.704  32.364  0.00  0.00    +0.000 A 
ATOM      9  O   UNL     1      16.030  11.605  31.000  0.00  0.00    +0.000 OA
ATOM     10  C   UNL     1      15.018  12.637  32.879  0.00  0.00    +0.000 A 
ATOM     11  C   UNL     1      14.290  13.455  32.008  0.00  0.00    +0.000 A 
ATOM     12  C   UNL     1      13.419  14.382  32.526  0.00  0.00    +0.000 A 
ATOM     13  C   UNL     1      13.248  14.520  33.878  0.00  0.00    +0.000 A 
ATOM     14  C   UNL     1      13.954  13.724  34.734  0.00  0.00    +0.000 A 
ATOM     15  C   UNL     1      14.836  12.787  34.235  0.00  0.00    +0.000 A 
ENDROOT
BRANCH   1  16
ATOM     16  C   UNL     1      17.944   9.369  35.653  0.00  0.00    +0.000 C 
ATOM     17  O   UNL     1      17.572   8.161  35.535  0.00  0.00    +0.000 OA
BRANCH  16  18
ATOM     18  O   UNL     1      19.317   9.584  35.705  0.00  0.00    +0.000 OA
BRANCH  18  20
ATOM     19  C   UNL     1      21.480   9.871  36.756  0.00  0.00    +0.000 C 
ATOM     20  C   UNL     1      19.966   9.788  36.964  0.00  0.00    +0.000 C 
ENDBRANCH  18  20
ENDBRANCH  16  18
ENDBRANCH   1  16
TORSDOF 3
ENDMDL
MODEL 2
REMARK VINA RESULT:      -7.2      2.361      6.758
REMARK  Name = 
REMARK  3 active torsions:
REMARK  status: ('A' for Active; 'I' for Inactive)
REMARK    1  A    between atoms: C_2  and  O_3
REMARK    2  A    between atoms: O_3  and  C_4
REMARK    3  A    between atoms: C_4  and  C_6
REMARK                            x       y       z     vdW  Elec       q    Type
REMARK                         _______ _______ _______ _____ _____    ______ ____
ROOT
ATOM      1  C   UNL     1      14.510  11.623  36.735  0.00  0.00    +0.000 A 
ATOM      2  C   UNL     1      13.361  11.475  37.499  0.00  0.00    +0.000 A 
ATOM      3  C   UNL     1      12.028  11.920  37.040  0.00  0.00    +0.000 C 
ATOM      4  O   UNL     1      13.704  10.893  38.635  0.00  0.00    +0.000 OA
ATOM      5  C   UNL     1      15.007  10.661  38.640  0.00  0.00    +0.000 A 
ATOM      6  C   UNL     1      15.554  11.105  37.463  0.00  0.00    +0.000 A 
ATOM      7  C   UNL     1      16.907  10.973  37.232  0.00  0.00    +0.000 A 
ATOM      8  C   UNL     1      17.758  10.398  38.158  0.00  0.00    +0.000 A 
ATOM      9  O   UNL     1      19.111  10.246  37.971  0.00  0.00    +0.000 OA
ATOM     10  C   UNL     1      17.197   9.954  39.338  0.00  0.00    +0.000 A 
ATOM     11  C   UNL     1      18.011   9.364  40.312  0.00  0.00    +0.000 A 
ATOM     12  C   UNL     1      17.447   8.925  41.484  0.00  0.00    +0.000 A 
ATOM     13  C   UNL     1      16.104   9.053  41.720  0.00  0.00    +0.000 A 
ATOM     14  C   UNL     1      15.303   9.628  40.775  0.00  0.00    +0.000 A 
ATOM     15  C   UNL     1      15.850  10.076  39.589  0.00  0.00    +0.000 A 
ENDROOT
BRANCH   1  16
ATOM     16  C   UNL     1      14.642  12.204  35.421  0.00  0.00    +0.000 C 
ATOM     17  O   UNL     1      14.927  11.472  34.423  0.00  0.00    +0.000 OA
BRANCH  16  18
ATOM     18  O   UNL     1      14.472  13.558  35.156  0.00  0.00    +0.000 OA
BRANCH  18  20
ATOM     19  C   UNL     1      12.887  15.244  34.441  0.00  0.00    +0.000 C 
ATOM     20  C   UNL     1      13.658  13.978  34.057  0.00  0.00    +0.000 C 
ENDBRANCH  18  20
ENDBRANCH  16  18
ENDBRANCH   1  16
TORSDOF 3
ENDMDL
MODEL 3
REMARK VINA RESULT:      -7.0     17.155     18.290
REMARK  Name = 
REMARK  3 active torsions:
REMARK  status: ('A' for Active; 'I' for Inactive)
REMARK    1  A    between atoms: C_2  and  O_3
REMARK    2  A    between atoms: O_3  and  C_4
REMARK    3  A    between atoms: C_4  and  C_6
REMARK                            x       y       z     vdW  Elec       q    Type
REMARK                         _______ _______ _______ _____ _____    ______ ____
ROOT
ATOM      1  C   UNL     1      27.700  22.752  29.679  0.00  0.00    +0.000 A 
ATOM      2  C   UNL     1      29.028  22.625  30.059  0.00  0.00    +0.000 A 
ATOM      3  C   UNL     1      29.453  22.504  31.470  0.00  0.00    +0.000 C 
ATOM      4  O   UNL     1      29.765  22.636  28.961  0.00  0.00    +0.000 OA
ATOM      5  C   UNL     1      28.981  22.763  27.901  0.00  0.00    +0.000 A 
ATOM      6  C   UNL     1      27.674  22.839  28.308  0.00  0.00    +0.000 A 
ATOM      7  C   UNL     1      26.665  22.976  27.379  0.00  0.00    +0.000 A 
ATOM      8  C   UNL     1      26.918  23.040  26.021  0.00  0.00    +0.000 A 
ATOM      9  O   UNL     1      25.946  23.177  25.059  0.00  0.00    +0.000 OA
ATOM     10  C   UNL     1      28.238  22.961  25.623  0.00  0.00    +0.000 A 
ATOM     11  C   UNL     1      28.554  23.022  24.261  0.00  0.00    +0.000 A 
ATOM     12  C   UNL     1      29.869  22.943  23.872  0.00  0.00    +0.000 A 
ATOM     13  C   UNL     1      30.876  22.807  24.790  0.00  0.00    +0.000 A 
ATOM     14  C   UNL     1      30.575  22.748  26.121  0.00  0.00    +0.000 A 
ATOM     15  C   UNL     1      29.261  22.825  26.534  0.00  0.00    +0.000 A 
ENDROOT
BRANCH   1  16
ATOM     16  C   UNL     1      26.529  22.792  30.521  0.00  0.00    +0.000 C 
ATOM     17  O   UNL     1      25.879  21.728  30.764  0.00  0.00    +0.000 OA
BRANCH  16  18
ATOM     18  O   UNL     1      26.041  23.954  31.109  0.00  0.00    +0.000 OA
BRANCH  18  20
ATOM     19  C   UNL     1      25.077  25.592  29.608  0.00  0.00    +0.000 C 
ATOM     20  C   UNL     1      26.273  25.224  30.490  0.00  0.00    +0.000 C 
ENDBRANCH  18  20
ENDBRANCH  16  18
ENDBRANCH   1  16
TORSDOF 3
ENDMDL
MODEL 4
REMARK VINA RESULT:      -6.6     20.118     22.324
REMARK  Name = 
REMARK  3 active torsions:
REMARK  status: ('A' for Active; 'I' for Inactive)
REMARK    1  A    between atoms: C_2  and  O_3
REMARK    2  A    between atoms: O_3  and  C_4
REMARK    3  A    between atoms: C_4  and  C_6
REMARK                            x       y       z     vdW  Elec       q    Type
REMARK                         _______ _______ _______ _____ _____    ______ ____
ROOT
ATOM      1  C   UNL     1      19.403  -7.097  26.098  0.00  0.00    +0.000 A 
ATOM      2  C   UNL     1      19.679  -5.741  25.996  0.00  0.00    +0.000 A 
ATOM      3  C   UNL     1      18.731  -4.692  26.426  0.00  0.00    +0.000 C 
ATOM      4  O   UNL     1      20.885  -5.613  25.470  0.00  0.00    +0.000 OA
ATOM      5  C   UNL     1      21.395  -6.812  25.230  0.00  0.00    +0.000 A 
ATOM      6  C   UNL     1      20.494  -7.774  25.611  0.00  0.00    +0.000 A 
ATOM      7  C   UNL     1      20.799  -9.110  25.458  0.00  0.00    +0.000 A 
ATOM      8  C   UNL     1      22.003  -9.533  24.925  0.00  0.00    +0.000 A 
ATOM      9  O   UNL     1      22.350 -10.852  24.754  0.00  0.00    +0.000 OA
ATOM     10  C   UNL     1      22.902  -8.557  24.546  0.00  0.00    +0.000 A 
ATOM     11  C   UNL     1      24.136  -8.927  24.000  0.00  0.00    +0.000 A 
ATOM     12  C   UNL     1      25.026  -7.950  23.625  0.00  0.00    +0.000 A 
ATOM     13  C   UNL     1      24.729  -6.621  23.774  0.00  0.00    +0.000 A 
ATOM     14  C   UNL     1      23.526  -6.252  24.305  0.00  0.00    +0.000 A 
ATOM     15  C   UNL     1      22.618  -7.218  24.690  0.00  0.00    +0.000 A 
ENDROOT
BRANCH   1  16
ATOM     16  C   UNL     1      18.212  -7.730  26.610  0.00  0.00    +0.000 C 
ATOM     17  O   UNL     1      17.304  -8.124  25.813  0.00  0.00    +0.000 OA
BRANCH  16  18
ATOM     18  O   UNL     1      17.976  -7.950  27.962  0.00  0.00    +0.000 OA
BRANCH  18  20
ATOM     19  C   UNL     1      19.460  -9.591  28.948  0.00  0.00    +0.000 C 
ATOM     20  C   UNL     1      18.032  -9.277  28.494  0.00  0.00    +0.000 C 
ENDBRANCH  18  20
ENDBRANCH  16  18
ENDBRANCH   1  16
TORSDOF 3
ENDMDL
MODEL 5
REMARK VINA RESULT:      -6.3     20.642     22.618
REMARK  Name = 
REMARK  3 active torsions:
REMARK  status: ('A' for Active; 'I' for Inactive)
REMARK    1  A    between atoms: C_2  and  O_3
REMARK    2  A    between atoms: O_3  and  C_4
REMARK    3  A    between atoms: C_4  and  C_6
REMARK                            x       y       z     vdW  Elec       q    Type
REMARK                         _______ _______ _______ _____ _____    ______ ____
ROOT
ATOM      1  C   UNL     1      23.009  -8.383  24.651  0.00  0.00    +0.000 A 
ATOM      2  C   UNL     1      23.307  -7.068  24.326  0.00  0.00    +0.000 A 
ATOM      3  C   UNL     1      24.546  -6.675  23.622  0.00  0.00    +0.000 C 
ATOM      4  O   UNL     1      22.312  -6.310  24.754  0.00  0.00    +0.000 OA
ATOM      5  C   UNL     1      21.394  -7.068  25.335  0.00  0.00    +0.000 A 
ATOM      6  C   UNL     1      21.793  -8.380  25.292  0.00  0.00    +0.000 A 
ATOM      7  C   UNL     1      20.998  -9.365  25.838  0.00  0.00    +0.000 A 
ATOM      8  C   UNL     1      19.786  -9.083  26.441  0.00  0.00    +0.000 A 
ATOM      9  O   UNL     1      18.962 -10.032  26.998  0.00  0.00    +0.000 OA
ATOM     10  C   UNL     1      19.395  -7.760  26.478  0.00  0.00    +0.000 A 
ATOM     11  C   UNL     1      18.178  -7.416  27.077  0.00  0.00    +0.000 A 
ATOM     12  C   UNL     1      17.794  -6.097  27.110  0.00  0.00    +0.000 A 
ATOM     13  C   UNL     1      18.579  -5.113  26.570  0.00  0.00    +0.000 A 
ATOM     14  C   UNL     1      19.769  -5.442  25.985  0.00  0.00    +0.000 A 
ATOM     15  C   UNL     1      20.173  -6.761  25.940  0.00  0.00    +0.000 A 
ENDROOT
BRANCH   1  16
ATOM     16  C   UNL     1      23.790  -9.568  24.391  0.00  0.00    +0.000 C 
ATOM     17  O   UNL     1      24.660  -9.958  25.231  0.00  0.00    +0.000 OA
BRANCH  16  18
ATOM     18  O   UNL     1      23.655 -10.344  23.246  0.00  0.00    +0.000 OA
BRANCH  18  20
ATOM     19  C   UNL     1      23.799  -9.275  21.078  0.00  0.00    +0.000 C 
ATOM     20  C   UNL     1      22.875  -9.870  22.144  0.00  0.00    +0.000 C 
ENDBRANCH  18  20
ENDBRANCH  16  18
ENDBRANCH   1  16
TORSDOF 3
ENDMDL
MODEL 6
REMARK VINA RESULT:      -6.3     19.195     20.381
REMARK  Name = 
REMARK  3 active torsions:
REMARK  status: ('A' for Active; 'I' for Inactive)
REMARK    1  A    between atoms: C_2  and  O_3
REMARK    2  A    between atoms: O_3  and  C_4
REMARK    3  A    between atoms: C_4  and  C_6
REMARK                            x       y       z     vdW  Elec       q    Type
REMARK                         _______ _______ _______ _____ _____    ______ ____
ROOT
ATOM      1  C   UNL     1      33.417  -0.400  35.507  0.00  0.00    +0.000 A 
ATOM      2  C   UNL     1      33.580  -0.255  36.877  0.00  0.00    +0.000 A 
ATOM      3  C   UNL     1      33.506  -1.390  37.821  0.00  0.00    +0.000 C 
ATOM      4  O   UNL     1      33.798   1.025  37.125  0.00  0.00    +0.000 OA
ATOM      5  C   UNL     1      33.784   1.706  35.989  0.00  0.00    +0.000 A 
ATOM      6  C   UNL     1      33.547   0.847  34.946  0.00  0.00    +0.000 A 
ATOM      7  C   UNL     1      33.485   1.325  33.654  0.00  0.00    +0.000 A 
ATOM      8  C   UNL     1      33.657   2.664  33.355  0.00  0.00    +0.000 A 
ATOM      9  O   UNL     1      33.603   3.184  32.084  0.00  0.00    +0.000 OA
ATOM     10  C   UNL     1      33.895   3.519  34.413  0.00  0.00    +0.000 A 
ATOM     11  C   UNL     1      34.076   4.885  34.170  0.00  0.00    +0.000 A 
ATOM     12  C   UNL     1      34.313   5.730  35.226  0.00  0.00    +0.000 A 
ATOM     13  C   UNL     1      34.375   5.263  36.512  0.00  0.00    +0.000 A 
ATOM     14  C   UNL     1      34.199   3.930  36.757  0.00  0.00    +0.000 A 
ATOM     15  C   UNL     1      33.961   3.063  35.710  0.00  0.00    +0.000 A 
ENDROOT
BRANCH   1  16
ATOM     16  C   UNL     1      33.157  -1.607  34.761  0.00  0.00    +0.000 C 
ATOM     17  O   UNL     1      34.037  -2.074  33.973  0.00  0.00    +0.000 OA
BRANCH  16  18
ATOM     18  O   UNL     1      31.969  -2.325  34.845  0.00  0.00    +0.000 OA
BRANCH  18  20
ATOM     19  C   UNL     1      32.306  -4.354  36.124  0.00  0.00    +0.000 C 
ATOM     20  C   UNL     1      31.985  -3.753  34.753  0.00  0.00    +0.000 C 
ENDBRANCH  18  20
ENDBRANCH  16  18
ENDBRANCH   1  16
TORSDOF 3
ENDMDL
MODEL 7
REMARK VINA RESULT:      -6.0     18.029     19.032
REMARK  Name = 
REMARK  3 active torsions:
REMARK  status: ('A' for Active; 'I' for Inactive)
REMARK    1  A    between atoms: C_2  and  O_3
REMARK    2  A    between atoms: O_3  and  C_4
REMARK    3  A    between atoms: C_4  and  C_6
REMARK                            x       y       z     vdW  Elec       q    Type
REMARK                         _______ _______ _______ _____ _____    ______ ____
ROOT
ATOM      1  C   UNL     1      29.781  22.799  28.321  0.00  0.00    +0.000 A 
ATOM      2  C   UNL     1      28.564  22.660  28.973  0.00  0.00    +0.000 A 
ATOM      3  C   UNL     1      28.454  22.448  30.432  0.00  0.00    +0.000 C 
ATOM      4  O   UNL     1      27.607  22.754  28.066  0.00  0.00    +0.000 OA
ATOM      5  C   UNL     1      28.144  22.945  26.871  0.00  0.00    +0.000 A 
ATOM      6  C   UNL     1      29.510  22.979  26.986  0.00  0.00    +0.000 A 
ATOM      7  C   UNL     1      30.296  23.167  25.868  0.00  0.00    +0.000 A 
ATOM      8  C   UNL     1      29.754  23.328  24.606  0.00  0.00    +0.000 A 
ATOM      9  O   UNL     1      30.498  23.518  23.466  0.00  0.00    +0.000 OA
ATOM     10  C   UNL     1      28.378  23.292  24.503  0.00  0.00    +0.000 A 
ATOM     11  C   UNL     1      27.775  23.448  23.250  0.00  0.00    +0.000 A 
ATOM     12  C   UNL     1      26.405  23.412  23.154  0.00  0.00    +0.000 A 
ATOM     13  C   UNL     1      25.619  23.225  24.260  0.00  0.00    +0.000 A 
ATOM     14  C   UNL     1      26.201  23.071  25.486  0.00  0.00    +0.000 A 
ATOM     15  C   UNL     1      27.575  23.105  25.605  0.00  0.00    +0.000 A 
ENDROOT
BRANCH   1  16
ATOM     16  C   UNL     1      31.108  22.766  28.886  0.00  0.00    +0.000 C 
ATOM     17  O   UNL     1      31.747  23.847  29.082  0.00  0.00    +0.000 OA
BRANCH  16  18
ATOM     18  O   UNL     1      31.763  21.595  29.248  0.00  0.00    +0.000 OA
BRANCH  18  20
ATOM     19  C   UNL     1      33.409  21.213  30.983  0.00  0.00    +0.000 C 
ATOM     20  C   UNL     1      33.167  21.613  29.525  0.00  0.00    +0.000 C 
ENDBRANCH  18  20
ENDBRANCH  16  18
ENDBRANCH   1  16
TORSDOF 3
ENDMDL
MODEL 8
REMARK VINA RESULT:      -5.9     20.018     22.110
REMARK  Name = 
REMARK  3 active torsions:
REMARK  status: ('A' for Active; 'I' for Inactive)
REMARK    1  A    between atoms: C_2  and  O_3
REMARK    2  A    between atoms: O_3  and  C_4
REMARK    3  A    between atoms: C_4  and  C_6
REMARK                            x       y       z     vdW  Elec       q    Type
REMARK                         _______ _______ _______ _____ _____    ______ ____
ROOT
ATOM      1  C   UNL     1      17.838 -10.450  28.314  0.00  0.00    +0.000 A 
ATOM      2  C   UNL     1      18.905 -11.271  27.979  0.00  0.00    +0.000 A 
ATOM      3  C   UNL     1      18.979 -12.695  28.371  0.00  0.00    +0.000 C 
ATOM      4  O   UNL     1      19.768 -10.550  27.285  0.00  0.00    +0.000 OA
ATOM      5  C   UNL     1      19.312  -9.313  27.159  0.00  0.00    +0.000 A 
ATOM      6  C   UNL     1      18.100  -9.207  27.792  0.00  0.00    +0.000 A 
ATOM      7  C   UNL     1      17.423  -8.006  27.799  0.00  0.00    +0.000 A 
ATOM      8  C   UNL     1      17.924  -6.875  27.180  0.00  0.00    +0.000 A 
ATOM      9  O   UNL     1      17.285  -5.659  27.161  0.00  0.00    +0.000 OA
ATOM     10  C   UNL     1      19.144  -6.994  26.545  0.00  0.00    +0.000 A 
ATOM     11  C   UNL     1      19.699  -5.882  25.902  0.00  0.00    +0.000 A 
ATOM     12  C   UNL     1      20.914  -6.006  25.272  0.00  0.00    +0.000 A 
ATOM     13  C   UNL     1      21.591  -7.196  25.262  0.00  0.00    +0.000 A 
ATOM     14  C   UNL     1      21.056  -8.286  25.888  0.00  0.00    +0.000 A 
ATOM     15  C   UNL     1      19.836  -8.183  26.526  0.00  0.00    +0.000 A 
ENDROOT
BRANCH   1  16
ATOM     16  C   UNL     1      16.654 -10.785  29.068  0.00  0.00    +0.000 C 
ATOM     17  O   UNL     1      15.594 -11.144  28.467  0.00  0.00    +0.000 OA
BRANCH  16  18
ATOM     18  O   UNL     1      16.586 -10.744  30.456  0.00  0.00    +0.000 OA
BRANCH  18  20
ATOM     19  C   UNL     1      18.437 -10.958  32.004  0.00  0.00    +0.000 C 
ATOM     20  C   UNL     1      17.555  -9.999  31.201  0.00  0.00    +0.000 C 
ENDBRANCH  18  20
ENDBRANCH  16  18
ENDBRANCH   1  16
TORSDOF 3
ENDMDL
MODEL 9
REMARK VINA RESULT:      -5.8     19.544     21.713
REMARK  Name = 
REMARK  3 active torsions:
REMARK  status: ('A' for Active; 'I' for Inactive)
REMARK    1  A    between atoms: C_2  and  O_3
REMARK    2  A    between atoms: O_3  and  C_4
REMARK    3  A    between atoms: C_4  and  C_6
REMARK                            x       y       z     vdW  Elec       q    Type
REMARK                         _______ _______ _______ _____ _____    ______ ____
ROOT
ATOM      1  C   UNL     1      24.298   3.658  16.848  0.00  0.00    +0.000 A 
ATOM      2  C   UNL     1      24.114   3.818  15.483  0.00  0.00    +0.000 A 
ATOM      3  C   UNL     1      23.047   3.125  14.729  0.00  0.00    +0.000 C 
ATOM      4  O   UNL     1      25.033   4.662  15.046  0.00  0.00    +0.000 OA
ATOM      5  C   UNL     1      25.795   5.050  16.057  0.00  0.00    +0.000 A 
ATOM      6  C   UNL     1      25.367   4.442  17.210  0.00  0.00    +0.000 A 
ATOM      7  C   UNL     1      26.009   4.691  18.405  0.00  0.00    +0.000 A 
ATOM      8  C   UNL     1      27.091   5.547  18.495  0.00  0.00    +0.000 A 
ATOM      9  O   UNL     1      27.760   5.824  19.663  0.00  0.00    +0.000 OA
ATOM     10  C   UNL     1      27.512   6.154  17.329  0.00  0.00    +0.000 A 
ATOM     11  C   UNL     1      28.603   7.030  17.360  0.00  0.00    +0.000 A 
ATOM     12  C   UNL     1      29.017   7.630  16.196  0.00  0.00    +0.000 A 
ATOM     13  C   UNL     1      28.384   7.387  15.006  0.00  0.00    +0.000 A 
ATOM     14  C   UNL     1      27.320   6.533  14.967  0.00  0.00    +0.000 A 
ATOM     15  C   UNL     1      26.886   5.920  16.126  0.00  0.00    +0.000 A 
ENDROOT
BRANCH   1  16
ATOM     16  C   UNL     1      23.543   2.838  17.763  0.00  0.00    +0.000 C 
ATOM     17  O   UNL     1      24.097   1.858  18.352  0.00  0.00    +0.000 OA
BRANCH  16  18
ATOM     18  O   UNL     1      22.201   3.049  18.060  0.00  0.00    +0.000 OA
BRANCH  18  20
ATOM     19  C   UNL     1      19.821   2.615  17.943  0.00  0.00    +0.000 C 
ATOM     20  C   UNL     1      21.229   2.049  17.739  0.00  0.00    +0.000 C 
ENDBRANCH  18  20
ENDBRANCH  16  18
ENDBRANCH   1  16
TORSDOF 3
ENDMDL
MODEL 10
REMARK VINA RESULT:      -5.8     22.357     25.289
REMARK  Name = 
REMARK  3 active torsions:
REMARK  status: ('A' for Active; 'I' for Inactive)
REMARK    1  A    between atoms: C_2  and  O_3
REMARK    2  A    between atoms: O_3  and  C_4
REMARK    3  A    between atoms: C_4  and  C_6
REMARK                            x       y       z     vdW  Elec       q    Type
REMARK                         _______ _______ _______ _____ _____    ______ ____
ROOT
ATOM      1  C   UNL     1      34.380  -4.699  33.855  0.00  0.00    +0.000 A 
ATOM      2  C   UNL     1      33.619  -3.679  33.302  0.00  0.00    +0.000 A 
ATOM      3  C   UNL     1      33.161  -2.507  34.077  0.00  0.00    +0.000 C 
ATOM      4  O   UNL     1      33.415  -3.972  32.029  0.00  0.00    +0.000 OA
ATOM      5  C   UNL     1      34.003  -5.122  31.737  0.00  0.00    +0.000 A 
ATOM      6  C   UNL     1      34.622  -5.614  32.858  0.00  0.00    +0.000 A 
ATOM      7  C   UNL     1      35.306  -6.810  32.805  0.00  0.00    +0.000 A 
ATOM      8  C   UNL     1      35.399  -7.553  31.643  0.00  0.00    +0.000 A 
ATOM      9  O   UNL     1      36.070  -8.749  31.543  0.00  0.00    +0.000 OA
ATOM     10  C   UNL     1      34.774  -7.048  30.521  0.00  0.00    +0.000 A 
ATOM     11  C   UNL     1      34.834  -7.758  29.317  0.00  0.00    +0.000 A 
ATOM     12  C   UNL     1      34.209  -7.250  28.204  0.00  0.00    +0.000 A 
ATOM     13  C   UNL     1      33.528  -6.063  28.250  0.00  0.00    +0.000 A 
ATOM     14  C   UNL     1      33.463  -5.365  29.422  0.00  0.00    +0.000 A 
ATOM     15  C   UNL     1      34.085  -5.857  30.552  0.00  0.00    +0.000 A 
ENDROOT
BRANCH   1  16
ATOM     16  C   UNL     1      34.853  -4.827  35.211  0.00  0.00    +0.000 C 
ATOM     17  O   UNL     1      34.059  -5.187  36.135  0.00  0.00    +0.000 OA
BRANCH  16  18
ATOM     18  O   UNL     1      36.166  -4.577  35.597  0.00  0.00    +0.000 OA
BRANCH  18  20
ATOM     19  C   UNL     1      36.217  -2.213  36.123  0.00  0.00    +0.000 C 
ATOM     20  C   UNL     1      36.441  -3.636  36.640  0.00  0.00    +0.000 C 
ENDBRANCH  18  20
ENDBRANCH  16  18
ENDBRANCH   1  16
TORSDOF 3
ENDMDL
