MODEL 1
REMARK VINA RESULT:      -7.0      0.000      0.000
REMARK  Name = 
REMARK  1 active torsions:
REMARK  status: ('A' for Active; 'I' for Inactive)
REMARK    1  A    between atoms: C_7  and  N_8
REMARK                            x       y       z     vdW  Elec       q    Type
REMARK                         _______ _______ _______ _____ _____    ______ ____
ROOT
ATOM      1  N   UNL     1      16.455  11.979  35.956  0.00  0.00    +0.000 NA
ATOM      2  C   UNL     1      15.335  11.787  36.573  0.00  0.00    +0.000 C 
ATOM      3  N   UNL     1      14.029  12.185  36.167  0.00  0.00    +0.000 NA
ATOM      4  C   UNL     1      13.184  11.804  37.058  0.00  0.00    +0.000 C 
ATOM      5  N   UNL     1      11.773  12.014  37.018  0.00  0.00    +0.000 NA
ATOM      6  C   UNL     1      13.863  11.113  38.145  0.00  0.00    +0.000 A 
ATOM      7  C   UNL     1      13.412  10.531  39.308  0.00  0.00    +0.000 A 
ATOM      8  C   UNL     1      14.317   9.940  40.159  0.00  0.00    +0.000 A 
ATOM      9  C   UNL     1      15.669   9.934  39.841  0.00  0.00    +0.000 A 
ATOM     10  C   UNL     1      16.128  10.515  38.680  0.00  0.00    +0.000 A 
ATOM     11  C   UNL     1      15.208  11.102  37.842  0.00  0.00    +0.000 A 
ENDROOT
BRANCH   1  18
ATOM     12  C   UNL     1      20.312  12.504  39.040  0.00  0.00    +0.000 C 
ATOM     13  C   UNL     1      19.539  11.704  38.048  0.00  0.00    +0.000 A 
ATOM     14  C   UNL     1      19.985  10.437  37.692  0.00  0.00    +0.000 A 
ATOM     15  C   UNL     1      19.261   9.705  36.775  0.00  0.00    +0.000 A 
ATOM     16  C   UNL     1      18.095  10.232  36.210  0.00  0.00    +0.000 A 
ATOM     17  C   UNL     1      17.380   9.385  35.235  0.00  0.00    +0.000 C 
ATOM     18  C   UNL     1      17.643  11.488  36.557  0.00  0.00    +0.000 A 
ATOM     19  C   UNL     1      18.390  12.192  37.476  0.00  0.00    +0.000 A 
ENDBRANCH   1  18
TORSDOF 1
ENDMDL
MODEL 2
REMARK VINA RESULT:      -6.8     21.556     23.548
REMARK  Name = 
REMARK  1 active torsions:
REMARK  status: ('A' for Active; 'I' for Inactive)
REMARK    1  A    between atoms: C_7  and  N_8
REMARK                            x       y       z     vdW  Elec       q    Type
REMARK                         _______ _______ _______ _____ _____    ______ ____
ROOT
ATOM      1  N   UNL     1      28.825  23.122  22.469  0.00  0.00    +0.000 NA
ATOM      2  C   UNL     1      29.080  24.312  22.033  0.00  0.00    +0.000 C 
ATOM      3  N   UNL     1      29.441  24.704  20.712  0.00  0.00    +0.000 NA
ATOM      4  C   UNL     1      29.608  25.979  20.690  0.00  0.00    +0.000 C 
ATOM      5  N   UNL     1      29.975  26.755  19.550  0.00  0.00    +0.000 NA
ATOM      6  C   UNL     1      29.371  26.549  22.008  0.00  0.00    +0.000 A 
ATOM      7  C   UNL     1      29.423  27.837  22.492  0.00  0.00    +0.000 A 
ATOM      8  C   UNL     1      29.141  28.069  23.818  0.00  0.00    +0.000 A 
ATOM      9  C   UNL     1      28.808  27.010  24.654  0.00  0.00    +0.000 A 
ATOM     10  C   UNL     1      28.755  25.719  24.178  0.00  0.00    +0.000 A 
ATOM     11  C   UNL     1      29.041  25.507  22.848  0.00  0.00    +0.000 A 
ENDROOT
BRANCH   1  18
ATOM     12  C   UNL     1      30.084  22.344  27.209  0.00  0.00    +0.000 C 
ATOM     13  C   UNL     1      29.055  22.592  26.161  0.00  0.00    +0.000 A 
ATOM     14  C   UNL     1      27.716  22.678  26.522  0.00  0.00    +0.000 A 
ATOM     15  C   UNL     1      26.772  22.908  25.543  0.00  0.00    +0.000 A 
ATOM     16  C   UNL     1      27.157  23.052  24.207  0.00  0.00    +0.000 A 
ATOM     17  C   UNL     1      26.085  23.296  23.222  0.00  0.00    +0.000 C 
ATOM     18  C   UNL     1      28.484  22.969  23.838  0.00  0.00    +0.000 A 
ATOM     19  C   UNL     1      29.401  22.738  24.841  0.00  0.00    +0.000 A 
ENDBRANCH   1  18
TORSDOF 1
ENDMDL
MODEL 3
REMARK VINA RESULT:      -6.6     20.509     23.045
REMARK  Name = 
REMARK  1 active torsions:
REMARK  status: ('A' for Active; 'I' for Inactive)
REMARK    1  A    between atoms: C_7  and  N_8
REMARK                            x       y       z     vdW  Elec       q    Type
REMARK                         _______ _______ _______ _____ _____    ______ ____
ROOT
ATOM      1  N   UNL     1      20.128 -10.073  26.687  0.00  0.00    +0.000 NA
ATOM      2  C   UNL     1      20.400  -8.892  26.236  0.00  0.00    +0.000 C 
ATOM      3  N   UNL     1      21.496  -8.496  25.417  0.00  0.00    +0.000 NA
ATOM      4  C   UNL     1      21.407  -7.234  25.187  0.00  0.00    +0.000 C 
ATOM      5  N   UNL     1      22.316  -6.459  24.407  0.00  0.00    +0.000 NA
ATOM      6  C   UNL     1      20.231  -6.676  25.841  0.00  0.00    +0.000 A 
ATOM      7  C   UNL     1      19.708  -5.404  25.897  0.00  0.00    +0.000 A 
ATOM      8  C   UNL     1      18.554  -5.182  26.612  0.00  0.00    +0.000 A 
ATOM      9  C   UNL     1      17.929  -6.236  27.267  0.00  0.00    +0.000 A 
ATOM     10  C   UNL     1      18.446  -7.511  27.216  0.00  0.00    +0.000 A 
ATOM     11  C   UNL     1      19.601  -7.713  26.496  0.00  0.00    +0.000 A 
ENDROOT
BRANCH   1  18
ATOM     12  C   UNL     1      15.242 -10.808  27.187  0.00  0.00    +0.000 C 
ATOM     13  C   UNL     1      16.591 -10.588  27.780  0.00  0.00    +0.000 A 
ATOM     14  C   UNL     1      16.734 -10.534  29.161  0.00  0.00    +0.000 A 
ATOM     15  C   UNL     1      17.987 -10.330  29.698  0.00  0.00    +0.000 A 
ATOM     16  C   UNL     1      19.099 -10.179  28.864  0.00  0.00    +0.000 A 
ATOM     17  C   UNL     1      20.405  -9.964  29.518  0.00  0.00    +0.000 C 
ATOM     18  C   UNL     1      18.970 -10.232  27.491  0.00  0.00    +0.000 A 
ATOM     19  C   UNL     1      17.703 -10.437  26.989  0.00  0.00    +0.000 A 
ENDBRANCH   1  18
TORSDOF 1
ENDMDL
MODEL 4
REMARK VINA RESULT:      -6.6     19.927     22.072
REMARK  Name = 
REMARK  1 active torsions:
REMARK  status: ('A' for Active; 'I' for Inactive)
REMARK    1  A    between atoms: C_7  and  N_8
REMARK                            x       y       z     vdW  Elec       q    Type
REMARK                         _______ _______ _______ _____ _____    ______ ____
ROOT
ATOM      1  N   UNL     1      26.766  22.934  24.569  0.00  0.00    +0.000 NA
ATOM      2  C   UNL     1      27.588  23.622  23.845  0.00  0.00    +0.000 C 
ATOM      3  N   UNL     1      28.111  23.295  22.561  0.00  0.00    +0.000 NA
ATOM      4  C   UNL     1      28.895  24.241  22.181  0.00  0.00    +0.000 C 
ATOM      5  N   UNL     1      29.614  24.288  20.950  0.00  0.00    +0.000 NA
ATOM      6  C   UNL     1      28.960  25.289  23.190  0.00  0.00    +0.000 A 
ATOM      7  C   UNL     1      29.643  26.482  23.255  0.00  0.00    +0.000 A 
ATOM      8  C   UNL     1      29.500  27.280  24.367  0.00  0.00    +0.000 A 
ATOM      9  C   UNL     1      28.672  26.879  25.408  0.00  0.00    +0.000 A 
ATOM     10  C   UNL     1      27.986  25.686  25.351  0.00  0.00    +0.000 A 
ATOM     11  C   UNL     1      28.143  24.902  24.231  0.00  0.00    +0.000 A 
ENDROOT
BRANCH   1  18
ATOM     12  C   UNL     1      23.836  25.805  27.368  0.00  0.00    +0.000 C 
ATOM     13  C   UNL     1      24.973  24.852  27.229  0.00  0.00    +0.000 A 
ATOM     14  C   UNL     1      25.683  24.461  28.357  0.00  0.00    +0.000 A 
ATOM     15  C   UNL     1      26.732  23.577  28.216  0.00  0.00    +0.000 A 
ATOM     16  C   UNL     1      27.077  23.083  26.955  0.00  0.00    +0.000 A 
ATOM     17  C   UNL     1      28.213  22.142  26.890  0.00  0.00    +0.000 C 
ATOM     18  C   UNL     1      26.378  23.463  25.827  0.00  0.00    +0.000 A 
ATOM     19  C   UNL     1      25.336  24.347  26.005  0.00  0.00    +0.000 A 
ENDBRANCH   1  18
TORSDOF 1
ENDMDL
MODEL 5
REMARK VINA RESULT:      -6.5     22.247     24.162
REMARK  Name = 
REMARK  1 active torsions:
REMARK  status: ('A' for Active; 'I' for Inactive)
REMARK    1  A    between atoms: C_7  and  N_8
REMARK                            x       y       z     vdW  Elec       q    Type
REMARK                         _______ _______ _______ _____ _____    ______ ____
ROOT
ATOM      1  N   UNL     1      25.534   6.434  17.386  0.00  0.00    +0.000 NA
ATOM      2  C   UNL     1      25.227   5.187  17.538  0.00  0.00    +0.000 C 
ATOM      3  N   UNL     1      24.052   4.637  18.127  0.00  0.00    +0.000 NA
ATOM      4  C   UNL     1      24.130   3.355  18.085  0.00  0.00    +0.000 C 
ATOM      5  N   UNL     1      23.150   2.440  18.576  0.00  0.00    +0.000 NA
ATOM      6  C   UNL     1      25.376   2.937  17.458  0.00  0.00    +0.000 A 
ATOM      7  C   UNL     1      25.915   1.700  17.185  0.00  0.00    +0.000 A 
ATOM      8  C   UNL     1      27.143   1.623  16.568  0.00  0.00    +0.000 A 
ATOM      9  C   UNL     1      27.824   2.786  16.227  0.00  0.00    +0.000 A 
ATOM     10  C   UNL     1      27.290   4.026  16.498  0.00  0.00    +0.000 A 
ATOM     11  C   UNL     1      26.062   4.082  17.116  0.00  0.00    +0.000 A 
ENDROOT
BRANCH   1  18
ATOM     12  C   UNL     1      28.285   7.256  13.334  0.00  0.00    +0.000 C 
ATOM     13  C   UNL     1      28.148   7.155  14.815  0.00  0.00    +0.000 A 
ATOM     14  C   UNL     1      29.257   7.374  15.623  0.00  0.00    +0.000 A 
ATOM     15  C   UNL     1      29.118   7.279  16.991  0.00  0.00    +0.000 A 
ATOM     16  C   UNL     1      27.878   6.966  17.557  0.00  0.00    +0.000 A 
ATOM     17  C   UNL     1      27.814   6.883  19.030  0.00  0.00    +0.000 C 
ATOM     18  C   UNL     1      26.770   6.748  16.765  0.00  0.00    +0.000 A 
ATOM     19  C   UNL     1      26.945   6.851  15.401  0.00  0.00    +0.000 A 
ENDBRANCH   1  18
TORSDOF 1
ENDMDL
MODEL 6
REMARK VINA RESULT:      -6.4     19.659     21.723
REMARK  Name = 
REMARK  1 active torsions:
REMARK  status: ('A' for Active; 'I' for Inactive)
REMARK    1  A    between atoms: C_7  and  N_8
REMARK                            x       y       z     vdW  Elec       q    Type
REMARK                         _______ _______ _______ _____ _____    ______ ____
ROOT
ATOM      1  N   UNL     1      29.707  24.470  25.706  0.00  0.00    +0.000 NA
ATOM      2  C   UNL     1      29.295  24.385  24.483  0.00  0.00    +0.000 C 
ATOM      3  N   UNL     1      30.009  24.706  23.292  0.00  0.00    +0.000 NA
ATOM      4  C   UNL     1      29.247  24.482  22.281  0.00  0.00    +0.000 C 
ATOM      5  N   UNL     1      29.595  24.680  20.911  0.00  0.00    +0.000 NA
ATOM      6  C   UNL     1      27.948  23.988  22.716  0.00  0.00    +0.000 A 
ATOM      7  C   UNL     1      26.814  23.613  22.033  0.00  0.00    +0.000 A 
ATOM      8  C   UNL     1      25.716  23.178  22.739  0.00  0.00    +0.000 A 
ATOM      9  C   UNL     1      25.760  23.120  24.126  0.00  0.00    +0.000 A 
ATOM     10  C   UNL     1      26.891  23.495  24.818  0.00  0.00    +0.000 A 
ATOM     11  C   UNL     1      27.978  23.928  24.094  0.00  0.00    +0.000 A 
ENDROOT
BRANCH   1  18
ATOM     12  C   UNL     1      25.891  25.438  28.732  0.00  0.00    +0.000 C 
ATOM     13  C   UNL     1      26.957  24.523  28.236  0.00  0.00    +0.000 A 
ATOM     14  C   UNL     1      27.091  23.258  28.795  0.00  0.00    +0.000 A 
ATOM     15  C   UNL     1      28.081  22.420  28.326  0.00  0.00    +0.000 A 
ATOM     16  C   UNL     1      28.938  22.838  27.304  0.00  0.00    +0.000 A 
ATOM     17  C   UNL     1      29.971  21.881  26.860  0.00  0.00    +0.000 C 
ATOM     18  C   UNL     1      28.813  24.092  26.741  0.00  0.00    +0.000 A 
ATOM     19  C   UNL     1      27.813  24.903  27.232  0.00  0.00    +0.000 A 
ENDBRANCH   1  18
TORSDOF 1
ENDMDL
MODEL 7
REMARK VINA RESULT:      -6.3     20.088     21.944
REMARK  Name = 
REMARK  1 active torsions:
REMARK  status: ('A' for Active; 'I' for Inactive)
REMARK    1  A    between atoms: C_7  and  N_8
REMARK                            x       y       z     vdW  Elec       q    Type
REMARK                         _______ _______ _______ _____ _____    ______ ____
ROOT
ATOM      1  N   UNL     1      30.127  23.479  23.698  0.00  0.00    +0.000 NA
ATOM      2  C   UNL     1      28.840  23.448  23.572  0.00  0.00    +0.000 C 
ATOM      3  N   UNL     1      28.079  23.238  22.386  0.00  0.00    +0.000 NA
ATOM      4  C   UNL     1      26.829  23.279  22.684  0.00  0.00    +0.000 C 
ATOM      5  N   UNL     1      25.745  23.114  21.771  0.00  0.00    +0.000 NA
ATOM      6  C   UNL     1      26.650  23.523  24.108  0.00  0.00    +0.000 A 
ATOM      7  C   UNL     1      25.531  23.651  24.901  0.00  0.00    +0.000 A 
ATOM      8  C   UNL     1      25.685  23.884  26.248  0.00  0.00    +0.000 A 
ATOM      9  C   UNL     1      26.958  23.987  26.795  0.00  0.00    +0.000 A 
ATOM     10  C   UNL     1      28.081  23.861  26.009  0.00  0.00    +0.000 A 
ATOM     11  C   UNL     1      27.907  23.628  24.664  0.00  0.00    +0.000 A 
ENDROOT
BRANCH   1  18
ATOM     12  C   UNL     1      31.574  21.845  28.158  0.00  0.00    +0.000 C 
ATOM     13  C   UNL     1      31.384  22.951  27.177  0.00  0.00    +0.000 A 
ATOM     14  C   UNL     1      31.743  24.247  27.526  0.00  0.00    +0.000 A 
ATOM     15  C   UNL     1      31.564  25.261  26.609  0.00  0.00    +0.000 A 
ATOM     16  C   UNL     1      31.027  24.989  25.347  0.00  0.00    +0.000 A 
ATOM     17  C   UNL     1      30.866  26.131  24.425  0.00  0.00    +0.000 C 
ATOM     18  C   UNL     1      30.667  23.705  24.990  0.00  0.00    +0.000 A 
ATOM     19  C   UNL     1      30.861  22.716  25.930  0.00  0.00    +0.000 A 
ENDBRANCH   1  18
TORSDOF 1
ENDMDL
MODEL 8
REMARK VINA RESULT:      -6.3      2.859      6.278
REMARK  Name = 
REMARK  1 active torsions:
REMARK  status: ('A' for Active; 'I' for Inactive)
REMARK    1  A    between atoms: C_7  and  N_8
REMARK                            x       y       z     vdW  Elec       q    Type
REMARK                         _______ _______ _______ _____ _____    ______ ____
ROOT
ATOM      1  N   UNL     1      19.338   9.432  37.417  0.00  0.00    +0.000 NA
ATOM      2  C   UNL     1      20.372  10.144  37.726  0.00  0.00    +0.000 C 
ATOM      3  N   UNL     1      21.730   9.724  37.826  0.00  0.00    +0.000 NA
ATOM      4  C   UNL     1      22.452  10.735  38.156  0.00  0.00    +0.000 C 
ATOM      5  N   UNL     1      23.865  10.724  38.357  0.00  0.00    +0.000 NA
ATOM      6  C   UNL     1      21.629  11.927  38.305  0.00  0.00    +0.000 A 
ATOM      7  C   UNL     1      21.922  13.229  38.640  0.00  0.00    +0.000 A 
ATOM      8  C   UNL     1      20.905  14.153  38.702  0.00  0.00    +0.000 A 
ATOM      9  C   UNL     1      19.598  13.768  38.427  0.00  0.00    +0.000 A 
ATOM     10  C   UNL     1      19.297  12.467  38.092  0.00  0.00    +0.000 A 
ATOM     11  C   UNL     1      20.328  11.557  38.036  0.00  0.00    +0.000 A 
ENDROOT
BRANCH   1  18
ATOM     12  C   UNL     1      15.821  11.982  35.012  0.00  0.00    +0.000 C 
ATOM     13  C   UNL     1      16.332  11.315  36.243  0.00  0.00    +0.000 A 
ATOM     14  C   UNL     1      15.554  11.312  37.395  0.00  0.00    +0.000 A 
ATOM     15  C   UNL     1      16.038  10.692  38.527  0.00  0.00    +0.000 A 
ATOM     16  C   UNL     1      17.292  10.075  38.517  0.00  0.00    +0.000 A 
ATOM     17  C   UNL     1      17.736   9.434  39.770  0.00  0.00    +0.000 C 
ATOM     18  C   UNL     1      18.072  10.071  37.378  0.00  0.00    +0.000 A 
ATOM     19  C   UNL     1      17.559  10.700  36.265  0.00  0.00    +0.000 A 
ENDBRANCH   1  18
TORSDOF 1
ENDMDL
MODEL 9
REMARK VINA RESULT:      -6.2     20.558     23.056
REMARK  Name = 
REMARK  1 active torsions:
REMARK  status: ('A' for Active; 'I' for Inactive)
REMARK    1  A    between atoms: C_7  and  N_8
REMARK                            x       y       z     vdW  Elec       q    Type
REMARK                         _______ _______ _______ _____ _____    ______ ____
ROOT
ATOM      1  N   UNL     1      17.387  -8.563  27.916  0.00  0.00    +0.000 NA
ATOM      2  C   UNL     1      17.998  -7.574  27.350  0.00  0.00    +0.000 C 
ATOM      3  N   UNL     1      17.592  -6.210  27.289  0.00  0.00    +0.000 NA
ATOM      4  C   UNL     1      18.477  -5.544  26.637  0.00  0.00    +0.000 C 
ATOM      5  N   UNL     1      18.435  -4.145  26.358  0.00  0.00    +0.000 NA
ATOM      6  C   UNL     1      19.559  -6.417  26.203  0.00  0.00    +0.000 A 
ATOM      7  C   UNL     1      20.714  -6.189  25.489  0.00  0.00    +0.000 A 
ATOM      8  C   UNL     1      21.562  -7.241  25.229  0.00  0.00    +0.000 A 
ATOM      9  C   UNL     1      21.249  -8.515  25.686  0.00  0.00    +0.000 A 
ATOM     10  C   UNL     1      20.096  -8.751  26.400  0.00  0.00    +0.000 A 
ATOM     11  C   UNL     1      19.260  -7.686  26.649  0.00  0.00    +0.000 A 
ENDROOT
BRANCH   1  18
ATOM     12  C   UNL     1      18.245 -12.850  25.561  0.00  0.00    +0.000 C 
ATOM     13  C   UNL     1      18.430 -11.952  26.736  0.00  0.00    +0.000 A 
ATOM     14  C   UNL     1      19.210 -12.374  27.805  0.00  0.00    +0.000 A 
ATOM     15  C   UNL     1      19.374 -11.533  28.886  0.00  0.00    +0.000 A 
ATOM     16  C   UNL     1      18.763 -10.276  28.906  0.00  0.00    +0.000 A 
ATOM     17  C   UNL     1      18.989  -9.439  30.101  0.00  0.00    +0.000 C 
ATOM     18  C   UNL     1      17.987  -9.847  27.849  0.00  0.00    +0.000 A 
ATOM     19  C   UNL     1      17.844 -10.711  26.785  0.00  0.00    +0.000 A 
ENDBRANCH   1  18
TORSDOF 1
ENDMDL
MODEL 10
REMARK VINA RESULT:      -6.2     18.346     20.614
REMARK  Name = 
REMARK  1 active torsions:
REMARK  status: ('A' for Active; 'I' for Inactive)
REMARK    1  A    between atoms: C_7  and  N_8
REMARK                            x       y       z     vdW  Elec       q    Type
REMARK                         _______ _______ _______ _____ _____    ______ ____
ROOT
ATOM      1  N   UNL     1      25.927  24.371  26.366  0.00  0.00    +0.000 NA
ATOM      2  C   UNL     1      26.753  23.986  25.448  0.00  0.00    +0.000 C 
ATOM      3  N   UNL     1      26.579  24.034  24.035  0.00  0.00    +0.000 NA
ATOM      4  C   UNL     1      27.633  23.557  23.473  0.00  0.00    +0.000 C 
ATOM      5  N   UNL     1      27.848  23.432  22.068  0.00  0.00    +0.000 NA
ATOM      6  C   UNL     1      28.607  23.147  24.474  0.00  0.00    +0.000 A 
ATOM      7  C   UNL     1      29.863  22.590  24.383  0.00  0.00    +0.000 A 
ATOM      8  C   UNL     1      30.558  22.307  25.536  0.00  0.00    +0.000 A 
ATOM      9  C   UNL     1      29.993  22.584  26.775  0.00  0.00    +0.000 A 
ATOM     10  C   UNL     1      28.737  23.140  26.874  0.00  0.00    +0.000 A 
ATOM     11  C   UNL     1      28.057  23.416  25.710  0.00  0.00    +0.000 A 
ENDROOT
BRANCH   1  18
ATOM     12  C   UNL     1      26.430  21.644  30.485  0.00  0.00    +0.000 C 
ATOM     13  C   UNL     1      26.580  22.932  29.753  0.00  0.00    +0.000 A 
ATOM     14  C   UNL     1      27.118  24.034  30.406  0.00  0.00    +0.000 A 
ATOM     15  C   UNL     1      27.253  25.221  29.717  0.00  0.00    +0.000 A 
ATOM     16  C   UNL     1      26.853  25.315  28.381  0.00  0.00    +0.000 A 
ATOM     17  C   UNL     1      27.030  26.621  27.717  0.00  0.00    +0.000 C 
ATOM     18  C   UNL     1      26.318  24.226  27.722  0.00  0.00    +0.000 A 
ATOM     19  C   UNL     1      26.198  23.056  28.440  0.00  0.00    +0.000 A 
ENDBRANCH   1  18
TORSDOF 1
ENDMDL
