MODEL 1
REMARK VINA RESULT:      -8.2      0.000      0.000
REMARK  Name = 
REMARK  9 active torsions:
REMARK  status: ('A' for Active; 'I' for Inactive)
REMARK    1  A    between atoms: C_2  and  O_3
REMARK    2  A    between atoms: O_3  and  C_4
REMARK    3  A    between atoms: C_7  and  C_8
REMARK    4  A    between atoms: C_8  and  C_9
REMARK    5  A    between atoms: C_9  and  N_10
REMARK    6  A    between atoms: C_11  and  C_13
REMARK    7  A    between atoms: C_14  and  C_15
REMARK    8  A    between atoms: C_23  and  C_24
REMARK    9  A    between atoms: C_27  and  C_28
REMARK                            x       y       z     vdW  Elec       q    Type
REMARK                         _______ _______ _______ _____ _____    ______ ____
ROOT
ATOM      1  C   UNL     1      37.795   3.881  14.988  0.00  0.00    +0.000 C 
ATOM      2  C   UNL     1      38.554   4.861  15.365  0.00  0.00    +0.000 C 
ATOM      3  N   UNL     1      39.346   5.249  14.220  0.00  0.00    +0.000 NA
ATOM      4  O   UNL     1      39.521   4.214  13.444  0.00  0.00    +0.000 OA
ATOM      5  C   UNL     1      38.156   3.568  13.498  0.00  0.00    +0.000 C 
ENDROOT
BRANCH   2   6
ATOM      6  C   UNL     1      38.652   5.566  16.674  0.00  0.00    +0.000 A 
ATOM      7  C   UNL     1      39.211   5.039  17.802  0.00  0.00    +0.000 A 
ATOM      8  C   UNL     1      39.269   5.728  19.008  0.00  0.00    +0.000 A 
ATOM      9  C   UNL     1      38.749   6.996  19.090  0.00  0.00    +0.000 A 
ATOM     10  C   UNL     1      38.181   7.555  17.972  0.00  0.00    +0.000 A 
ATOM     11  C   UNL     1      38.136   6.838  16.774  0.00  0.00    +0.000 A 
ENDBRANCH   2   6
BRANCH   5  12
ATOM     12  C   UNL     1      38.663   2.086  13.556  0.00  0.00    +0.000 A 
ATOM     13  C   UNL     1      39.702   1.777  14.333  0.00  0.00    +0.000 A 
ATOM     14  C   UNL     1      40.187   0.447  14.422  0.00  0.00    +0.000 A 
ATOM     15  C   UNL     1      39.564  -0.525  13.690  0.00  0.00    +0.000 A 
ATOM     16  C   UNL     1      38.497  -0.222  12.889  0.00  0.00    +0.000 A 
ATOM     17  C   UNL     1      38.068   1.092  12.842  0.00  0.00    +0.000 A 
BRANCH  15  18
ATOM     18  C   UNL     1      39.998  -1.954  13.722  0.00  0.00    +0.000 C 
ATOM     19  C   UNL     1      39.122  -2.841  12.887  0.00  0.00    +0.000 C 
ATOM     20  C   UNL     1      40.185  -2.451  15.136  0.00  0.00    +0.000 C 
ENDBRANCH  15  18
ENDBRANCH   5  12
BRANCH   1  22
ATOM     21  N   UNL     1      36.945   2.328  16.862  0.00  0.00    +0.000 NA
ATOM     22  C   UNL     1      36.801   3.199  15.768  0.00  0.00    +0.000 C 
ATOM     23  O   UNL     1      35.611   3.419  15.410  0.00  0.00    +0.000 OA
BRANCH  21  24
ATOM     24  C   UNL     1      35.747   1.751  17.488  0.00  0.00    +0.000 C 
BRANCH  24  25
ATOM     25  C   UNL     1      36.029   0.377  18.027  0.00  0.00    +0.000 C 
BRANCH  25  29
ATOM     26  C   UNL     1      35.200  -2.868  15.384  0.00  0.00    +0.000 A 
ATOM     27  C   UNL     1      36.301  -2.091  15.177  0.00  0.00    +0.000 A 
ATOM     28  C   UNL     1      36.622  -1.019  16.008  0.00  0.00    +0.000 A 
ATOM     29  C   UNL     1      35.833  -0.705  17.074  0.00  0.00    +0.000 A 
ATOM     30  C   UNL     1      34.702  -1.508  17.279  0.00  0.00    +0.000 A 
ATOM     31  C   UNL     1      34.392  -2.563  16.456  0.00  0.00    +0.000 A 
BRANCH  26  32
ATOM     32  O   UNL     1      34.922  -3.933  14.521  0.00  0.00    +0.000 OA
BRANCH  32  34
ATOM     33  C   UNL     1      34.046  -6.187  14.737  0.00  0.00    +0.000 C 
ATOM     34  C   UNL     1      33.748  -4.698  14.618  0.00  0.00    +0.000 C 
ENDBRANCH  32  34
ENDBRANCH  26  32
ENDBRANCH  25  29
ENDBRANCH  24  25
ENDBRANCH  21  24
ENDBRANCH   1  22
TORSDOF 9
ENDMDL
MODEL 2
REMARK VINA RESULT:      -8.2      2.144      2.620
REMARK  Name = 
REMARK  9 active torsions:
REMARK  status: ('A' for Active; 'I' for Inactive)
REMARK    1  A    between atoms: C_2  and  O_3
REMARK    2  A    between atoms: O_3  and  C_4
REMARK    3  A    between atoms: C_7  and  C_8
REMARK    4  A    between atoms: C_8  and  C_9
REMARK    5  A    between atoms: C_9  and  N_10
REMARK    6  A    between atoms: C_11  and  C_13
REMARK    7  A    between atoms: C_14  and  C_15
REMARK    8  A    between atoms: C_23  and  C_24
REMARK    9  A    between atoms: C_27  and  C_28
REMARK                            x       y       z     vdW  Elec       q    Type
REMARK                         _______ _______ _______ _____ _____    ______ ____
ROOT
ATOM      1  C   UNL     1      38.555   4.376  15.490  0.00  0.00    +0.000 C 
ATOM      2  C   UNL     1      39.287   5.322  15.988  0.00  0.00    +0.000 C 
ATOM      3  N   UNL     1      40.216   5.728  14.959  0.00  0.00    +0.000 NA
ATOM      4  O   UNL     1      40.458   4.716  14.170  0.00  0.00    +0.000 OA
ATOM      5  C   UNL     1      39.083   4.105  14.040  0.00  0.00    +0.000 C 
ENDROOT
BRANCH   2   6
ATOM      6  C   UNL     1      39.247   5.978  17.325  0.00  0.00    +0.000 A 
ATOM      7  C   UNL     1      40.079   5.679  18.365  0.00  0.00    +0.000 A 
ATOM      8  C   UNL     1      39.996   6.308  19.602  0.00  0.00    +0.000 A 
ATOM      9  C   UNL     1      39.045   7.277  19.809  0.00  0.00    +0.000 A 
ATOM     10  C   UNL     1      38.193   7.601  18.782  0.00  0.00    +0.000 A 
ATOM     11  C   UNL     1      38.299   6.951  17.550  0.00  0.00    +0.000 A 
ENDBRANCH   2   6
BRANCH   5  12
ATOM     12  C   UNL     1      39.546   2.608  14.102  0.00  0.00    +0.000 A 
ATOM     13  C   UNL     1      40.773   2.283  13.695  0.00  0.00    +0.000 A 
ATOM     14  C   UNL     1      41.236   0.943  13.743  0.00  0.00    +0.000 A 
ATOM     15  C   UNL     1      40.391  -0.021  14.218  0.00  0.00    +0.000 A 
ATOM     16  C   UNL     1      39.129   0.298  14.639  0.00  0.00    +0.000 A 
ATOM     17  C   UNL     1      38.733   1.622  14.569  0.00  0.00    +0.000 A 
BRANCH  15  18
ATOM     18  C   UNL     1      40.788  -1.458  14.311  0.00  0.00    +0.000 C 
ATOM     19  C   UNL     1      40.021  -2.202  15.363  0.00  0.00    +0.000 C 
ATOM     20  C   UNL     1      42.285  -1.619  14.431  0.00  0.00    +0.000 C 
ENDBRANCH  15  18
ENDBRANCH   5  12
BRANCH   1  22
ATOM     21  N   UNL     1      36.179   3.387  15.637  0.00  0.00    +0.000 NA
ATOM     22  C   UNL     1      37.462   3.693  16.122  0.00  0.00    +0.000 C 
ATOM     23  O   UNL     1      37.695   3.311  17.302  0.00  0.00    +0.000 OA
BRANCH  21  24
ATOM     24  C   UNL     1      35.231   2.673  16.504  0.00  0.00    +0.000 C 
BRANCH  24  25
ATOM     25  C   UNL     1      35.027   1.262  16.033  0.00  0.00    +0.000 C 
BRANCH  25  29
ATOM     26  C   UNL     1      37.073  -1.533  18.525  0.00  0.00    +0.000 A 
ATOM     27  C   UNL     1      36.982  -1.763  17.184  0.00  0.00    +0.000 A 
ATOM     28  C   UNL     1      36.327  -0.884  16.322  0.00  0.00    +0.000 A 
ATOM     29  C   UNL     1      35.745   0.252  16.798  0.00  0.00    +0.000 A 
ATOM     30  C   UNL     1      35.843   0.481  18.177  0.00  0.00    +0.000 A 
ATOM     31  C   UNL     1      36.490  -0.389  19.021  0.00  0.00    +0.000 A 
BRANCH  26  32
ATOM     32  O   UNL     1      37.741  -2.445  19.347  0.00  0.00    +0.000 OA
BRANCH  32  34
ATOM     33  C   UNL     1      38.990  -4.454  19.898  0.00  0.00    +0.000 C 
ATOM     34  C   UNL     1      38.609  -3.425  18.840  0.00  0.00    +0.000 C 
ENDBRANCH  32  34
ENDBRANCH  26  32
ENDBRANCH  25  29
ENDBRANCH  24  25
ENDBRANCH  21  24
ENDBRANCH   1  22
TORSDOF 9
ENDMDL
MODEL 3
REMARK VINA RESULT:      -8.2      1.931      5.436
REMARK  Name = 
REMARK  9 active torsions:
REMARK  status: ('A' for Active; 'I' for Inactive)
REMARK    1  A    between atoms: C_2  and  O_3
REMARK    2  A    between atoms: O_3  and  C_4
REMARK    3  A    between atoms: C_7  and  C_8
REMARK    4  A    between atoms: C_8  and  C_9
REMARK    5  A    between atoms: C_9  and  N_10
REMARK    6  A    between atoms: C_11  and  C_13
REMARK    7  A    between atoms: C_14  and  C_15
REMARK    8  A    between atoms: C_23  and  C_24
REMARK    9  A    between atoms: C_27  and  C_28
REMARK                            x       y       z     vdW  Elec       q    Type
REMARK                         _______ _______ _______ _____ _____    ______ ____
ROOT
ATOM      1  C   UNL     1      36.773   1.904  14.983  0.00  0.00    +0.000 C 
ATOM      2  C   UNL     1      35.898   1.645  15.902  0.00  0.00    +0.000 C 
ATOM      3  N   UNL     1      34.987   2.766  15.951  0.00  0.00    +0.000 NA
ATOM      4  O   UNL     1      35.615   3.849  15.577  0.00  0.00    +0.000 OA
ATOM      5  C   UNL     1      36.444   3.330  14.426  0.00  0.00    +0.000 C 
ENDROOT
BRANCH   2   6
ATOM      6  C   UNL     1      35.727   0.446  16.771  0.00  0.00    +0.000 A 
ATOM      7  C   UNL     1      34.973  -0.646  16.452  0.00  0.00    +0.000 A 
ATOM      8  C   UNL     1      34.831  -1.738  17.300  0.00  0.00    +0.000 A 
ATOM      9  C   UNL     1      35.468  -1.740  18.516  0.00  0.00    +0.000 A 
ATOM     10  C   UNL     1      36.235  -0.657  18.867  0.00  0.00    +0.000 A 
ATOM     11  C   UNL     1      36.359   0.428  17.993  0.00  0.00    +0.000 A 
ENDBRANCH   2   6
BRANCH   5  12
ATOM     12  C   UNL     1      37.739   4.150  14.754  0.00  0.00    +0.000 A 
ATOM     13  C   UNL     1      38.476   4.640  13.757  0.00  0.00    +0.000 A 
ATOM     14  C   UNL     1      39.650   5.396  14.009  0.00  0.00    +0.000 A 
ATOM     15  C   UNL     1      40.017   5.615  15.307  0.00  0.00    +0.000 A 
ATOM     16  C   UNL     1      39.270   5.118  16.340  0.00  0.00    +0.000 A 
ATOM     17  C   UNL     1      38.136   4.388  16.034  0.00  0.00    +0.000 A 
BRANCH  15  18
ATOM     18  C   UNL     1      41.233   6.402  15.673  0.00  0.00    +0.000 C 
ATOM     19  C   UNL     1      42.401   6.107  14.780  0.00  0.00    +0.000 C 
ATOM     20  C   UNL     1      41.555   6.282  17.144  0.00  0.00    +0.000 C 
ENDBRANCH  15  18
ENDBRANCH   5  12
BRANCH   1  22
ATOM     21  N   UNL     1      38.969   0.577  15.237  0.00  0.00    +0.000 NA
ATOM     22  C   UNL     1      37.848   1.062  14.540  0.00  0.00    +0.000 C 
ATOM     23  O   UNL     1      37.769   0.703  13.333  0.00  0.00    +0.000 OA
BRANCH  21  24
ATOM     24  C   UNL     1      39.938  -0.279  14.537  0.00  0.00    +0.000 C 
BRANCH  24  25
ATOM     25  C   UNL     1      40.141  -1.574  15.270  0.00  0.00    +0.000 C 
BRANCH  25  29
ATOM     26  C   UNL     1      36.792  -4.188  15.662  0.00  0.00    +0.000 A 
ATOM     27  C   UNL     1      37.011  -3.542  14.481  0.00  0.00    +0.000 A 
ATOM     28  C   UNL     1      38.089  -2.678  14.296  0.00  0.00    +0.000 A 
ATOM     29  C   UNL     1      38.975  -2.445  15.305  0.00  0.00    +0.000 A 
ATOM     30  C   UNL     1      38.741  -3.112  16.515  0.00  0.00    +0.000 A 
ATOM     31  C   UNL     1      37.678  -3.963  16.692  0.00  0.00    +0.000 A 
BRANCH  26  32
ATOM     32  O   UNL     1      35.695  -5.046  15.798  0.00  0.00    +0.000 OA
BRANCH  32  34
ATOM     33  C   UNL     1      33.508  -4.390  14.973  0.00  0.00    +0.000 C 
ATOM     34  C   UNL     1      34.756  -5.240  14.772  0.00  0.00    +0.000 C 
ENDBRANCH  32  34
ENDBRANCH  26  32
ENDBRANCH  25  29
ENDBRANCH  24  25
ENDBRANCH  21  24
ENDBRANCH   1  22
TORSDOF 9
ENDMDL
MODEL 4
REMARK VINA RESULT:      -7.8      2.428      7.000
REMARK  Name = 
REMARK  9 active torsions:
REMARK  status: ('A' for Active; 'I' for Inactive)
REMARK    1  A    between atoms: C_2  and  O_3
REMARK    2  A    between atoms: O_3  and  C_4
REMARK    3  A    between atoms: C_7  and  C_8
REMARK    4  A    between atoms: C_8  and  C_9
REMARK    5  A    between atoms: C_9  and  N_10
REMARK    6  A    between atoms: C_11  and  C_13
REMARK    7  A    between atoms: C_14  and  C_15
REMARK    8  A    between atoms: C_23  and  C_24
REMARK    9  A    between atoms: C_27  and  C_28
REMARK                            x       y       z     vdW  Elec       q    Type
REMARK                         _______ _______ _______ _____ _____    ______ ____
ROOT
ATOM      1  C   UNL     1      36.830   2.089  15.044  0.00  0.00    +0.000 C 
ATOM      2  C   UNL     1      35.846   1.461  15.605  0.00  0.00    +0.000 C 
ATOM      3  N   UNL     1      34.837   2.446  15.920  0.00  0.00    +0.000 NA
ATOM      4  O   UNL     1      35.409   3.601  16.126  0.00  0.00    +0.000 OA
ATOM      5  C   UNL     1      36.459   3.610  15.040  0.00  0.00    +0.000 C 
ENDROOT
BRANCH   2   6
ATOM      6  C   UNL     1      35.654   0.010  15.885  0.00  0.00    +0.000 A 
ATOM      7  C   UNL     1      36.186  -1.004  15.141  0.00  0.00    +0.000 A 
ATOM      8  C   UNL     1      35.969  -2.346  15.431  0.00  0.00    +0.000 A 
ATOM      9  C   UNL     1      35.190  -2.690  16.508  0.00  0.00    +0.000 A 
ATOM     10  C   UNL     1      34.640  -1.694  17.276  0.00  0.00    +0.000 A 
ATOM     11  C   UNL     1      34.876  -0.353  16.960  0.00  0.00    +0.000 A 
ENDBRANCH   2   6
BRANCH   5  12
ATOM     12  C   UNL     1      37.599   4.258  15.900  0.00  0.00    +0.000 A 
ATOM     13  C   UNL     1      38.531   5.001  15.301  0.00  0.00    +0.000 A 
ATOM     14  C   UNL     1      39.575   5.613  16.042  0.00  0.00    +0.000 A 
ATOM     15  C   UNL     1      39.609   5.426  17.396  0.00  0.00    +0.000 A 
ATOM     16  C   UNL     1      38.659   4.667  18.023  0.00  0.00    +0.000 A 
ATOM     17  C   UNL     1      37.665   4.094  17.249  0.00  0.00    +0.000 A 
BRANCH  15  18
ATOM     18  C   UNL     1      40.665   6.033  18.262  0.00  0.00    +0.000 C 
ATOM     19  C   UNL     1      40.180   6.308  19.654  0.00  0.00    +0.000 C 
ATOM     20  C   UNL     1      41.311   7.227  17.602  0.00  0.00    +0.000 C 
ENDBRANCH  15  18
ENDBRANCH   5  12
BRANCH   1  22
ATOM     21  N   UNL     1      39.202   1.087  15.172  0.00  0.00    +0.000 NA
ATOM     22  C   UNL     1      38.038   1.522  14.514  0.00  0.00    +0.000 C 
ATOM     23  O   UNL     1      38.053   1.398  13.259  0.00  0.00    +0.000 OA
BRANCH  21  24
ATOM     24  C   UNL     1      40.316   0.542  14.383  0.00  0.00    +0.000 C 
BRANCH  24  25
ATOM     25  C   UNL     1      40.472  -0.933  14.619  0.00  0.00    +0.000 C 
BRANCH  25  29
ATOM     26  C   UNL     1      40.871  -3.060  10.942  0.00  0.00    +0.000 A 
ATOM     27  C   UNL     1      41.507  -3.514  12.059  0.00  0.00    +0.000 A 
ATOM     28  C   UNL     1      41.412  -2.861  13.287  0.00  0.00    +0.000 A 
ATOM     29  C   UNL     1      40.668  -1.727  13.415  0.00  0.00    +0.000 A 
ATOM     30  C   UNL     1      40.018  -1.266  12.262  0.00  0.00    +0.000 A 
ATOM     31  C   UNL     1      40.115  -1.914  11.055  0.00  0.00    +0.000 A 
BRANCH  26  32
ATOM     32  O   UNL     1      40.998  -3.752   9.734  0.00  0.00    +0.000 OA
BRANCH  32  34
ATOM     33  C   UNL     1      42.030  -5.871   9.149  0.00  0.00    +0.000 C 
ATOM     34  C   UNL     1      42.196  -4.368   9.338  0.00  0.00    +0.000 C 
ENDBRANCH  32  34
ENDBRANCH  26  32
ENDBRANCH  25  29
ENDBRANCH  24  25
ENDBRANCH  21  24
ENDBRANCH   1  22
TORSDOF 9
ENDMDL
MODEL 5
REMARK VINA RESULT:      -7.8      2.191      6.200
REMARK  Name = 
REMARK  9 active torsions:
REMARK  status: ('A' for Active; 'I' for Inactive)
REMARK    1  A    between atoms: C_2  and  O_3
REMARK    2  A    between atoms: O_3  and  C_4
REMARK    3  A    between atoms: C_7  and  C_8
REMARK    4  A    between atoms: C_8  and  C_9
REMARK    5  A    between atoms: C_9  and  N_10
REMARK    6  A    between atoms: C_11  and  C_13
REMARK    7  A    between atoms: C_14  and  C_15
REMARK    8  A    between atoms: C_23  and  C_24
REMARK    9  A    between atoms: C_27  and  C_28
REMARK                            x       y       z     vdW  Elec       q    Type
REMARK                         _______ _______ _______ _____ _____    ______ ____
ROOT
ATOM      1  C   UNL     1      36.565   1.954  15.195  0.00  0.00    +0.000 C 
ATOM      2  C   UNL     1      35.734   1.401  16.020  0.00  0.00    +0.000 C 
ATOM      3  N   UNL     1      34.736   2.393  16.350  0.00  0.00    +0.000 NA
ATOM      4  O   UNL     1      35.264   3.584  16.259  0.00  0.00    +0.000 OA
ATOM      5  C   UNL     1      36.107   3.441  15.013  0.00  0.00    +0.000 C 
ENDROOT
BRANCH   2   6
ATOM      6  C   UNL     1      35.682   0.013  16.561  0.00  0.00    +0.000 A 
ATOM      7  C   UNL     1      35.084  -1.044  15.937  0.00  0.00    +0.000 A 
ATOM      8  C   UNL     1      35.047  -2.321  16.485  0.00  0.00    +0.000 A 
ATOM      9  C   UNL     1      35.632  -2.553  17.706  0.00  0.00    +0.000 A 
ATOM     10  C   UNL     1      36.242  -1.510  18.359  0.00  0.00    +0.000 A 
ATOM     11  C   UNL     1      36.263  -0.237  17.783  0.00  0.00    +0.000 A 
ENDBRANCH   2   6
BRANCH   5  12
ATOM     12  C   UNL     1      37.337   4.260  15.535  0.00  0.00    +0.000 A 
ATOM     13  C   UNL     1      37.980   5.080  14.703  0.00  0.00    +0.000 A 
ATOM     14  C   UNL     1      39.092   5.847  15.136  0.00  0.00    +0.000 A 
ATOM     15  C   UNL     1      39.499   5.729  16.435  0.00  0.00    +0.000 A 
ATOM     16  C   UNL     1      38.849   4.892  17.300  0.00  0.00    +0.000 A 
ATOM     17  C   UNL     1      37.770   4.169  16.821  0.00  0.00    +0.000 A 
BRANCH  15  18
ATOM     18  C   UNL     1      40.656   6.498  16.986  0.00  0.00    +0.000 C 
ATOM     19  C   UNL     1      41.916   6.285  16.200  0.00  0.00    +0.000 C 
ATOM     20  C   UNL     1      40.825   6.269  18.469  0.00  0.00    +0.000 C 
ENDBRANCH  15  18
ENDBRANCH   5  12
BRANCH   1  22
ATOM     21  N   UNL     1      37.843   0.862  13.241  0.00  0.00    +0.000 NA
ATOM     22  C   UNL     1      37.694   1.344  14.553  0.00  0.00    +0.000 C 
ATOM     23  O   UNL     1      38.712   1.222  15.288  0.00  0.00    +0.000 OA
BRANCH  21  24
ATOM     24  C   UNL     1      39.123   0.268  12.831  0.00  0.00    +0.000 C 
BRANCH  24  25
ATOM     25  C   UNL     1      39.001  -1.221  12.676  0.00  0.00    +0.000 C 
BRANCH  25  29
ATOM     26  C   UNL     1      39.051  -3.551  16.250  0.00  0.00    +0.000 A 
ATOM     27  C   UNL     1      40.113  -2.750  15.950  0.00  0.00    +0.000 A 
ATOM     28  C   UNL     1      40.151  -1.967  14.797  0.00  0.00    +0.000 A 
ATOM     29  C   UNL     1      39.111  -1.975  13.917  0.00  0.00    +0.000 A 
ATOM     30  C   UNL     1      38.024  -2.802  14.233  0.00  0.00    +0.000 A 
ATOM     31  C   UNL     1      37.993  -3.571  15.370  0.00  0.00    +0.000 A 
BRANCH  26  32
ATOM     32  O   UNL     1      39.062  -4.318  17.420  0.00  0.00    +0.000 OA
BRANCH  32  34
ATOM     33  C   UNL     1      39.076  -4.776  19.805  0.00  0.00    +0.000 C 
ATOM     34  C   UNL     1      38.854  -3.760  18.691  0.00  0.00    +0.000 C 
ENDBRANCH  32  34
ENDBRANCH  26  32
ENDBRANCH  25  29
ENDBRANCH  24  25
ENDBRANCH  21  24
ENDBRANCH   1  22
TORSDOF 9
ENDMDL
MODEL 6
REMARK VINA RESULT:      -7.7      2.709      7.700
REMARK  Name = 
REMARK  9 active torsions:
REMARK  status: ('A' for Active; 'I' for Inactive)
REMARK    1  A    between atoms: C_2  and  O_3
REMARK    2  A    between atoms: O_3  and  C_4
REMARK    3  A    between atoms: C_7  and  C_8
REMARK    4  A    between atoms: C_8  and  C_9
REMARK    5  A    between atoms: C_9  and  N_10
REMARK    6  A    between atoms: C_11  and  C_13
REMARK    7  A    between atoms: C_14  and  C_15
REMARK    8  A    between atoms: C_23  and  C_24
REMARK    9  A    between atoms: C_27  and  C_28
REMARK                            x       y       z     vdW  Elec       q    Type
REMARK                         _______ _______ _______ _____ _____    ______ ____
ROOT
ATOM      1  C   UNL     1      39.346  -0.994  15.112  0.00  0.00    +0.000 C 
ATOM      2  C   UNL     1      38.598  -1.787  15.813  0.00  0.00    +0.000 C 
ATOM      3  N   UNL     1      39.406  -2.930  16.171  0.00  0.00    +0.000 NA
ATOM      4  O   UNL     1      40.318  -3.119  15.255  0.00  0.00    +0.000 OA
ATOM      5  C   UNL     1      40.735  -1.698  14.953  0.00  0.00    +0.000 C 
ENDROOT
BRANCH   2   6
ATOM      6  C   UNL     1      37.185  -1.641  16.265  0.00  0.00    +0.000 A 
ATOM      7  C   UNL     1      36.682  -0.546  16.906  0.00  0.00    +0.000 A 
ATOM      8  C   UNL     1      35.360  -0.458  17.324  0.00  0.00    +0.000 A 
ATOM      9  C   UNL     1      34.503  -1.506  17.092  0.00  0.00    +0.000 A 
ATOM     10  C   UNL     1      34.978  -2.622  16.448  0.00  0.00    +0.000 A 
ATOM     11  C   UNL     1      36.314  -2.682  16.040  0.00  0.00    +0.000 A 
ENDBRANCH   2   6
BRANCH   5  12
ATOM     12  C   UNL     1      40.870  -1.877  13.402  0.00  0.00    +0.000 A 
ATOM     13  C   UNL     1      41.818  -1.209  12.744  0.00  0.00    +0.000 A 
ATOM     14  C   UNL     1      41.980  -1.349  11.341  0.00  0.00    +0.000 A 
ATOM     15  C   UNL     1      41.139  -2.190  10.668  0.00  0.00    +0.000 A 
ATOM     16  C   UNL     1      40.162  -2.881  11.331  0.00  0.00    +0.000 A 
ATOM     17  C   UNL     1      40.051  -2.705  12.698  0.00  0.00    +0.000 A 
BRANCH  15  18
ATOM     18  C   UNL     1      41.234  -2.406   9.193  0.00  0.00    +0.000 C 
ATOM     19  C   UNL     1      40.405  -1.430   8.412  0.00  0.00    +0.000 C 
ATOM     20  C   UNL     1      40.977  -3.847   8.821  0.00  0.00    +0.000 C 
ENDBRANCH  15  18
ENDBRANCH   5  12
BRANCH   1  22
ATOM     21  N   UNL     1      39.413   1.578  14.952  0.00  0.00    +0.000 NA
ATOM     22  C   UNL     1      38.993   0.290  14.576  0.00  0.00    +0.000 C 
ATOM     23  O   UNL     1      38.176   0.251  13.615  0.00  0.00    +0.000 OA
BRANCH  21  24
ATOM     24  C   UNL     1      38.889   2.747  14.232  0.00  0.00    +0.000 C 
BRANCH  24  25
ATOM     25  C   UNL     1      37.926   3.519  15.087  0.00  0.00    +0.000 C 
BRANCH  25  29
ATOM     26  C   UNL     1      39.916   5.986  17.943  0.00  0.00    +0.000 A 
ATOM     27  C   UNL     1      38.918   5.150  18.349  0.00  0.00    +0.000 A 
ATOM     28  C   UNL     1      38.235   4.321  17.461  0.00  0.00    +0.000 A 
ATOM     29  C   UNL     1      38.544   4.318  16.134  0.00  0.00    +0.000 A 
ATOM     30  C   UNL     1      39.571   5.181  15.725  0.00  0.00    +0.000 A 
ATOM     31  C   UNL     1      40.241   5.995  16.605  0.00  0.00    +0.000 A 
BRANCH  26  32
ATOM     32  O   UNL     1      40.572   6.797  18.874  0.00  0.00    +0.000 OA
BRANCH  32  34
ATOM     33  C   UNL     1      39.184   7.889  20.540  0.00  0.00    +0.000 C 
ATOM     34  C   UNL     1      40.225   6.820  20.234  0.00  0.00    +0.000 C 
ENDBRANCH  32  34
ENDBRANCH  26  32
ENDBRANCH  25  29
ENDBRANCH  24  25
ENDBRANCH  21  24
ENDBRANCH   1  22
TORSDOF 9
ENDMDL
MODEL 7
REMARK VINA RESULT:      -7.6      3.029      7.624
REMARK  Name = 
REMARK  9 active torsions:
REMARK  status: ('A' for Active; 'I' for Inactive)
REMARK    1  A    between atoms: C_2  and  O_3
REMARK    2  A    between atoms: O_3  and  C_4
REMARK    3  A    between atoms: C_7  and  C_8
REMARK    4  A    between atoms: C_8  and  C_9
REMARK    5  A    between atoms: C_9  and  N_10
REMARK    6  A    between atoms: C_11  and  C_13
REMARK    7  A    between atoms: C_14  and  C_15
REMARK    8  A    between atoms: C_23  and  C_24
REMARK    9  A    between atoms: C_27  and  C_28
REMARK                            x       y       z     vdW  Elec       q    Type
REMARK                         _______ _______ _______ _____ _____    ______ ____
ROOT
ATOM      1  C   UNL     1      36.825   2.042  15.017  0.00  0.00    +0.000 C 
ATOM      2  C   UNL     1      35.856   1.396  15.587  0.00  0.00    +0.000 C 
ATOM      3  N   UNL     1      34.829   2.362  15.904  0.00  0.00    +0.000 NA
ATOM      4  O   UNL     1      35.380   3.530  16.103  0.00  0.00    +0.000 OA
ATOM      5  C   UNL     1      36.424   3.555  15.011  0.00  0.00    +0.000 C 
ENDROOT
BRANCH   2   6
ATOM      6  C   UNL     1      35.694  -0.057  15.872  0.00  0.00    +0.000 A 
ATOM      7  C   UNL     1      36.239  -1.063  15.127  0.00  0.00    +0.000 A 
ATOM      8  C   UNL     1      36.049  -2.408  15.422  0.00  0.00    +0.000 A 
ATOM      9  C   UNL     1      35.286  -2.764  16.506  0.00  0.00    +0.000 A 
ATOM     10  C   UNL     1      34.724  -1.776  17.276  0.00  0.00    +0.000 A 
ATOM     11  C   UNL     1      34.931  -0.431  16.955  0.00  0.00    +0.000 A 
ENDBRANCH   2   6
BRANCH   5  12
ATOM     12  C   UNL     1      37.556   4.228  15.862  0.00  0.00    +0.000 A 
ATOM     13  C   UNL     1      38.471   4.985  15.256  0.00  0.00    +0.000 A 
ATOM     14  C   UNL     1      39.507   5.620  15.989  0.00  0.00    +0.000 A 
ATOM     15  C   UNL     1      39.551   5.440  17.343  0.00  0.00    +0.000 A 
ATOM     16  C   UNL     1      38.619   4.665  17.978  0.00  0.00    +0.000 A 
ATOM     17  C   UNL     1      37.632   4.071  17.211  0.00  0.00    +0.000 A 
BRANCH  15  18
ATOM     18  C   UNL     1      40.600   6.070  18.201  0.00  0.00    +0.000 C 
ATOM     19  C   UNL     1      40.144   6.267  19.616  0.00  0.00    +0.000 C 
ATOM     20  C   UNL     1      41.162   7.321  17.569  0.00  0.00    +0.000 C 
ENDBRANCH  15  18
ENDBRANCH   5  12
BRANCH   1  22
ATOM     21  N   UNL     1      39.199   1.044  15.139  0.00  0.00    +0.000 NA
ATOM     22  C   UNL     1      38.040   1.497  14.483  0.00  0.00    +0.000 C 
ATOM     23  O   UNL     1      38.069   1.414  13.224  0.00  0.00    +0.000 OA
BRANCH  21  24
ATOM     24  C   UNL     1      40.323   0.529  14.345  0.00  0.00    +0.000 C 
BRANCH  24  25
ATOM     25  C   UNL     1      40.477  -0.954  14.528  0.00  0.00    +0.000 C 
BRANCH  25  29
ATOM     26  C   UNL     1      44.120  -2.717  13.178  0.00  0.00    +0.000 A 
ATOM     27  C   UNL     1      44.159  -1.664  14.043  0.00  0.00    +0.000 A 
ATOM     28  C   UNL     1      43.001  -1.049  14.517  0.00  0.00    +0.000 A 
ATOM     29  C   UNL     1      41.771  -1.487  14.127  0.00  0.00    +0.000 A 
ATOM     30  C   UNL     1      41.741  -2.570  13.237  0.00  0.00    +0.000 A 
ATOM     31  C   UNL     1      42.885  -3.172  12.773  0.00  0.00    +0.000 A 
BRANCH  26  32
ATOM     32  O   UNL     1      45.311  -3.300  12.731  0.00  0.00    +0.000 OA
BRANCH  32  34
ATOM     33  C   UNL     1      47.091  -4.821  13.374  0.00  0.00    +0.000 C 
ATOM     34  C   UNL     1      46.432  -3.460  13.561  0.00  0.00    +0.000 C 
ENDBRANCH  32  34
ENDBRANCH  26  32
ENDBRANCH  25  29
ENDBRANCH  24  25
ENDBRANCH  21  24
ENDBRANCH   1  22
TORSDOF 9
ENDMDL
MODEL 8
REMARK VINA RESULT:      -7.6      2.957      8.084
REMARK  Name = 
REMARK  9 active torsions:
REMARK  status: ('A' for Active; 'I' for Inactive)
REMARK    1  A    between atoms: C_2  and  O_3
REMARK    2  A    between atoms: O_3  and  C_4
REMARK    3  A    between atoms: C_7  and  C_8
REMARK    4  A    between atoms: C_8  and  C_9
REMARK    5  A    between atoms: C_9  and  N_10
REMARK    6  A    between atoms: C_11  and  C_13
REMARK    7  A    between atoms: C_14  and  C_15
REMARK    8  A    between atoms: C_23  and  C_24
REMARK    9  A    between atoms: C_27  and  C_28
REMARK                            x       y       z     vdW  Elec       q    Type
REMARK                         _______ _______ _______ _____ _____    ______ ____
ROOT
ATOM      1  C   UNL     1      40.054  -0.445  13.389  0.00  0.00    +0.000 C 
ATOM      2  C   UNL     1      41.181  -1.082  13.437  0.00  0.00    +0.000 C 
ATOM      3  N   UNL     1      40.895  -2.473  13.171  0.00  0.00    +0.000 NA
ATOM      4  O   UNL     1      39.682  -2.749  13.568  0.00  0.00    +0.000 OA
ATOM      5  C   UNL     1      38.937  -1.510  13.127  0.00  0.00    +0.000 C 
ENDROOT
BRANCH   2   6
ATOM      6  C   UNL     1      42.568  -0.586  13.664  0.00  0.00    +0.000 A 
ATOM      7  C   UNL     1      43.238   0.261  12.829  0.00  0.00    +0.000 A 
ATOM      8  C   UNL     1      44.538   0.687  13.073  0.00  0.00    +0.000 A 
ATOM      9  C   UNL     1      45.196   0.253  14.197  0.00  0.00    +0.000 A 
ATOM     10  C   UNL     1      44.548  -0.599  15.058  0.00  0.00    +0.000 A 
ATOM     11  C   UNL     1      43.241  -1.012  14.786  0.00  0.00    +0.000 A 
ENDBRANCH   2   6
BRANCH   5  12
ATOM     12  C   UNL     1      38.024  -1.391  14.395  0.00  0.00    +0.000 A 
ATOM     13  C   UNL     1      36.816  -0.836  14.285  0.00  0.00    +0.000 A 
ATOM     14  C   UNL     1      35.954  -0.716  15.405  0.00  0.00    +0.000 A 
ATOM     15  C   UNL     1      36.387  -1.184  16.614  0.00  0.00    +0.000 A 
ATOM     16  C   UNL     1      37.624  -1.755  16.742  0.00  0.00    +0.000 A 
ATOM     17  C   UNL     1      38.421  -1.845  15.615  0.00  0.00    +0.000 A 
BRANCH  15  18
ATOM     18  C   UNL     1      35.551  -1.106  17.850  0.00  0.00    +0.000 C 
ATOM     19  C   UNL     1      34.095  -1.337  17.575  0.00  0.00    +0.000 C 
ATOM     20  C   UNL     1      35.824   0.157  18.632  0.00  0.00    +0.000 C 
ENDBRANCH  15  18
ENDBRANCH   5  12
BRANCH   1  22
ATOM     21  N   UNL     1      39.687   1.743  14.703  0.00  0.00    +0.000 NA
ATOM     22  C   UNL     1      39.843   0.967  13.541  0.00  0.00    +0.000 C 
ATOM     23  O   UNL     1      39.788   1.609  12.456  0.00  0.00    +0.000 OA
BRANCH  21  24
ATOM     24  C   UNL     1      39.475   3.192  14.580  0.00  0.00    +0.000 C 
BRANCH  24  25
ATOM     25  C   UNL     1      38.536   3.691  15.640  0.00  0.00    +0.000 C 
BRANCH  25  29
ATOM     26  C   UNL     1      40.018   6.507  18.482  0.00  0.00    +0.000 A 
ATOM     27  C   UNL     1      40.477   6.536  17.198  0.00  0.00    +0.000 A 
ATOM     28  C   UNL     1      40.027   5.642  16.228  0.00  0.00    +0.000 A 
ATOM     29  C   UNL     1      39.100   4.692  16.534  0.00  0.00    +0.000 A 
ATOM     30  C   UNL     1      38.634   4.669  17.856  0.00  0.00    +0.000 A 
ATOM     31  C   UNL     1      39.080   5.553  18.807  0.00  0.00    +0.000 A 
BRANCH  26  32
ATOM     32  O   UNL     1      40.500   7.427  19.418  0.00  0.00    +0.000 OA
BRANCH  32  34
ATOM     33  C   UNL     1      42.341   6.277  20.506  0.00  0.00    +0.000 C 
ATOM     34  C   UNL     1      41.859   7.515  19.761  0.00  0.00    +0.000 C 
ENDBRANCH  32  34
ENDBRANCH  26  32
ENDBRANCH  25  29
ENDBRANCH  24  25
ENDBRANCH  21  24
ENDBRANCH   1  22
TORSDOF 9
ENDMDL
MODEL 9
REMARK VINA RESULT:      -7.5      3.328      5.973
REMARK  Name = 
REMARK  9 active torsions:
REMARK  status: ('A' for Active; 'I' for Inactive)
REMARK    1  A    between atoms: C_2  and  O_3
REMARK    2  A    between atoms: O_3  and  C_4
REMARK    3  A    between atoms: C_7  and  C_8
REMARK    4  A    between atoms: C_8  and  C_9
REMARK    5  A    between atoms: C_9  and  N_10
REMARK    6  A    between atoms: C_11  and  C_13
REMARK    7  A    between atoms: C_14  and  C_15
REMARK    8  A    between atoms: C_23  and  C_24
REMARK    9  A    between atoms: C_27  and  C_28
REMARK                            x       y       z     vdW  Elec       q    Type
REMARK                         _______ _______ _______ _____ _____    ______ ____
ROOT
ATOM      1  C   UNL     1      38.347   2.030  13.010  0.00  0.00    +0.000 C 
ATOM      2  C   UNL     1      39.271   1.125  13.082  0.00  0.00    +0.000 C 
ATOM      3  N   UNL     1      40.454   1.673  12.457  0.00  0.00    +0.000 NA
ATOM      4  O   UNL     1      40.099   2.535  11.542  0.00  0.00    +0.000 OA
ATOM      5  C   UNL     1      38.955   3.244  12.229  0.00  0.00    +0.000 C 
ENDROOT
BRANCH   2   6
ATOM      6  C   UNL     1      39.257  -0.230  13.700  0.00  0.00    +0.000 A 
ATOM      7  C   UNL     1      39.671  -0.511  14.971  0.00  0.00    +0.000 A 
ATOM      8  C   UNL     1      39.654  -1.795  15.503  0.00  0.00    +0.000 A 
ATOM      9  C   UNL     1      39.203  -2.841  14.737  0.00  0.00    +0.000 A 
ATOM     10  C   UNL     1      38.779  -2.592  13.455  0.00  0.00    +0.000 A 
ATOM     11  C   UNL     1      38.809  -1.291  12.946  0.00  0.00    +0.000 A 
ENDBRANCH   2   6
BRANCH   5  12
ATOM     12  C   UNL     1      38.032   3.355  10.967  0.00  0.00    +0.000 A 
ATOM     13  C   UNL     1      38.046   2.383  10.055  0.00  0.00    +0.000 A 
ATOM     14  C   UNL     1      37.220   2.439   8.902  0.00  0.00    +0.000 A 
ATOM     15  C   UNL     1      36.400   3.521   8.741  0.00  0.00    +0.000 A 
ATOM     16  C   UNL     1      36.375   4.526   9.669  0.00  0.00    +0.000 A 
ATOM     17  C   UNL     1      37.203   4.417  10.772  0.00  0.00    +0.000 A 
BRANCH  15  18
ATOM     18  C   UNL     1      35.491   3.668   7.564  0.00  0.00    +0.000 C 
ATOM     19  C   UNL     1      35.934   2.850   6.388  0.00  0.00    +0.000 C 
ATOM     20  C   UNL     1      35.242   5.120   7.229  0.00  0.00    +0.000 C 
ENDBRANCH  15  18
ENDBRANCH   5  12
BRANCH   1  22
ATOM     21  N   UNL     1      36.434   2.629  14.630  0.00  0.00    +0.000 NA
ATOM     22  C   UNL     1      37.015   1.960  13.539  0.00  0.00    +0.000 C 
ATOM     23  O   UNL     1      36.247   1.169  12.924  0.00  0.00    +0.000 OA
BRANCH  21  24
ATOM     24  C   UNL     1      35.028   2.370  14.970  0.00  0.00    +0.000 C 
BRANCH  24  25
ATOM     25  C   UNL     1      34.882   2.010  16.421  0.00  0.00    +0.000 C 
BRANCH  25  29
ATOM     26  C   UNL     1      36.662  -1.618  17.791  0.00  0.00    +0.000 A 
ATOM     27  C   UNL     1      36.152  -1.549  16.527  0.00  0.00    +0.000 A 
ATOM     28  C   UNL     1      35.560  -0.390  16.027  0.00  0.00    +0.000 A 
ATOM     29  C   UNL     1      35.469   0.731  16.795  0.00  0.00    +0.000 A 
ATOM     30  C   UNL     1      35.995   0.652  18.092  0.00  0.00    +0.000 A 
ATOM     31  C   UNL     1      36.577  -0.493  18.580  0.00  0.00    +0.000 A 
BRANCH  26  32
ATOM     32  O   UNL     1      37.246  -2.804  18.246  0.00  0.00    +0.000 OA
BRANCH  32  34
ATOM     33  C   UNL     1      38.739  -3.809  19.876  0.00  0.00    +0.000 C 
ATOM     34  C   UNL     1      38.577  -2.870  18.688  0.00  0.00    +0.000 C 
ENDBRANCH  32  34
ENDBRANCH  26  32
ENDBRANCH  25  29
ENDBRANCH  24  25
ENDBRANCH  21  24
ENDBRANCH   1  22
TORSDOF 9
ENDMDL
MODEL 10
REMARK VINA RESULT:      -7.4      2.633      6.712
REMARK  Name = 
REMARK  9 active torsions:
REMARK  status: ('A' for Active; 'I' for Inactive)
REMARK    1  A    between atoms: C_2  and  O_3
REMARK    2  A    between atoms: O_3  and  C_4
REMARK    3  A    between atoms: C_7  and  C_8
REMARK    4  A    between atoms: C_8  and  C_9
REMARK    5  A    between atoms: C_9  and  N_10
REMARK    6  A    between atoms: C_11  and  C_13
REMARK    7  A    between atoms: C_14  and  C_15
REMARK    8  A    between atoms: C_23  and  C_24
REMARK    9  A    between atoms: C_27  and  C_28
REMARK                            x       y       z     vdW  Elec       q    Type
REMARK                         _______ _______ _______ _____ _____    ______ ____
ROOT
ATOM      1  C   UNL     1      36.855  -0.585  16.649  0.00  0.00    +0.000 C 
ATOM      2  C   UNL     1      36.132   0.470  16.860  0.00  0.00    +0.000 C 
ATOM      3  N   UNL     1      35.341   0.215  18.042  0.00  0.00    +0.000 NA
ATOM      4  O   UNL     1      35.122  -1.068  18.147  0.00  0.00    +0.000 OA
ATOM      5  C   UNL     1      36.465  -1.633  17.746  0.00  0.00    +0.000 C 
ENDROOT
BRANCH   2   6
ATOM      6  C   UNL     1      36.073   1.767  16.130  0.00  0.00    +0.000 A 
ATOM      7  C   UNL     1      35.181   2.064  15.140  0.00  0.00    +0.000 A 
ATOM      8  C   UNL     1      35.170   3.284  14.475  0.00  0.00    +0.000 A 
ATOM      9  C   UNL     1      36.087   4.249  14.812  0.00  0.00    +0.000 A 
ATOM     10  C   UNL     1      36.998   3.982  15.804  0.00  0.00    +0.000 A 
ATOM     11  C   UNL     1      36.985   2.745  16.455  0.00  0.00    +0.000 A 
ENDBRANCH   2   6
BRANCH   5  12
ATOM     12  C   UNL     1      35.910  -2.837  16.910  0.00  0.00    +0.000 A 
ATOM     13  C   UNL     1      36.614  -3.967  16.840  0.00  0.00    +0.000 A 
ATOM     14  C   UNL     1      36.145  -5.084  16.102  0.00  0.00    +0.000 A 
ATOM     15  C   UNL     1      34.945  -4.980  15.455  0.00  0.00    +0.000 A 
ATOM     16  C   UNL     1      34.213  -3.826  15.518  0.00  0.00    +0.000 A 
ATOM     17  C   UNL     1      34.721  -2.770  16.253  0.00  0.00    +0.000 A 
BRANCH  15  18
ATOM     18  C   UNL     1      34.365  -6.102  14.657  0.00  0.00    +0.000 C 
ATOM     19  C   UNL     1      33.574  -5.622  13.477  0.00  0.00    +0.000 C 
ATOM     20  C   UNL     1      33.613  -7.079  15.529  0.00  0.00    +0.000 C 
ENDBRANCH  15  18
ENDBRANCH   5  12
BRANCH   1  22
ATOM     21  N   UNL     1      39.234  -0.668  15.662  0.00  0.00    +0.000 NA
ATOM     22  C   UNL     1      37.834  -0.780  15.618  0.00  0.00    +0.000 C 
ATOM     23  O   UNL     1      37.356  -1.102  14.495  0.00  0.00    +0.000 OA
BRANCH  21  24
ATOM     24  C   UNL     1      40.017  -0.920  14.443  0.00  0.00    +0.000 C 
BRANCH  24  25
ATOM     25  C   UNL     1      40.474   0.368  13.821  0.00  0.00    +0.000 C 
BRANCH  25  29
ATOM     26  C   UNL     1      37.843   1.877  10.821  0.00  0.00    +0.000 A 
ATOM     27  C   UNL     1      37.823   2.419  12.072  0.00  0.00    +0.000 A 
ATOM     28  C   UNL     1      38.661   1.966  13.091  0.00  0.00    +0.000 A 
ATOM     29  C   UNL     1      39.542   0.951  12.867  0.00  0.00    +0.000 A 
ATOM     30  C   UNL     1      39.555   0.400  11.579  0.00  0.00    +0.000 A 
ATOM     31  C   UNL     1      38.727   0.850  10.579  0.00  0.00    +0.000 A 
BRANCH  26  32
ATOM     32  O   UNL     1      36.983   2.367   9.833  0.00  0.00    +0.000 OA
BRANCH  32  34
ATOM     33  C   UNL     1      38.321   4.145   8.861  0.00  0.00    +0.000 C 
ATOM     34  C   UNL     1      37.450   2.917   8.628  0.00  0.00    +0.000 C 
ENDBRANCH  32  34
ENDBRANCH  26  32
ENDBRANCH  25  29
ENDBRANCH  24  25
ENDBRANCH  21  24
ENDBRANCH   1  22
TORSDOF 9
ENDMDL
