MODEL 1
REMARK VINA RESULT:      -6.5      0.000      0.000
REMARK  Name = 
REMARK  4 active torsions:
REMARK  status: ('A' for Active; 'I' for Inactive)
REMARK    1  A    between atoms: C_2  and  C_3
REMARK    2  A    between atoms: C_9  and  N_10
REMARK    3  A    between atoms: C_11  and  C_13
REMARK    4  A    between atoms: C_18  and  N_19
REMARK                            x       y       z     vdW  Elec       q    Type
REMARK                         _______ _______ _______ _____ _____    ______ ____
ROOT
ATOM      1  N   UNL     1      18.834  10.179  37.746  0.00  0.00    +0.000 NA
ATOM      2  C   UNL     1      19.864  11.080  38.048  0.00  0.00    +0.000 C 
ATOM      3  O   UNL     1      19.560  12.102  38.751  0.00  0.00    +0.000 OA
ENDROOT
BRANCH   1  10
ATOM      4  C   UNL     1      16.625  11.012  37.341  0.00  0.00    +0.000 A 
ATOM      5  C   UNL     1      15.296  11.186  37.717  0.00  0.00    +0.000 A 
ATOM      6  C   UNL     1      14.828  10.684  38.917  0.00  0.00    +0.000 A 
ATOM      7  C   UNL     1      15.697   9.998  39.759  0.00  0.00    +0.000 A 
ATOM      8  C   UNL     1      17.025   9.832  39.367  0.00  0.00    +0.000 A 
ATOM      9  C   UNL     1      18.005   9.100  40.234  0.00  0.00    +0.000 C 
ATOM     10  C   UNL     1      17.488  10.333  38.170  0.00  0.00    +0.000 A 
BRANCH   4  12
ATOM     11  C   UNL     1      16.811  10.598  34.907  0.00  0.00    +0.000 C 
ATOM     12  C   UNL     1      17.091  11.556  36.063  0.00  0.00    +0.000 C 
ENDBRANCH   4  12
ENDBRANCH   1  10
BRANCH   2  13
ATOM     13  C   UNL     1      21.239  10.898  37.599  0.00  0.00    +0.000 A 
ATOM     14  C   UNL     1      21.506   9.862  36.730  0.00  0.00    +0.000 A 
ATOM     15  C   UNL     1      22.785   9.666  36.292  0.00  0.00    +0.000 A 
ATOM     16  C   UNL     1      23.797  10.522  36.735  0.00  0.00    +0.000 A 
ATOM     17  C   UNL     1      25.161  10.248  36.214  0.00  0.00    +0.000 C 
ATOM     18  C   UNL     1      23.566  11.561  37.598  0.00  0.00    +0.000 A 
ATOM     19  C   UNL     1      22.245  11.730  38.027  0.00  0.00    +0.000 A 
BRANCH  18  20
ATOM     20  N   UNL     1      24.626  12.386  38.007  0.00  0.00    +0.000 N 
ATOM     21  O   UNL     1      25.326  12.145  39.010  0.00  0.00    +0.000 OA
ATOM     22  O   UNL     1      24.962  13.538  37.305  0.00  0.00    +0.000 OA
ENDBRANCH  18  20
ENDBRANCH   2  13
TORSDOF 4
ENDMDL
MODEL 2
REMARK VINA RESULT:      -6.4      0.464      2.312
REMARK  Name = 
REMARK  4 active torsions:
REMARK  status: ('A' for Active; 'I' for Inactive)
REMARK    1  A    between atoms: C_2  and  C_3
REMARK    2  A    between atoms: C_9  and  N_10
REMARK    3  A    between atoms: C_11  and  C_13
REMARK    4  A    between atoms: C_18  and  N_19
REMARK                            x       y       z     vdW  Elec       q    Type
REMARK                         _______ _______ _______ _____ _____    ______ ____
ROOT
ATOM      1  N   UNL     1      18.605  10.333  37.562  0.00  0.00    +0.000 NA
ATOM      2  C   UNL     1      19.657  11.186  37.924  0.00  0.00    +0.000 C 
ATOM      3  O   UNL     1      19.359  12.230  38.597  0.00  0.00    +0.000 OA
ENDROOT
BRANCH   1  10
ATOM      4  C   UNL     1      16.774  10.028  39.076  0.00  0.00    +0.000 A 
ATOM      5  C   UNL     1      15.446  10.224  39.444  0.00  0.00    +0.000 A 
ATOM      6  C   UNL     1      14.588  10.949  38.638  0.00  0.00    +0.000 A 
ATOM      7  C   UNL     1      15.058  11.487  37.445  0.00  0.00    +0.000 A 
ATOM      8  C   UNL     1      16.391  11.280  37.091  0.00  0.00    +0.000 A 
ATOM      9  C   UNL     1      16.952  11.837  35.817  0.00  0.00    +0.000 C 
ATOM     10  C   UNL     1      17.244  10.558  37.897  0.00  0.00    +0.000 A 
BRANCH   4  12
ATOM     11  C   UNL     1      17.307   9.450  41.425  0.00  0.00    +0.000 C 
ATOM     12  C   UNL     1      17.659   9.255  39.951  0.00  0.00    +0.000 C 
ENDBRANCH   4  12
ENDBRANCH   1  10
BRANCH   2  13
ATOM     13  C   UNL     1      21.047  10.932  37.566  0.00  0.00    +0.000 A 
ATOM     14  C   UNL     1      21.325   9.834  36.781  0.00  0.00    +0.000 A 
ATOM     15  C   UNL     1      22.618   9.570  36.429  0.00  0.00    +0.000 A 
ATOM     16  C   UNL     1      23.633  10.421  36.875  0.00  0.00    +0.000 A 
ATOM     17  C   UNL     1      25.014  10.071  36.451  0.00  0.00    +0.000 C 
ATOM     18  C   UNL     1      23.392  11.520  37.655  0.00  0.00    +0.000 A 
ATOM     19  C   UNL     1      22.057  11.759  37.997  0.00  0.00    +0.000 A 
BRANCH  18  20
ATOM     20  N   UNL     1      24.456  12.337  38.072  0.00  0.00    +0.000 N 
ATOM     21  O   UNL     1      25.063  12.167  39.148  0.00  0.00    +0.000 OA
ATOM     22  O   UNL     1      24.903  13.399  37.293  0.00  0.00    +0.000 OA
ENDBRANCH  18  20
ENDBRANCH   2  13
TORSDOF 4
ENDMDL
MODEL 3
REMARK VINA RESULT:      -6.3     16.965     19.782
REMARK  Name = 
REMARK  4 active torsions:
REMARK  status: ('A' for Active; 'I' for Inactive)
REMARK    1  A    between atoms: C_2  and  C_3
REMARK    2  A    between atoms: C_9  and  N_10
REMARK    3  A    between atoms: C_11  and  C_13
REMARK    4  A    between atoms: C_18  and  N_19
REMARK                            x       y       z     vdW  Elec       q    Type
REMARK                         _______ _______ _______ _____ _____    ______ ____
ROOT
ATOM      1  N   UNL     1      28.337  24.311  25.543  0.00  0.00    +0.000 NA
ATOM      2  C   UNL     1      28.889  23.182  26.164  0.00  0.00    +0.000 C 
ATOM      3  O   UNL     1      29.405  22.292  25.408  0.00  0.00    +0.000 OA
ENDROOT
BRANCH   1  10
ATOM      4  C   UNL     1      29.354  25.235  23.580  0.00  0.00    +0.000 A 
ATOM      5  C   UNL     1      29.377  25.464  22.207  0.00  0.00    +0.000 A 
ATOM      6  C   UNL     1      28.371  24.981  21.392  0.00  0.00    +0.000 A 
ATOM      7  C   UNL     1      27.323  24.258  21.951  0.00  0.00    +0.000 A 
ATOM      8  C   UNL     1      27.315  24.038  23.328  0.00  0.00    +0.000 A 
ATOM      9  C   UNL     1      26.211  23.266  23.986  0.00  0.00    +0.000 C 
ATOM     10  C   UNL     1      28.319  24.521  24.139  0.00  0.00    +0.000 A 
BRANCH   4  12
ATOM     11  C   UNL     1      31.652  24.838  24.413  0.00  0.00    +0.000 C 
ATOM     12  C   UNL     1      30.435  25.760  24.418  0.00  0.00    +0.000 C 
ENDBRANCH   4  12
ENDBRANCH   1  10
BRANCH   2  13
ATOM     13  C   UNL     1      28.893  22.992  27.609  0.00  0.00    +0.000 A 
ATOM     14  C   UNL     1      30.109  22.855  28.243  0.00  0.00    +0.000 A 
ATOM     15  C   UNL     1      30.144  22.675  29.596  0.00  0.00    +0.000 A 
ATOM     16  C   UNL     1      28.944  22.633  30.311  0.00  0.00    +0.000 A 
ATOM     17  C   UNL     1      29.062  22.436  31.779  0.00  0.00    +0.000 C 
ATOM     18  C   UNL     1      27.719  22.765  29.712  0.00  0.00    +0.000 A 
ATOM     19  C   UNL     1      27.721  22.947  28.326  0.00  0.00    +0.000 A 
BRANCH  18  20
ATOM     20  N   UNL     1      26.547  22.713  30.486  0.00  0.00    +0.000 N 
ATOM     21  O   UNL     1      25.972  23.732  30.917  0.00  0.00    +0.000 OA
ATOM     22  O   UNL     1      25.951  21.502  30.819  0.00  0.00    +0.000 OA
ENDBRANCH  18  20
ENDBRANCH   2  13
TORSDOF 4
ENDMDL
MODEL 4
REMARK VINA RESULT:      -6.3     22.275     23.370
REMARK  Name = 
REMARK  4 active torsions:
REMARK  status: ('A' for Active; 'I' for Inactive)
REMARK    1  A    between atoms: C_2  and  C_3
REMARK    2  A    between atoms: C_9  and  N_10
REMARK    3  A    between atoms: C_11  and  C_13
REMARK    4  A    between atoms: C_18  and  N_19
REMARK                            x       y       z     vdW  Elec       q    Type
REMARK                         _______ _______ _______ _____ _____    ______ ____
ROOT
ATOM      1  N   UNL     1      21.382  -8.006  26.010  0.00  0.00    +0.000 NA
ATOM      2  C   UNL     1      21.718  -8.322  24.686  0.00  0.00    +0.000 C 
ATOM      3  O   UNL     1      20.796  -8.811  23.950  0.00  0.00    +0.000 OA
ENDROOT
BRANCH   1  10
ATOM      4  C   UNL     1      19.209  -7.141  26.529  0.00  0.00    +0.000 A 
ATOM      5  C   UNL     1      17.934  -7.282  27.069  0.00  0.00    +0.000 A 
ATOM      6  C   UNL     1      17.540  -8.472  27.651  0.00  0.00    +0.000 A 
ATOM      7  C   UNL     1      18.429  -9.541  27.698  0.00  0.00    +0.000 A 
ATOM      8  C   UNL     1      19.702  -9.382  27.153  0.00  0.00    +0.000 A 
ATOM      9  C   UNL     1      20.702 -10.500  27.175  0.00  0.00    +0.000 C 
ATOM     10  C   UNL     1      20.093  -8.195  26.573  0.00  0.00    +0.000 A 
BRANCH   4  12
ATOM     11  C   UNL     1      18.909  -4.684  26.595  0.00  0.00    +0.000 C 
ATOM     12  C   UNL     1      19.599  -5.867  25.919  0.00  0.00    +0.000 C 
ENDBRANCH   4  12
ENDBRANCH   1  10
BRANCH   2  13
ATOM     13  C   UNL     1      23.051  -8.119  24.133  0.00  0.00    +0.000 A 
ATOM     14  C   UNL     1      23.634  -6.879  24.281  0.00  0.00    +0.000 A 
ATOM     15  C   UNL     1      24.882  -6.658  23.773  0.00  0.00    +0.000 A 
ATOM     16  C   UNL     1      25.543  -7.698  23.113  0.00  0.00    +0.000 A 
ATOM     17  C   UNL     1      26.898  -7.384  22.589  0.00  0.00    +0.000 C 
ATOM     18  C   UNL     1      24.993  -8.942  22.948  0.00  0.00    +0.000 A 
ATOM     19  C   UNL     1      23.714  -9.130  23.480  0.00  0.00    +0.000 A 
BRANCH  18  20
ATOM     20  N   UNL     1      25.709  -9.945  22.274  0.00  0.00    +0.000 N 
ATOM     21  O   UNL     1      26.437 -10.770  22.859  0.00  0.00    +0.000 OA
ATOM     22  O   UNL     1      25.643 -10.079  20.891  0.00  0.00    +0.000 OA
ENDBRANCH  18  20
ENDBRANCH   2  13
TORSDOF 4
ENDMDL
MODEL 5
REMARK VINA RESULT:      -6.3     16.640     18.991
REMARK  Name = 
REMARK  4 active torsions:
REMARK  status: ('A' for Active; 'I' for Inactive)
REMARK    1  A    between atoms: C_2  and  C_3
REMARK    2  A    between atoms: C_9  and  N_10
REMARK    3  A    between atoms: C_11  and  C_13
REMARK    4  A    between atoms: C_18  and  N_19
REMARK                            x       y       z     vdW  Elec       q    Type
REMARK                         _______ _______ _______ _____ _____    ______ ____
ROOT
ATOM      1  N   UNL     1      28.610  22.598  26.526  0.00  0.00    +0.000 NA
ATOM      2  C   UNL     1      29.146  23.463  27.489  0.00  0.00    +0.000 C 
ATOM      3  O   UNL     1      29.293  24.688  27.158  0.00  0.00    +0.000 OA
ENDROOT
BRANCH   1  10
ATOM      4  C   UNL     1      29.167  22.936  24.221  0.00  0.00    +0.000 A 
ATOM      5  C   UNL     1      28.832  23.319  22.925  0.00  0.00    +0.000 A 
ATOM      6  C   UNL     1      27.557  23.760  22.625  0.00  0.00    +0.000 A 
ATOM      7  C   UNL     1      26.599  23.825  23.631  0.00  0.00    +0.000 A 
ATOM      8  C   UNL     1      26.952  23.438  24.924  0.00  0.00    +0.000 A 
ATOM      9  C   UNL     1      25.960  23.486  26.047  0.00  0.00    +0.000 C 
ATOM     10  C   UNL     1      28.223  22.998  25.220  0.00  0.00    +0.000 A 
BRANCH   4  12
ATOM     11  C   UNL     1      31.537  23.617  24.454  0.00  0.00    +0.000 C 
ATOM     12  C   UNL     1      30.528  22.472  24.508  0.00  0.00    +0.000 C 
ENDBRANCH   4  12
ENDBRANCH   1  10
BRANCH   2  13
ATOM     13  C   UNL     1      29.536  23.026  28.823  0.00  0.00    +0.000 A 
ATOM     14  C   UNL     1      28.539  22.769  29.740  0.00  0.00    +0.000 A 
ATOM     15  C   UNL     1      28.874  22.358  30.998  0.00  0.00    +0.000 A 
ATOM     16  C   UNL     1      30.223  22.206  31.331  0.00  0.00    +0.000 A 
ATOM     17  C   UNL     1      30.509  21.753  32.717  0.00  0.00    +0.000 C 
ATOM     18  C   UNL     1      31.238  22.452  30.444  0.00  0.00    +0.000 A 
ATOM     19  C   UNL     1      30.858  22.872  29.166  0.00  0.00    +0.000 A 
BRANCH  18  20
ATOM     20  N   UNL     1      32.575  22.281  30.839  0.00  0.00    +0.000 N 
ATOM     21  O   UNL     1      33.261  23.198  31.330  0.00  0.00    +0.000 OA
ATOM     22  O   UNL     1      33.220  21.056  30.705  0.00  0.00    +0.000 OA
ENDBRANCH  18  20
ENDBRANCH   2  13
TORSDOF 4
ENDMDL
MODEL 6
REMARK VINA RESULT:      -6.2     17.037     19.721
REMARK  Name = 
REMARK  4 active torsions:
REMARK  status: ('A' for Active; 'I' for Inactive)
REMARK    1  A    between atoms: C_2  and  C_3
REMARK    2  A    between atoms: C_9  and  N_10
REMARK    3  A    between atoms: C_11  and  C_13
REMARK    4  A    between atoms: C_18  and  N_19
REMARK                            x       y       z     vdW  Elec       q    Type
REMARK                         _______ _______ _______ _____ _____    ______ ____
ROOT
ATOM      1  N   UNL     1      28.492  24.655  25.553  0.00  0.00    +0.000 NA
ATOM      2  C   UNL     1      28.754  23.390  26.099  0.00  0.00    +0.000 C 
ATOM      3  O   UNL     1      28.960  22.431  25.281  0.00  0.00    +0.000 OA
ENDROOT
BRANCH   1  10
ATOM      4  C   UNL     1      27.221  24.872  23.534  0.00  0.00    +0.000 A 
ATOM      5  C   UNL     1      27.128  25.134  22.170  0.00  0.00    +0.000 A 
ATOM      6  C   UNL     1      28.252  25.453  21.433  0.00  0.00    +0.000 A 
ATOM      7  C   UNL     1      29.491  25.512  22.061  0.00  0.00    +0.000 A 
ATOM      8  C   UNL     1      29.567  25.247  23.428  0.00  0.00    +0.000 A 
ATOM      9  C   UNL     1      30.875  25.296  24.158  0.00  0.00    +0.000 C 
ATOM     10  C   UNL     1      28.444  24.929  24.161  0.00  0.00    +0.000 A 
BRANCH   4  12
ATOM     11  C   UNL     1      25.602  23.079  24.081  0.00  0.00    +0.000 C 
ATOM     12  C   UNL     1      26.011  24.536  24.290  0.00  0.00    +0.000 C 
ENDBRANCH   4  12
ENDBRANCH   1  10
BRANCH   2  13
ATOM     13  C   UNL     1      28.796  23.136  27.534  0.00  0.00    +0.000 A 
ATOM     14  C   UNL     1      30.026  22.944  28.123  0.00  0.00    +0.000 A 
ATOM     15  C   UNL     1      30.098  22.704  29.466  0.00  0.00    +0.000 A 
ATOM     16  C   UNL     1      28.918  22.657  30.214  0.00  0.00    +0.000 A 
ATOM     17  C   UNL     1      29.075  22.393  31.668  0.00  0.00    +0.000 C 
ATOM     18  C   UNL     1      27.679  22.844  29.660  0.00  0.00    +0.000 A 
ATOM     19  C   UNL     1      27.645  23.086  28.283  0.00  0.00    +0.000 A 
BRANCH  18  20
ATOM     20  N   UNL     1      26.530  22.785  30.466  0.00  0.00    +0.000 N 
ATOM     21  O   UNL     1      25.982  23.798  30.943  0.00  0.00    +0.000 OA
ATOM     22  O   UNL     1      25.927  21.572  30.782  0.00  0.00    +0.000 OA
ENDBRANCH  18  20
ENDBRANCH   2  13
TORSDOF 4
ENDMDL
MODEL 7
REMARK VINA RESULT:      -6.2     16.955     18.750
REMARK  Name = 
REMARK  4 active torsions:
REMARK  status: ('A' for Active; 'I' for Inactive)
REMARK    1  A    between atoms: C_2  and  C_3
REMARK    2  A    between atoms: C_9  and  N_10
REMARK    3  A    between atoms: C_11  and  C_13
REMARK    4  A    between atoms: C_18  and  N_19
REMARK                            x       y       z     vdW  Elec       q    Type
REMARK                         _______ _______ _______ _____ _____    ______ ____
ROOT
ATOM      1  N   UNL     1      29.765  22.144  27.057  0.00  0.00    +0.000 NA
ATOM      2  C   UNL     1      30.447  22.987  27.945  0.00  0.00    +0.000 C 
ATOM      3  O   UNL     1      30.339  24.245  27.757  0.00  0.00    +0.000 OA
ENDROOT
BRANCH   1  10
ATOM      4  C   UNL     1      29.570  22.732  24.742  0.00  0.00    +0.000 A 
ATOM      5  C   UNL     1      28.828  23.177  23.652  0.00  0.00    +0.000 A 
ATOM      6  C   UNL     1      27.490  23.492  23.788  0.00  0.00    +0.000 A 
ATOM      7  C   UNL     1      26.877  23.363  25.030  0.00  0.00    +0.000 A 
ATOM      8  C   UNL     1      27.635  22.916  26.112  0.00  0.00    +0.000 A 
ATOM      9  C   UNL     1      27.028  22.757  27.474  0.00  0.00    +0.000 C 
ATOM     10  C   UNL     1      28.970  22.602  25.973  0.00  0.00    +0.000 A 
BRANCH   4  12
ATOM     11  C   UNL     1      31.856  23.662  24.535  0.00  0.00    +0.000 C 
ATOM     12  C   UNL     1      30.988  22.406  24.567  0.00  0.00    +0.000 C 
ENDBRANCH   4  12
ENDBRANCH   1  10
BRANCH   2  13
ATOM     13  C   UNL     1      31.258  22.490  29.049  0.00  0.00    +0.000 A 
ATOM     14  C   UNL     1      32.506  21.982  28.762  0.00  0.00    +0.000 A 
ATOM     15  C   UNL     1      33.289  21.508  29.776  0.00  0.00    +0.000 A 
ATOM     16  C   UNL     1      32.806  21.549  31.087  0.00  0.00    +0.000 A 
ATOM     17  C   UNL     1      33.714  21.019  32.136  0.00  0.00    +0.000 C 
ATOM     18  C   UNL     1      31.571  22.047  31.407  0.00  0.00    +0.000 A 
ATOM     19  C   UNL     1      30.797  22.522  30.344  0.00  0.00    +0.000 A 
BRANCH  18  20
ATOM     20  N   UNL     1      31.142  22.060  32.745  0.00  0.00    +0.000 N 
ATOM     21  O   UNL     1      30.422  21.169  33.236  0.00  0.00    +0.000 OA
ATOM     22  O   UNL     1      31.503  23.085  33.613  0.00  0.00    +0.000 OA
ENDBRANCH  18  20
ENDBRANCH   2  13
TORSDOF 4
ENDMDL
MODEL 8
REMARK VINA RESULT:      -6.1     21.479     24.079
REMARK  Name = 
REMARK  4 active torsions:
REMARK  status: ('A' for Active; 'I' for Inactive)
REMARK    1  A    between atoms: C_2  and  C_3
REMARK    2  A    between atoms: C_9  and  N_10
REMARK    3  A    between atoms: C_11  and  C_13
REMARK    4  A    between atoms: C_18  and  N_19
REMARK                            x       y       z     vdW  Elec       q    Type
REMARK                         _______ _______ _______ _____ _____    ______ ____
ROOT
ATOM      1  N   UNL     1      25.601   5.822  16.346  0.00  0.00    +0.000 NA
ATOM      2  C   UNL     1      25.365   4.454  16.150  0.00  0.00    +0.000 C 
ATOM      3  O   UNL     1      26.296   3.772  15.604  0.00  0.00    +0.000 OA
ENDROOT
BRANCH   1  10
ATOM      4  C   UNL     1      27.779   6.628  16.934  0.00  0.00    +0.000 A 
ATOM      5  C   UNL     1      28.971   7.272  16.616  0.00  0.00    +0.000 A 
ATOM      6  C   UNL     1      29.188   7.773  15.347  0.00  0.00    +0.000 A 
ATOM      7  C   UNL     1      28.202   7.632  14.375  0.00  0.00    +0.000 A 
ATOM      8  C   UNL     1      27.014   6.985  14.711  0.00  0.00    +0.000 A 
ATOM      9  C   UNL     1      25.917   6.804  13.705  0.00  0.00    +0.000 C 
ATOM     10  C   UNL     1      26.800   6.486  15.977  0.00  0.00    +0.000 A 
BRANCH   4  12
ATOM     11  C   UNL     1      28.013   7.115  19.351  0.00  0.00    +0.000 C 
ATOM     12  C   UNL     1      27.578   6.107  18.289  0.00  0.00    +0.000 C 
ENDBRANCH   4  12
ENDBRANCH   1  10
BRANCH   2  13
ATOM     13  C   UNL     1      24.123   3.797  16.537  0.00  0.00    +0.000 A 
ATOM     14  C   UNL     1      23.758   3.829  17.865  0.00  0.00    +0.000 A 
ATOM     15  C   UNL     1      22.599   3.222  18.259  0.00  0.00    +0.000 A 
ATOM     16  C   UNL     1      21.807   2.580  17.303  0.00  0.00    +0.000 A 
ATOM     17  C   UNL     1      20.561   1.945  17.804  0.00  0.00    +0.000 C 
ATOM     18  C   UNL     1      22.140   2.531  15.975  0.00  0.00    +0.000 A 
ATOM     19  C   UNL     1      23.333   3.161  15.609  0.00  0.00    +0.000 A 
BRANCH  18  20
ATOM     20  N   UNL     1      21.301   1.869  15.062  0.00  0.00    +0.000 N 
ATOM     21  O   UNL     1      20.401   2.449  14.423  0.00  0.00    +0.000 OA
ATOM     22  O   UNL     1      21.430   0.507  14.814  0.00  0.00    +0.000 OA
ENDBRANCH  18  20
ENDBRANCH   2  13
TORSDOF 4
ENDMDL
MODEL 9
REMARK VINA RESULT:      -6.0     17.040     18.812
REMARK  Name = 
REMARK  4 active torsions:
REMARK  status: ('A' for Active; 'I' for Inactive)
REMARK    1  A    between atoms: C_2  and  C_3
REMARK    2  A    between atoms: C_9  and  N_10
REMARK    3  A    between atoms: C_11  and  C_13
REMARK    4  A    between atoms: C_18  and  N_19
REMARK                            x       y       z     vdW  Elec       q    Type
REMARK                         _______ _______ _______ _____ _____    ______ ____
ROOT
ATOM      1  N   UNL     1      30.291  22.177  26.838  0.00  0.00    +0.000 NA
ATOM      2  C   UNL     1      30.713  22.998  27.893  0.00  0.00    +0.000 C 
ATOM      3  O   UNL     1      30.423  24.239  27.820  0.00  0.00    +0.000 OA
ENDROOT
BRANCH   1  10
ATOM      4  C   UNL     1      28.194  22.666  25.786  0.00  0.00    +0.000 A 
ATOM      5  C   UNL     1      27.446  23.112  24.701  0.00  0.00    +0.000 A 
ATOM      6  C   UNL     1      28.064  23.534  23.540  0.00  0.00    +0.000 A 
ATOM      7  C   UNL     1      29.452  23.509  23.454  0.00  0.00    +0.000 A 
ATOM      8  C   UNL     1      30.187  23.059  24.550  0.00  0.00    +0.000 A 
ATOM      9  C   UNL     1      31.685  23.012  24.514  0.00  0.00    +0.000 C 
ATOM     10  C   UNL     1      29.568  22.640  25.707  0.00  0.00    +0.000 A 
BRANCH   4  12
ATOM     11  C   UNL     1      26.859  23.395  27.740  0.00  0.00    +0.000 C 
ATOM     12  C   UNL     1      27.509  22.225  27.005  0.00  0.00    +0.000 C 
ENDBRANCH   4  12
ENDBRANCH   1  10
BRANCH   2  13
ATOM     13  C   UNL     1      31.456  22.497  29.042  0.00  0.00    +0.000 A 
ATOM     14  C   UNL     1      32.715  21.979  28.827  0.00  0.00    +0.000 A 
ATOM     15  C   UNL     1      33.435  21.502  29.885  0.00  0.00    +0.000 A 
ATOM     16  C   UNL     1      32.878  21.548  31.166  0.00  0.00    +0.000 A 
ATOM     17  C   UNL     1      33.720  21.013  32.267  0.00  0.00    +0.000 C 
ATOM     18  C   UNL     1      31.630  22.056  31.415  0.00  0.00    +0.000 A 
ATOM     19  C   UNL     1      30.922  22.535  30.308  0.00  0.00    +0.000 A 
BRANCH  18  20
ATOM     20  N   UNL     1      31.125  22.075  32.726  0.00  0.00    +0.000 N 
ATOM     21  O   UNL     1      30.420  21.160  33.195  0.00  0.00    +0.000 OA
ATOM     22  O   UNL     1      31.389  23.132  33.590  0.00  0.00    +0.000 OA
ENDBRANCH  18  20
ENDBRANCH   2  13
TORSDOF 4
ENDMDL
MODEL 10
REMARK VINA RESULT:      -6.0     21.578     23.999
REMARK  Name = 
REMARK  4 active torsions:
REMARK  status: ('A' for Active; 'I' for Inactive)
REMARK    1  A    between atoms: C_2  and  C_3
REMARK    2  A    between atoms: C_9  and  N_10
REMARK    3  A    between atoms: C_11  and  C_13
REMARK    4  A    between atoms: C_18  and  N_19
REMARK                            x       y       z     vdW  Elec       q    Type
REMARK                         _______ _______ _______ _____ _____    ______ ____
ROOT
ATOM      1  N   UNL     1      25.647   5.823  16.695  0.00  0.00    +0.000 NA
ATOM      2  C   UNL     1      25.428   4.453  16.494  0.00  0.00    +0.000 C 
ATOM      3  O   UNL     1      26.408   3.762  16.055  0.00  0.00    +0.000 OA
ENDROOT
BRANCH   1  10
ATOM      4  C   UNL     1      27.073   7.031  15.195  0.00  0.00    +0.000 A 
ATOM      5  C   UNL     1      28.266   7.685  14.903  0.00  0.00    +0.000 A 
ATOM      6  C   UNL     1      29.266   7.790  15.851  0.00  0.00    +0.000 A 
ATOM      7  C   UNL     1      29.077   7.234  17.112  0.00  0.00    +0.000 A 
ATOM      8  C   UNL     1      27.875   6.583  17.388  0.00  0.00    +0.000 A 
ATOM      9  C   UNL     1      27.616   5.966  18.730  0.00  0.00    +0.000 C 
ATOM     10  C   UNL     1      26.880   6.480  16.441  0.00  0.00    +0.000 A 
BRANCH   4  12
ATOM     11  C   UNL     1      26.411   5.945  13.070  0.00  0.00    +0.000 C 
ATOM     12  C   UNL     1      26.031   6.936  14.169  0.00  0.00    +0.000 C 
ENDBRANCH   4  12
ENDBRANCH   1  10
BRANCH   2  13
ATOM     13  C   UNL     1      24.151   3.804  16.762  0.00  0.00    +0.000 A 
ATOM     14  C   UNL     1      23.676   3.813  18.056  0.00  0.00    +0.000 A 
ATOM     15  C   UNL     1      22.482   3.213  18.338  0.00  0.00    +0.000 A 
ATOM     16  C   UNL     1      21.766   2.601  17.305  0.00  0.00    +0.000 A 
ATOM     17  C   UNL     1      20.476   1.971  17.687  0.00  0.00    +0.000 C 
ATOM     18  C   UNL     1      22.209   2.574  16.009  0.00  0.00    +0.000 A 
ATOM     19  C   UNL     1      23.435   3.197  15.758  0.00  0.00    +0.000 A 
BRANCH  18  20
ATOM     20  N   UNL     1      21.443   1.942  15.016  0.00  0.00    +0.000 N 
ATOM     21  O   UNL     1      20.607   2.546  14.314  0.00  0.00    +0.000 OA
ATOM     22  O   UNL     1      21.575   0.583  14.752  0.00  0.00    +0.000 OA
ENDBRANCH  18  20
ENDBRANCH   2  13
TORSDOF 4
ENDMDL
