MODEL 1
REMARK VINA RESULT:      -6.4      0.000      0.000
REMARK  Name = 
REMARK  4 active torsions:
REMARK  status: ('A' for Active; 'I' for Inactive)
REMARK    1  A    between atoms: C_4  and  O_5
REMARK    2  A    between atoms: O_5  and  C_6
REMARK    3  A    between atoms: C_6  and  N_7
REMARK    4  A    between atoms: C_15  and  C_16
REMARK                            x       y       z     vdW  Elec       q    Type
REMARK                         _______ _______ _______ _____ _____    ______ ____
ROOT
ATOM      1  C   UNL     1      14.217  13.213  34.045  0.00  0.00    +0.000 C 
ATOM      2  C   UNL     1      15.251  12.130  34.029  0.00  0.00    +0.000 A 
ATOM      3  C   UNL     1      15.704  11.546  35.198  0.00  0.00    +0.000 A 
ATOM      4  C   UNL     1      16.655  10.548  35.176  0.00  0.00    +0.000 A 
ATOM      5  C   UNL     1      17.125  10.170  33.933  0.00  0.00    +0.000 A 
ATOM      6  C   UNL     1      16.672  10.753  32.768  0.00  0.00    +0.000 A 
ATOM      7  C   UNL     1      15.720  11.752  32.788  0.00  0.00    +0.000 A 
ENDROOT
BRANCH   7   8
ATOM      8  C   UNL     1      15.212  12.400  31.552  0.00  0.00    +0.000 C 
ATOM      9  C   UNL     1      14.429  11.433  30.716  0.00  0.00    +0.000 C 
ATOM     10  C   UNL     1      16.304  13.088  30.773  0.00  0.00    +0.000 C 
ENDBRANCH   7   8
BRANCH   4  11
ATOM     11  O   UNL     1      17.124   9.948  36.339  0.00  0.00    +0.000 OA
BRANCH  11  12
ATOM     12  C   UNL     1      17.576  10.603  37.477  0.00  0.00    +0.000 C 
BRANCH  12  13
ATOM     13  N   UNL     1      19.013  10.696  37.534  0.00  0.00    +0.000 N 
ATOM     14  C   UNL     1      19.706  11.628  38.204  0.00  0.00    +0.000 A 
ATOM     15  C   UNL     1      21.043  11.411  38.036  0.00  0.00    +0.000 A 
ATOM     16  C   UNL     1      21.154  10.308  37.236  0.00  0.00    +0.000 A 
ATOM     17  N   UNL     1      22.342   9.673  36.765  0.00  0.00    +0.000 NA
ATOM     18  N   UNL     1      19.905   9.908  36.955  0.00  0.00    +0.000 NA
ENDBRANCH  12  13
ENDBRANCH  11  12
ENDBRANCH   4  11
TORSDOF 4
ENDMDL
MODEL 2
REMARK VINA RESULT:      -6.3      3.420      6.824
REMARK  Name = 
REMARK  4 active torsions:
REMARK  status: ('A' for Active; 'I' for Inactive)
REMARK    1  A    between atoms: C_4  and  O_5
REMARK    2  A    between atoms: O_5  and  C_6
REMARK    3  A    between atoms: C_6  and  N_7
REMARK    4  A    between atoms: C_15  and  C_16
REMARK                            x       y       z     vdW  Elec       q    Type
REMARK                         _______ _______ _______ _____ _____    ______ ____
ROOT
ATOM      1  C   UNL     1      15.865  11.001  38.301  0.00  0.00    +0.000 C 
ATOM      2  C   UNL     1      16.693  10.525  37.147  0.00  0.00    +0.000 A 
ATOM      3  C   UNL     1      16.262  10.669  35.841  0.00  0.00    +0.000 A 
ATOM      4  C   UNL     1      17.029  10.228  34.783  0.00  0.00    +0.000 A 
ATOM      5  C   UNL     1      18.239   9.641  35.099  0.00  0.00    +0.000 A 
ATOM      6  C   UNL     1      18.666   9.498  36.403  0.00  0.00    +0.000 A 
ATOM      7  C   UNL     1      17.900   9.938  37.464  0.00  0.00    +0.000 A 
ENDROOT
BRANCH   7   8
ATOM      8  C   UNL     1      18.333   9.799  38.877  0.00  0.00    +0.000 C 
ATOM      9  C   UNL     1      19.489  10.703  39.182  0.00  0.00    +0.000 C 
ATOM     10  C   UNL     1      18.603   8.365  39.257  0.00  0.00    +0.000 C 
ENDBRANCH   7   8
BRANCH   4  11
ATOM     11  O   UNL     1      16.614  10.364  33.463  0.00  0.00    +0.000 OA
BRANCH  11  12
ATOM     12  C   UNL     1      15.317  10.607  33.030  0.00  0.00    +0.000 C 
BRANCH  12  13
ATOM     13  N   UNL     1      15.219  11.778  32.194  0.00  0.00    +0.000 N 
ATOM     14  C   UNL     1      14.123  12.537  32.047  0.00  0.00    +0.000 A 
ATOM     15  C   UNL     1      14.391  13.559  31.182  0.00  0.00    +0.000 A 
ATOM     16  C   UNL     1      15.693  13.405  30.797  0.00  0.00    +0.000 A 
ATOM     17  N   UNL     1      16.453  14.214  29.901  0.00  0.00    +0.000 NA
ATOM     18  N   UNL     1      16.156  12.317  31.432  0.00  0.00    +0.000 NA
ENDBRANCH  12  13
ENDBRANCH  11  12
ENDBRANCH   4  11
TORSDOF 4
ENDMDL
MODEL 3
REMARK VINA RESULT:      -6.3      1.790      2.189
REMARK  Name = 
REMARK  4 active torsions:
REMARK  status: ('A' for Active; 'I' for Inactive)
REMARK    1  A    between atoms: C_4  and  O_5
REMARK    2  A    between atoms: O_5  and  C_6
REMARK    3  A    between atoms: C_6  and  N_7
REMARK    4  A    between atoms: C_15  and  C_16
REMARK                            x       y       z     vdW  Elec       q    Type
REMARK                         _______ _______ _______ _____ _____    ______ ____
ROOT
ATOM      1  C   UNL     1      14.018  13.533  33.612  0.00  0.00    +0.000 C 
ATOM      2  C   UNL     1      15.019  12.420  33.660  0.00  0.00    +0.000 A 
ATOM      3  C   UNL     1      15.398  11.839  34.857  0.00  0.00    +0.000 A 
ATOM      4  C   UNL     1      16.319  10.815  34.893  0.00  0.00    +0.000 A 
ATOM      5  C   UNL     1      16.837  10.405  33.679  0.00  0.00    +0.000 A 
ATOM      6  C   UNL     1      16.458  10.986  32.487  0.00  0.00    +0.000 A 
ATOM      7  C   UNL     1      15.536  12.012  32.448  0.00  0.00    +0.000 A 
ENDROOT
BRANCH   7   8
ATOM      8  C   UNL     1      15.108  12.657  31.180  0.00  0.00    +0.000 C 
ATOM      9  C   UNL     1      14.405  11.682  30.287  0.00  0.00    +0.000 C 
ATOM     10  C   UNL     1      16.242  13.368  30.485  0.00  0.00    +0.000 C 
ENDBRANCH   7   8
BRANCH   4  11
ATOM     11  O   UNL     1      16.713  10.217  36.085  0.00  0.00    +0.000 OA
BRANCH  11  12
ATOM     12  C   UNL     1      17.708  10.669  36.942  0.00  0.00    +0.000 C 
BRANCH  12  13
ATOM     13  N   UNL     1      17.833   9.860  38.128  0.00  0.00    +0.000 N 
ATOM     14  C   UNL     1      17.049   9.945  39.213  0.00  0.00    +0.000 A 
ATOM     15  C   UNL     1      17.455   9.029  40.140  0.00  0.00    +0.000 A 
ATOM     16  C   UNL     1      18.520   8.372  39.590  0.00  0.00    +0.000 A 
ATOM     17  N   UNL     1      19.302   7.322  40.158  0.00  0.00    +0.000 NA
ATOM     18  N   UNL     1      18.715   8.905  38.375  0.00  0.00    +0.000 NA
ENDBRANCH  12  13
ENDBRANCH  11  12
ENDBRANCH   4  11
TORSDOF 4
ENDMDL
MODEL 4
REMARK VINA RESULT:      -6.1      3.820      6.546
REMARK  Name = 
REMARK  4 active torsions:
REMARK  status: ('A' for Active; 'I' for Inactive)
REMARK    1  A    between atoms: C_4  and  O_5
REMARK    2  A    between atoms: O_5  and  C_6
REMARK    3  A    between atoms: C_6  and  N_7
REMARK    4  A    between atoms: C_15  and  C_16
REMARK                            x       y       z     vdW  Elec       q    Type
REMARK                         _______ _______ _______ _____ _____    ______ ____
ROOT
ATOM      1  C   UNL     1      12.774  12.734  36.665  0.00  0.00    +0.000 C 
ATOM      2  C   UNL     1      14.099  12.036  36.640  0.00  0.00    +0.000 A 
ATOM      3  C   UNL     1      14.989  12.214  35.596  0.00  0.00    +0.000 A 
ATOM      4  C   UNL     1      16.207  11.569  35.580  0.00  0.00    +0.000 A 
ATOM      5  C   UNL     1      16.485  10.744  36.653  0.00  0.00    +0.000 A 
ATOM      6  C   UNL     1      15.596  10.569  37.693  0.00  0.00    +0.000 A 
ATOM      7  C   UNL     1      14.376  11.213  37.712  0.00  0.00    +0.000 A 
ENDROOT
BRANCH   7   8
ATOM      8  C   UNL     1      13.397  11.045  38.816  0.00  0.00    +0.000 C 
ATOM      9  C   UNL     1      14.039  10.422  40.018  0.00  0.00    +0.000 C 
ATOM     10  C   UNL     1      12.155  10.312  38.377  0.00  0.00    +0.000 C 
ENDBRANCH   7   8
BRANCH   4  11
ATOM     11  O   UNL     1      17.117  11.734  34.541  0.00  0.00    +0.000 OA
BRANCH  11  12
ATOM     12  C   UNL     1      17.192  10.968  33.385  0.00  0.00    +0.000 C 
BRANCH  12  13
ATOM     13  N   UNL     1      16.149  11.279  32.440  0.00  0.00    +0.000 N 
ATOM     14  C   UNL     1      15.326  10.388  31.870  0.00  0.00    +0.000 A 
ATOM     15  C   UNL     1      14.466  11.034  31.030  0.00  0.00    +0.000 A 
ATOM     16  C   UNL     1      14.787  12.361  31.100  0.00  0.00    +0.000 A 
ATOM     17  N   UNL     1      14.184  13.455  30.410  0.00  0.00    +0.000 NA
ATOM     18  N   UNL     1      15.809  12.466  31.963  0.00  0.00    +0.000 NA
ENDBRANCH  12  13
ENDBRANCH  11  12
ENDBRANCH   4  11
TORSDOF 4
ENDMDL
MODEL 5
REMARK VINA RESULT:      -6.1      3.552      6.906
REMARK  Name = 
REMARK  4 active torsions:
REMARK  status: ('A' for Active; 'I' for Inactive)
REMARK    1  A    between atoms: C_4  and  O_5
REMARK    2  A    between atoms: O_5  and  C_6
REMARK    3  A    between atoms: C_6  and  N_7
REMARK    4  A    between atoms: C_15  and  C_16
REMARK                            x       y       z     vdW  Elec       q    Type
REMARK                         _______ _______ _______ _____ _____    ______ ____
ROOT
ATOM      1  C   UNL     1      19.044  13.467  37.707  0.00  0.00    +0.000 C 
ATOM      2  C   UNL     1      18.053  12.407  37.336  0.00  0.00    +0.000 A 
ATOM      3  C   UNL     1      16.862  12.721  36.706  0.00  0.00    +0.000 A 
ATOM      4  C   UNL     1      15.954  11.741  36.367  0.00  0.00    +0.000 A 
ATOM      5  C   UNL     1      16.297  10.442  36.689  0.00  0.00    +0.000 A 
ATOM      6  C   UNL     1      17.485  10.131  37.318  0.00  0.00    +0.000 A 
ATOM      7  C   UNL     1      18.396  11.111  37.658  0.00  0.00    +0.000 A 
ENDROOT
BRANCH   7   8
ATOM      8  C   UNL     1      19.682  10.808  38.336  0.00  0.00    +0.000 C 
ATOM      9  C   UNL     1      20.603  10.043  37.434  0.00  0.00    +0.000 C 
ATOM     10  C   UNL     1      19.486  10.135  39.670  0.00  0.00    +0.000 C 
ENDBRANCH   7   8
BRANCH   4  11
ATOM     11  O   UNL     1      14.752  12.035  35.732  0.00  0.00    +0.000 OA
BRANCH  11  12
ATOM     12  C   UNL     1      14.358  13.277  35.253  0.00  0.00    +0.000 C 
BRANCH  12  13
ATOM     13  N   UNL     1      14.232  13.308  33.818  0.00  0.00    +0.000 N 
ATOM     14  C   UNL     1      13.589  14.251  33.115  0.00  0.00    +0.000 A 
ATOM     15  C   UNL     1      13.671  13.961  31.783  0.00  0.00    +0.000 A 
ATOM     16  C   UNL     1      14.390  12.802  31.686  0.00  0.00    +0.000 A 
ATOM     17  N   UNL     1      14.752  12.081  30.510  0.00  0.00    +0.000 NA
ATOM     18  N   UNL     1      14.709  12.441  32.938  0.00  0.00    +0.000 NA
ENDBRANCH  12  13
ENDBRANCH  11  12
ENDBRANCH   4  11
TORSDOF 4
ENDMDL
MODEL 6
REMARK VINA RESULT:      -6.0     27.013     29.405
REMARK  Name = 
REMARK  4 active torsions:
REMARK  status: ('A' for Active; 'I' for Inactive)
REMARK    1  A    between atoms: C_4  and  O_5
REMARK    2  A    between atoms: O_5  and  C_6
REMARK    3  A    between atoms: C_6  and  N_7
REMARK    4  A    between atoms: C_15  and  C_16
REMARK                            x       y       z     vdW  Elec       q    Type
REMARK                         _______ _______ _______ _____ _____    ______ ____
ROOT
ATOM      1  C   UNL     1      28.523  24.500  14.382  0.00  0.00    +0.000 C 
ATOM      2  C   UNL     1      28.903  23.626  13.226  0.00  0.00    +0.000 A 
ATOM      3  C   UNL     1      30.222  23.285  12.982  0.00  0.00    +0.000 A 
ATOM      4  C   UNL     1      30.565  22.479  11.917  0.00  0.00    +0.000 A 
ATOM      5  C   UNL     1      29.529  22.036  11.118  0.00  0.00    +0.000 A 
ATOM      6  C   UNL     1      28.215  22.377  11.364  0.00  0.00    +0.000 A 
ATOM      7  C   UNL     1      27.869  23.184  12.428  0.00  0.00    +0.000 A 
ENDROOT
BRANCH   7   8
ATOM      8  C   UNL     1      26.464  23.568  12.719  0.00  0.00    +0.000 C 
ATOM      9  C   UNL     1      25.674  22.397  13.219  0.00  0.00    +0.000 C 
ATOM     10  C   UNL     1      25.804  24.258  11.552  0.00  0.00    +0.000 C 
ENDBRANCH   7   8
BRANCH   4  11
ATOM     11  O   UNL     1      31.884  22.125  11.655  0.00  0.00    +0.000 OA
BRANCH  11  12
ATOM     12  C   UNL     1      32.385  20.833  11.566  0.00  0.00    +0.000 C 
BRANCH  12  13
ATOM     13  N   UNL     1      32.937  20.536  10.268  0.00  0.00    +0.000 N 
ATOM     14  C   UNL     1      32.763  21.277   9.163  0.00  0.00    +0.000 A 
ATOM     15  C   UNL     1      33.426  20.698   8.119  0.00  0.00    +0.000 A 
ATOM     16  C   UNL     1      34.018  19.571   8.617  0.00  0.00    +0.000 A 
ATOM     17  N   UNL     1      34.825  18.617   7.929  0.00  0.00    +0.000 NA
ATOM     18  N   UNL     1      33.697  19.511   9.918  0.00  0.00    +0.000 NA
ENDBRANCH  12  13
ENDBRANCH  11  12
ENDBRANCH   4  11
TORSDOF 4
ENDMDL
MODEL 7
REMARK VINA RESULT:      -5.9     19.114     20.994
REMARK  Name = 
REMARK  4 active torsions:
REMARK  status: ('A' for Active; 'I' for Inactive)
REMARK    1  A    between atoms: C_4  and  O_5
REMARK    2  A    between atoms: O_5  and  C_6
REMARK    3  A    between atoms: C_6  and  N_7
REMARK    4  A    between atoms: C_15  and  C_16
REMARK                            x       y       z     vdW  Elec       q    Type
REMARK                         _______ _______ _______ _____ _____    ______ ____
ROOT
ATOM      1  C   UNL     1      33.253  24.722  27.251  0.00  0.00    +0.000 C 
ATOM      2  C   UNL     1      32.161  23.939  26.590  0.00  0.00    +0.000 A 
ATOM      3  C   UNL     1      31.835  24.135  25.260  0.00  0.00    +0.000 A 
ATOM      4  C   UNL     1      30.828  23.410  24.658  0.00  0.00    +0.000 A 
ATOM      5  C   UNL     1      30.172  22.487  25.449  0.00  0.00    +0.000 A 
ATOM      6  C   UNL     1      30.500  22.293  26.775  0.00  0.00    +0.000 A 
ATOM      7  C   UNL     1      31.506  23.018  27.381  0.00  0.00    +0.000 A 
ENDROOT
BRANCH   7   8
ATOM      8  C   UNL     1      31.882  22.832  28.806  0.00  0.00    +0.000 C 
ATOM      9  C   UNL     1      32.350  21.432  29.065  0.00  0.00    +0.000 C 
ATOM     10  C   UNL     1      30.787  23.262  29.749  0.00  0.00    +0.000 C 
ENDBRANCH   7   8
BRANCH   4  11
ATOM     11  O   UNL     1      30.485  23.591  23.323  0.00  0.00    +0.000 OA
BRANCH  11  12
ATOM     12  C   UNL     1      29.632  24.563  22.818  0.00  0.00    +0.000 C 
BRANCH  12  13
ATOM     13  N   UNL     1      28.243  24.278  23.080  0.00  0.00    +0.000 N 
ATOM     14  C   UNL     1      27.501  24.846  24.042  0.00  0.00    +0.000 A 
ATOM     15  C   UNL     1      26.235  24.338  23.999  0.00  0.00    +0.000 A 
ATOM     16  C   UNL     1      26.218  23.434  22.974  0.00  0.00    +0.000 A 
ATOM     17  N   UNL     1      25.130  22.630  22.519  0.00  0.00    +0.000 NA
ATOM     18  N   UNL     1      27.451  23.428  22.445  0.00  0.00    +0.000 NA
ENDBRANCH  12  13
ENDBRANCH  11  12
ENDBRANCH   4  11
TORSDOF 4
ENDMDL
MODEL 8
REMARK VINA RESULT:      -5.8     19.827     21.895
REMARK  Name = 
REMARK  4 active torsions:
REMARK  status: ('A' for Active; 'I' for Inactive)
REMARK    1  A    between atoms: C_4  and  O_5
REMARK    2  A    between atoms: O_5  and  C_6
REMARK    3  A    between atoms: C_6  and  N_7
REMARK    4  A    between atoms: C_15  and  C_16
REMARK                            x       y       z     vdW  Elec       q    Type
REMARK                         _______ _______ _______ _____ _____    ______ ____
ROOT
ATOM      1  C   UNL     1      33.092  24.211  27.134  0.00  0.00    +0.000 C 
ATOM      2  C   UNL     1      31.877  23.545  26.562  0.00  0.00    +0.000 A 
ATOM      3  C   UNL     1      31.531  23.694  25.231  0.00  0.00    +0.000 A 
ATOM      4  C   UNL     1      30.412  23.078  24.712  0.00  0.00    +0.000 A 
ATOM      5  C   UNL     1      29.666  22.312  25.587  0.00  0.00    +0.000 A 
ATOM      6  C   UNL     1      30.013  22.166  26.914  0.00  0.00    +0.000 A 
ATOM      7  C   UNL     1      31.132  22.782  27.436  0.00  0.00    +0.000 A 
ENDROOT
BRANCH   7   8
ATOM      8  C   UNL     1      31.532  22.643  28.860  0.00  0.00    +0.000 C 
ATOM      9  C   UNL     1      32.326  21.391  29.080  0.00  0.00    +0.000 C 
ATOM     10  C   UNL     1      30.360  22.760  29.801  0.00  0.00    +0.000 C 
ENDBRANCH   7   8
BRANCH   4  11
ATOM     11  O   UNL     1      30.047  23.213  23.377  0.00  0.00    +0.000 OA
BRANCH  11  12
ATOM     12  C   UNL     1      28.798  23.592  22.901  0.00  0.00    +0.000 C 
BRANCH  12  13
ATOM     13  N   UNL     1      28.864  24.702  21.984  0.00  0.00    +0.000 N 
ATOM     14  C   UNL     1      28.093  25.798  22.036  0.00  0.00    +0.000 A 
ATOM     15  C   UNL     1      28.429  26.639  21.014  0.00  0.00    +0.000 A 
ATOM     16  C   UNL     1      29.436  26.023  20.326  0.00  0.00    +0.000 A 
ATOM     17  N   UNL     1      30.133  26.489  19.172  0.00  0.00    +0.000 NA
ATOM     18  N   UNL     1      29.668  24.856  20.945  0.00  0.00    +0.000 NA
ENDBRANCH  12  13
ENDBRANCH  11  12
ENDBRANCH   4  11
TORSDOF 4
ENDMDL
MODEL 9
REMARK VINA RESULT:      -5.7      2.477      7.168
REMARK  Name = 
REMARK  4 active torsions:
REMARK  status: ('A' for Active; 'I' for Inactive)
REMARK    1  A    between atoms: C_4  and  O_5
REMARK    2  A    between atoms: O_5  and  C_6
REMARK    3  A    between atoms: C_6  and  N_7
REMARK    4  A    between atoms: C_15  and  C_16
REMARK                            x       y       z     vdW  Elec       q    Type
REMARK                         _______ _______ _______ _____ _____    ______ ____
ROOT
ATOM      1  C   UNL     1      22.721  12.507  39.076  0.00  0.00    +0.000 C 
ATOM      2  C   UNL     1      21.901  11.562  38.252  0.00  0.00    +0.000 A 
ATOM      3  C   UNL     1      20.519  11.580  38.294  0.00  0.00    +0.000 A 
ATOM      4  C   UNL     1      19.771  10.708  37.532  0.00  0.00    +0.000 A 
ATOM      5  C   UNL     1      20.472   9.825  36.735  0.00  0.00    +0.000 A 
ATOM      6  C   UNL     1      21.851   9.809  36.695  0.00  0.00    +0.000 A 
ATOM      7  C   UNL     1      22.602  10.681  37.457  0.00  0.00    +0.000 A 
ENDROOT
BRANCH   7   8
ATOM      8  C   UNL     1      24.087  10.687  37.436  0.00  0.00    +0.000 C 
ATOM      9  C   UNL     1      24.609  11.042  36.076  0.00  0.00    +0.000 C 
ATOM     10  C   UNL     1      24.676   9.405  37.966  0.00  0.00    +0.000 C 
ENDBRANCH   7   8
BRANCH   4  11
ATOM     11  O   UNL     1      18.380  10.710  37.559  0.00  0.00    +0.000 OA
BRANCH  11  12
ATOM     12  C   UNL     1      17.545   9.800  36.925  0.00  0.00    +0.000 C 
BRANCH  12  13
ATOM     13  N   UNL     1      17.087  10.264  35.639  0.00  0.00    +0.000 N 
ATOM     14  C   UNL     1      17.584   9.882  34.454  0.00  0.00    +0.000 A 
ATOM     15  C   UNL     1      16.913  10.521  33.452  0.00  0.00    +0.000 A 
ATOM     16  C   UNL     1      15.981  11.315  34.059  0.00  0.00    +0.000 A 
ATOM     17  N   UNL     1      15.028  12.186  33.452  0.00  0.00    +0.000 NA
ATOM     18  N   UNL     1      16.120  11.130  35.381  0.00  0.00    +0.000 NA
ENDBRANCH  12  13
ENDBRANCH  11  12
ENDBRANCH   4  11
TORSDOF 4
ENDMDL
MODEL 10
REMARK VINA RESULT:      -5.7     20.090     21.468
REMARK  Name = 
REMARK  4 active torsions:
REMARK  status: ('A' for Active; 'I' for Inactive)
REMARK    1  A    between atoms: C_4  and  O_5
REMARK    2  A    between atoms: O_5  and  C_6
REMARK    3  A    between atoms: C_6  and  N_7
REMARK    4  A    between atoms: C_15  and  C_16
REMARK                            x       y       z     vdW  Elec       q    Type
REMARK                         _______ _______ _______ _____ _____    ______ ____
ROOT
ATOM      1  C   UNL     1      27.599   3.665  15.998  0.00  0.00    +0.000 C 
ATOM      2  C   UNL     1      26.470   3.386  16.943  0.00  0.00    +0.000 A 
ATOM      3  C   UNL     1      25.798   2.177  16.928  0.00  0.00    +0.000 A 
ATOM      4  C   UNL     1      24.761   1.926  17.800  0.00  0.00    +0.000 A 
ATOM      5  C   UNL     1      24.434   2.939  18.681  0.00  0.00    +0.000 A 
ATOM      6  C   UNL     1      25.106   4.144  18.694  0.00  0.00    +0.000 A 
ATOM      7  C   UNL     1      26.145   4.398  17.821  0.00  0.00    +0.000 A 
ENDROOT
BRANCH   7   8
ATOM      8  C   UNL     1      26.886   5.685  17.811  0.00  0.00    +0.000 C 
ATOM      9  C   UNL     1      27.583   5.919  19.117  0.00  0.00    +0.000 C 
ATOM     10  C   UNL     1      26.017   6.846  17.401  0.00  0.00    +0.000 C 
ENDBRANCH   7   8
BRANCH   4  11
ATOM     11  O   UNL     1      24.073   0.718  17.802  0.00  0.00    +0.000 OA
BRANCH  11  12
ATOM     12  C   UNL     1      23.198   0.268  16.821  0.00  0.00    +0.000 C 
BRANCH  12  13
ATOM     13  N   UNL     1      22.003   1.070  16.729  0.00  0.00    +0.000 N 
ATOM     14  C   UNL     1      21.141   1.294  17.731  0.00  0.00    +0.000 A 
ATOM     15  C   UNL     1      20.127   2.095  17.288  0.00  0.00    +0.000 A 
ATOM     16  C   UNL     1      20.394   2.359  15.974  0.00  0.00    +0.000 A 
ATOM     17  N   UNL     1      19.637   3.150  15.059  0.00  0.00    +0.000 NA
ATOM     18  N   UNL     1      21.536   1.721  15.676  0.00  0.00    +0.000 NA
ENDBRANCH  12  13
ENDBRANCH  11  12
ENDBRANCH   4  11
TORSDOF 4
ENDMDL
