MODEL 1
REMARK VINA RESULT:      -5.1      0.000      0.000
REMARK  Name = 
REMARK  4 active torsions:
REMARK  status: ('A' for Active; 'I' for Inactive)
REMARK    1  A    between atoms: N_2  and  C_3
REMARK    2  A    between atoms: N_2  and  C_12
REMARK    3  A    between atoms: C_3  and  N_5
REMARK    4  A    between atoms: N_5  and  C_6
REMARK                            x       y       z     vdW  Elec       q    Type
REMARK                         _______ _______ _______ _____ _____    ______ ____
ROOT
ATOM      1  C   UNL     1      27.930  26.208  26.606  0.00  0.00    +0.000 C 
ATOM      2  N   UNL     1      27.658  24.995  25.816  0.00  0.00    +0.000 N 
ENDROOT
BRANCH   2   3
ATOM      3  C   UNL     1      28.147  24.879  24.482  0.00  0.00    +0.000 A 
ATOM      4  C   UNL     1      27.336  24.562  23.412  0.00  0.00    +0.000 A 
ATOM      5  C   UNL     1      27.861  24.460  22.140  0.00  0.00    +0.000 A 
ATOM      6  C   UNL     1      29.196  24.664  21.865  0.00  0.00    +0.000 A 
ATOM      7  O   UNL     1      29.678  24.552  20.572  0.00  0.00    +0.000 OA
ATOM      8  C   UNL     1      30.016  24.983  22.934  0.00  0.00    +0.000 A 
ATOM      9  C   UNL     1      29.496  25.086  24.209  0.00  0.00    +0.000 A 
ENDBRANCH   2   3
BRANCH   2  10
ATOM     10  C   UNL     1      26.903  23.948  26.396  0.00  0.00    +0.000 C 
ATOM     11  S   UNL     1      25.442  24.241  27.035  0.00  0.00    +0.000 S 
BRANCH  10  12
ATOM     12  N   UNL     1      27.462  22.642  26.403  0.00  0.00    +0.000 NA
BRANCH  12  13
ATOM     13  C   UNL     1      28.517  22.273  27.295  0.00  0.00    +0.000 C 
ATOM     14  C   UNL     1      29.828  22.336  26.544  0.00  0.00    +0.000 C 
ATOM     15  C   UNL     1      30.897  21.869  27.495  0.00  0.00    +0.000 C 
ATOM     16  C   UNL     1      31.047  22.840  28.647  0.00  0.00    +0.000 C 
ATOM     17  C   UNL     1      29.860  23.733  28.828  0.00  0.00    +0.000 C 
ATOM     18  C   UNL     1      28.550  23.014  28.587  0.00  0.00    +0.000 C 
ENDBRANCH  12  13
ENDBRANCH  10  12
ENDBRANCH   2  10
TORSDOF 4
ENDMDL
MODEL 2
REMARK VINA RESULT:      -5.1     16.439     18.028
REMARK  Name = 
REMARK  4 active torsions:
REMARK  status: ('A' for Active; 'I' for Inactive)
REMARK    1  A    between atoms: N_2  and  C_3
REMARK    2  A    between atoms: N_2  and  C_12
REMARK    3  A    between atoms: C_3  and  N_5
REMARK    4  A    between atoms: N_5  and  C_6
REMARK                            x       y       z     vdW  Elec       q    Type
REMARK                         _______ _______ _______ _____ _____    ______ ____
ROOT
ATOM      1  C   UNL     1       9.694  23.489  23.119  0.00  0.00    +0.000 C 
ATOM      2  N   UNL     1      10.112  23.274  21.723  0.00  0.00    +0.000 N 
ENDROOT
BRANCH   2   3
ATOM      3  C   UNL     1      10.201  21.954  21.192  0.00  0.00    +0.000 A 
ATOM      4  C   UNL     1       9.602  21.580  20.007  0.00  0.00    +0.000 A 
ATOM      5  C   UNL     1       9.717  20.287  19.539  0.00  0.00    +0.000 A 
ATOM      6  C   UNL     1      10.422  19.312  20.210  0.00  0.00    +0.000 A 
ATOM      7  O   UNL     1      10.512  18.026  19.701  0.00  0.00    +0.000 OA
ATOM      8  C   UNL     1      11.026  19.679  21.400  0.00  0.00    +0.000 A 
ATOM      9  C   UNL     1      10.914  20.971  21.874  0.00  0.00    +0.000 A 
ENDBRANCH   2   3
BRANCH   2  10
ATOM     10  C   UNL     1      10.427  24.393  20.916  0.00  0.00    +0.000 C 
ATOM     11  S   UNL     1       9.252  25.302  20.269  0.00  0.00    +0.000 S 
BRANCH  10  12
ATOM     12  N   UNL     1      11.799  24.693  20.693  0.00  0.00    +0.000 NA
BRANCH  12  13
ATOM     13  C   UNL     1      12.843  24.069  21.444  0.00  0.00    +0.000 C 
ATOM     14  C   UNL     1      13.662  23.210  20.508  0.00  0.00    +0.000 C 
ATOM     15  C   UNL     1      14.700  22.515  21.351  0.00  0.00    +0.000 C 
ATOM     16  C   UNL     1      15.674  23.518  21.930  0.00  0.00    +0.000 C 
ATOM     17  C   UNL     1      15.151  24.921  21.933  0.00  0.00    +0.000 C 
ATOM     18  C   UNL     1      13.677  24.991  22.267  0.00  0.00    +0.000 C 
ENDBRANCH  12  13
ENDBRANCH  10  12
ENDBRANCH   2  10
TORSDOF 4
ENDMDL
MODEL 3
REMARK VINA RESULT:      -5.1     28.197     30.476
REMARK  Name = 
REMARK  4 active torsions:
REMARK  status: ('A' for Active; 'I' for Inactive)
REMARK    1  A    between atoms: N_2  and  C_3
REMARK    2  A    between atoms: N_2  and  C_12
REMARK    3  A    between atoms: C_3  and  N_5
REMARK    4  A    between atoms: N_5  and  C_6
REMARK                            x       y       z     vdW  Elec       q    Type
REMARK                         _______ _______ _______ _____ _____    ______ ____
ROOT
ATOM      1  C   UNL     1      33.652  -6.615  34.473  0.00  0.00    +0.000 C 
ATOM      2  N   UNL     1      32.691  -5.724  33.799  0.00  0.00    +0.000 N 
ENDROOT
BRANCH   2   3
ATOM      3  C   UNL     1      32.757  -4.314  33.993  0.00  0.00    +0.000 A 
ATOM      4  C   UNL     1      33.572  -3.491  33.244  0.00  0.00    +0.000 A 
ATOM      5  C   UNL     1      33.599  -2.131  33.476  0.00  0.00    +0.000 A 
ATOM      6  C   UNL     1      32.832  -1.524  34.446  0.00  0.00    +0.000 A 
ATOM      7  O   UNL     1      32.891  -0.154  34.642  0.00  0.00    +0.000 OA
ATOM      8  C   UNL     1      32.011  -2.344  35.202  0.00  0.00    +0.000 A 
ATOM      9  C   UNL     1      31.980  -3.705  34.975  0.00  0.00    +0.000 A 
ENDBRANCH   2   3
BRANCH   2  10
ATOM     10  C   UNL     1      31.700  -6.287  32.959  0.00  0.00    +0.000 C 
ATOM     11  S   UNL     1      30.454  -7.109  33.589  0.00  0.00    +0.000 S 
BRANCH  10  12
ATOM     12  N   UNL     1      31.833  -6.111  31.554  0.00  0.00    +0.000 NA
BRANCH  12  13
ATOM     13  C   UNL     1      33.058  -6.384  30.868  0.00  0.00    +0.000 C 
ATOM     14  C   UNL     1      32.973  -7.768  30.265  0.00  0.00    +0.000 C 
ATOM     15  C   UNL     1      34.306  -8.042  29.620  0.00  0.00    +0.000 C 
ATOM     16  C   UNL     1      34.535  -7.108  28.451  0.00  0.00    +0.000 C 
ATOM     17  C   UNL     1      33.668  -5.889  28.487  0.00  0.00    +0.000 C 
ATOM     18  C   UNL     1      33.486  -5.346  29.888  0.00  0.00    +0.000 C 
ENDBRANCH  12  13
ENDBRANCH  10  12
ENDBRANCH   2  10
TORSDOF 4
ENDMDL
MODEL 4
REMARK VINA RESULT:      -5.1      2.485      3.243
REMARK  Name = 
REMARK  4 active torsions:
REMARK  status: ('A' for Active; 'I' for Inactive)
REMARK    1  A    between atoms: N_2  and  C_3
REMARK    2  A    between atoms: N_2  and  C_12
REMARK    3  A    between atoms: C_3  and  N_5
REMARK    4  A    between atoms: N_5  and  C_6
REMARK                            x       y       z     vdW  Elec       q    Type
REMARK                         _______ _______ _______ _____ _____    ______ ____
ROOT
ATOM      1  C   UNL     1      28.432  25.673  27.037  0.00  0.00    +0.000 C 
ATOM      2  N   UNL     1      28.304  24.260  26.641  0.00  0.00    +0.000 N 
ENDROOT
BRANCH   2   3
ATOM      3  C   UNL     1      27.546  23.899  25.489  0.00  0.00    +0.000 A 
ATOM      4  C   UNL     1      27.971  24.156  24.202  0.00  0.00    +0.000 A 
ATOM      5  C   UNL     1      27.197  23.788  23.121  0.00  0.00    +0.000 A 
ATOM      6  C   UNL     1      25.981  23.155  23.256  0.00  0.00    +0.000 A 
ATOM      7  O   UNL     1      25.238  22.802  22.141  0.00  0.00    +0.000 OA
ATOM      8  C   UNL     1      25.548  22.893  24.545  0.00  0.00    +0.000 A 
ATOM      9  C   UNL     1      26.318  23.260  25.630  0.00  0.00    +0.000 A 
ENDBRANCH   2   3
BRANCH   2  10
ATOM     10  C   UNL     1      28.939  23.264  27.422  0.00  0.00    +0.000 C 
ATOM     11  S   UNL     1      28.591  23.103  28.997  0.00  0.00    +0.000 S 
BRANCH  10  12
ATOM     12  N   UNL     1      29.887  22.417  26.786  0.00  0.00    +0.000 NA
BRANCH  12  13
ATOM     13  C   UNL     1      31.191  22.876  26.423  0.00  0.00    +0.000 C 
ATOM     14  C   UNL     1      31.191  23.207  24.948  0.00  0.00    +0.000 C 
ATOM     15  C   UNL     1      32.598  23.612  24.593  0.00  0.00    +0.000 C 
ATOM     16  C   UNL     1      32.974  24.900  25.294  0.00  0.00    +0.000 C 
ATOM     17  C   UNL     1      32.105  25.210  26.473  0.00  0.00    +0.000 C 
ATOM     18  C   UNL     1      31.740  23.975  27.266  0.00  0.00    +0.000 C 
ENDBRANCH  12  13
ENDBRANCH  10  12
ENDBRANCH   2  10
TORSDOF 4
ENDMDL
MODEL 5
REMARK VINA RESULT:      -5.0      3.504      6.126
REMARK  Name = 
REMARK  4 active torsions:
REMARK  status: ('A' for Active; 'I' for Inactive)
REMARK    1  A    between atoms: N_2  and  C_3
REMARK    2  A    between atoms: N_2  and  C_12
REMARK    3  A    between atoms: C_3  and  N_5
REMARK    4  A    between atoms: N_5  and  C_6
REMARK                            x       y       z     vdW  Elec       q    Type
REMARK                         _______ _______ _______ _____ _____    ______ ____
ROOT
ATOM      1  C   UNL     1      29.494  25.866  27.888  0.00  0.00    +0.000 C 
ATOM      2  N   UNL     1      29.280  24.423  27.680  0.00  0.00    +0.000 N 
ENDROOT
BRANCH   2   3
ATOM      3  C   UNL     1      28.406  23.693  28.537  0.00  0.00    +0.000 A 
ATOM      4  C   UNL     1      28.861  22.859  29.537  0.00  0.00    +0.000 A 
ATOM      5  C   UNL     1      27.971  22.173  30.338  0.00  0.00    +0.000 A 
ATOM      6  C   UNL     1      26.605  22.275  30.192  0.00  0.00    +0.000 A 
ATOM      7  O   UNL     1      25.749  21.568  31.020  0.00  0.00    +0.000 OA
ATOM      8  C   UNL     1      26.141  23.110  29.190  0.00  0.00    +0.000 A 
ATOM      9  C   UNL     1      27.027  23.799  28.386  0.00  0.00    +0.000 A 
ENDBRANCH   2   3
BRANCH   2  10
ATOM     10  C   UNL     1      29.957  23.771  26.621  0.00  0.00    +0.000 C 
ATOM     11  S   UNL     1      31.576  23.778  26.548  0.00  0.00    +0.000 S 
BRANCH  10  12
ATOM     12  N   UNL     1      29.176  23.116  25.630  0.00  0.00    +0.000 NA
BRANCH  12  13
ATOM     13  C   UNL     1      28.579  23.827  24.543  0.00  0.00    +0.000 C 
ATOM     14  C   UNL     1      29.022  23.187  23.247  0.00  0.00    +0.000 C 
ATOM     15  C   UNL     1      28.433  24.009  22.132  0.00  0.00    +0.000 C 
ATOM     16  C   UNL     1      26.923  23.906  22.134  0.00  0.00    +0.000 C 
ATOM     17  C   UNL     1      26.363  23.433  23.438  0.00  0.00    +0.000 C 
ATOM     18  C   UNL     1      27.101  24.003  24.629  0.00  0.00    +0.000 C 
ENDBRANCH  12  13
ENDBRANCH  10  12
ENDBRANCH   2  10
TORSDOF 4
ENDMDL
MODEL 6
REMARK VINA RESULT:      -5.0      3.124      5.117
REMARK  Name = 
REMARK  4 active torsions:
REMARK  status: ('A' for Active; 'I' for Inactive)
REMARK    1  A    between atoms: N_2  and  C_3
REMARK    2  A    between atoms: N_2  and  C_12
REMARK    3  A    between atoms: C_3  and  N_5
REMARK    4  A    between atoms: N_5  and  C_6
REMARK                            x       y       z     vdW  Elec       q    Type
REMARK                         _______ _______ _______ _____ _____    ______ ____
ROOT
ATOM      1  C   UNL     1      26.467  26.423  26.193  0.00  0.00    +0.000 C 
ATOM      2  N   UNL     1      26.695  24.979  26.008  0.00  0.00    +0.000 N 
ENDROOT
BRANCH   2   3
ATOM      3  C   UNL     1      26.846  24.122  27.137  0.00  0.00    +0.000 A 
ATOM      4  C   UNL     1      27.848  23.179  27.233  0.00  0.00    +0.000 A 
ATOM      5  C   UNL     1      27.948  22.372  28.348  0.00  0.00    +0.000 A 
ATOM      6  C   UNL     1      27.075  22.457  29.411  0.00  0.00    +0.000 A 
ATOM      7  O   UNL     1      27.215  21.628  30.511  0.00  0.00    +0.000 OA
ATOM      8  C   UNL     1      26.067  23.402  29.322  0.00  0.00    +0.000 A 
ATOM      9  C   UNL     1      25.961  24.211  28.208  0.00  0.00    +0.000 A 
ENDBRANCH   2   3
BRANCH   2  10
ATOM     10  C   UNL     1      26.765  24.454  24.695  0.00  0.00    +0.000 C 
ATOM     11  S   UNL     1      25.805  23.228  24.243  0.00  0.00    +0.000 S 
BRANCH  10  12
ATOM     12  N   UNL     1      27.698  25.032  23.792  0.00  0.00    +0.000 NA
BRANCH  12  13
ATOM     13  C   UNL     1      29.032  24.534  23.657  0.00  0.00    +0.000 C 
ATOM     14  C   UNL     1      29.884  25.140  24.749  0.00  0.00    +0.000 C 
ATOM     15  C   UNL     1      31.291  24.650  24.525  0.00  0.00    +0.000 C 
ATOM     16  C   UNL     1      31.373  23.153  24.736  0.00  0.00    +0.000 C 
ATOM     17  C   UNL     1      30.044  22.468  24.654  0.00  0.00    +0.000 C 
ATOM     18  C   UNL     1      29.155  23.051  23.578  0.00  0.00    +0.000 C 
ENDBRANCH  12  13
ENDBRANCH  10  12
ENDBRANCH   2  10
TORSDOF 4
ENDMDL
MODEL 7
REMARK VINA RESULT:      -4.9      3.667      6.420
REMARK  Name = 
REMARK  4 active torsions:
REMARK  status: ('A' for Active; 'I' for Inactive)
REMARK    1  A    between atoms: N_2  and  C_3
REMARK    2  A    between atoms: N_2  and  C_12
REMARK    3  A    between atoms: C_3  and  N_5
REMARK    4  A    between atoms: N_5  and  C_6
REMARK                            x       y       z     vdW  Elec       q    Type
REMARK                         _______ _______ _______ _____ _____    ______ ____
ROOT
ATOM      1  C   UNL     1      29.533  24.820  29.447  0.00  0.00    +0.000 C 
ATOM      2  N   UNL     1      29.572  23.348  29.389  0.00  0.00    +0.000 N 
ENDROOT
BRANCH   2   3
ATOM      3  C   UNL     1      30.686  22.635  29.921  0.00  0.00    +0.000 A 
ATOM      4  C   UNL     1      31.841  22.406  29.202  0.00  0.00    +0.000 A 
ATOM      5  C   UNL     1      32.889  21.707  29.764  0.00  0.00    +0.000 A 
ATOM      6  C   UNL     1      32.849  21.206  31.047  0.00  0.00    +0.000 A 
ATOM      7  O   UNL     1      33.927  20.511  31.570  0.00  0.00    +0.000 OA
ATOM      8  C   UNL     1      31.693  21.432  31.774  0.00  0.00    +0.000 A 
ATOM      9  C   UNL     1      30.641  22.131  31.217  0.00  0.00    +0.000 A 
ENDBRANCH   2   3
BRANCH   2  10
ATOM     10  C   UNL     1      28.491  22.652  28.796  0.00  0.00    +0.000 C 
ATOM     11  S   UNL     1      27.106  22.432  29.607  0.00  0.00    +0.000 S 
BRANCH  10  12
ATOM     12  N   UNL     1      28.660  22.155  27.475  0.00  0.00    +0.000 NA
BRANCH  12  13
ATOM     13  C   UNL     1      29.130  22.982  26.407  0.00  0.00    +0.000 C 
ATOM     14  C   UNL     1      30.202  22.229  25.651  0.00  0.00    +0.000 C 
ATOM     15  C   UNL     1      30.719  23.162  24.588  0.00  0.00    +0.000 C 
ATOM     16  C   UNL     1      29.641  23.457  23.567  0.00  0.00    +0.000 C 
ATOM     17  C   UNL     1      28.259  23.166  24.063  0.00  0.00    +0.000 C 
ATOM     18  C   UNL     1      28.072  23.539  25.517  0.00  0.00    +0.000 C 
ENDBRANCH  12  13
ENDBRANCH  10  12
ENDBRANCH   2  10
TORSDOF 4
ENDMDL
MODEL 8
REMARK VINA RESULT:      -4.8     19.444     21.487
REMARK  Name = 
REMARK  4 active torsions:
REMARK  status: ('A' for Active; 'I' for Inactive)
REMARK    1  A    between atoms: N_2  and  C_3
REMARK    2  A    between atoms: N_2  and  C_12
REMARK    3  A    between atoms: C_3  and  N_5
REMARK    4  A    between atoms: N_5  and  C_6
REMARK                            x       y       z     vdW  Elec       q    Type
REMARK                         _______ _______ _______ _____ _____    ______ ____
ROOT
ATOM      1  C   UNL     1      19.445  12.428  38.177  0.00  0.00    +0.000 C 
ATOM      2  N   UNL     1      20.336  11.330  38.591  0.00  0.00    +0.000 N 
ENDROOT
BRANCH   2   3
ATOM      3  C   UNL     1      21.536  11.065  37.869  0.00  0.00    +0.000 A 
ATOM      4  C   UNL     1      21.640  10.058  36.932  0.00  0.00    +0.000 A 
ATOM      5  C   UNL     1      22.828   9.842  36.264  0.00  0.00    +0.000 A 
ATOM      6  C   UNL     1      23.956  10.601  36.484  0.00  0.00    +0.000 A 
ATOM      7  O   UNL     1      25.127  10.348  35.788  0.00  0.00    +0.000 OA
ATOM      8  C   UNL     1      23.860  11.613  37.423  0.00  0.00    +0.000 A 
ATOM      9  C   UNL     1      22.674  11.834  38.096  0.00  0.00    +0.000 A 
ENDBRANCH   2   3
BRANCH   2  10
ATOM     10  C   UNL     1      19.982  10.540  39.711  0.00  0.00    +0.000 C 
ATOM     11  S   UNL     1      20.733  10.742  41.133  0.00  0.00    +0.000 S 
BRANCH  10  12
ATOM     12  N   UNL     1      18.956   9.569  39.549  0.00  0.00    +0.000 NA
BRANCH  12  13
ATOM     13  C   UNL     1      18.033   9.260  40.596  0.00  0.00    +0.000 C 
ATOM     14  C   UNL     1      16.636   9.587  40.117  0.00  0.00    +0.000 C 
ATOM     15  C   UNL     1      15.707   9.319  41.272  0.00  0.00    +0.000 C 
ATOM     16  C   UNL     1      15.682   7.843  41.605  0.00  0.00    +0.000 C 
ATOM     17  C   UNL     1      16.863   7.094  41.070  0.00  0.00    +0.000 C 
ATOM     18  C   UNL     1      18.147   7.888  41.165  0.00  0.00    +0.000 C 
ENDBRANCH  12  13
ENDBRANCH  10  12
ENDBRANCH   2  10
TORSDOF 4
ENDMDL
MODEL 9
REMARK VINA RESULT:      -4.8     33.166     34.700
REMARK  Name = 
REMARK  4 active torsions:
REMARK  status: ('A' for Active; 'I' for Inactive)
REMARK    1  A    between atoms: N_2  and  C_3
REMARK    2  A    between atoms: N_2  and  C_12
REMARK    3  A    between atoms: C_3  and  N_5
REMARK    4  A    between atoms: N_5  and  C_6
REMARK                            x       y       z     vdW  Elec       q    Type
REMARK                         _______ _______ _______ _____ _____    ______ ____
ROOT
ATOM      1  C   UNL     1      18.590 -10.761  26.092  0.00  0.00    +0.000 C 
ATOM      2  N   UNL     1      19.449  -9.796  26.801  0.00  0.00    +0.000 N 
ENDROOT
BRANCH   2   3
ATOM      3  C   UNL     1      19.208  -8.396  26.685  0.00  0.00    +0.000 A 
ATOM      4  C   UNL     1      20.044  -7.547  25.990  0.00  0.00    +0.000 A 
ATOM      5  C   UNL     1      19.766  -6.198  25.912  0.00  0.00    +0.000 A 
ATOM      6  C   UNL     1      18.662  -5.628  26.507  0.00  0.00    +0.000 A 
ATOM      7  O   UNL     1      18.422  -4.268  26.400  0.00  0.00    +0.000 OA
ATOM      8  C   UNL     1      17.818  -6.474  27.207  0.00  0.00    +0.000 A 
ATOM      9  C   UNL     1      18.092  -7.825  27.289  0.00  0.00    +0.000 A 
ENDBRANCH   2   3
BRANCH   2  10
ATOM     10  C   UNL     1      20.517 -10.277  27.595  0.00  0.00    +0.000 C 
ATOM     11  S   UNL     1      21.664 -11.224  26.950  0.00  0.00    +0.000 S 
BRANCH  10  12
ATOM     12  N   UNL     1      20.553  -9.906  28.967  0.00  0.00    +0.000 NA
BRANCH  12  13
ATOM     13  C   UNL     1      19.679 -10.495  29.934  0.00  0.00    +0.000 C 
ATOM     14  C   UNL     1      18.593  -9.499  30.272  0.00  0.00    +0.000 C 
ATOM     15  C   UNL     1      17.744 -10.128  31.345  0.00  0.00    +0.000 C 
ATOM     16  C   UNL     1      17.020 -11.344  30.806  0.00  0.00    +0.000 C 
ATOM     17  C   UNL     1      17.633 -11.895  29.557  0.00  0.00    +0.000 C 
ATOM     18  C   UNL     1      19.145 -11.840  29.579  0.00  0.00    +0.000 C 
ENDBRANCH  12  13
ENDBRANCH  10  12
ENDBRANCH   2  10
TORSDOF 4
ENDMDL
MODEL 10
REMARK VINA RESULT:      -4.7      2.517      3.289
REMARK  Name = 
REMARK  4 active torsions:
REMARK  status: ('A' for Active; 'I' for Inactive)
REMARK    1  A    between atoms: N_2  and  C_3
REMARK    2  A    between atoms: N_2  and  C_12
REMARK    3  A    between atoms: C_3  and  N_5
REMARK    4  A    between atoms: N_5  and  C_6
REMARK                            x       y       z     vdW  Elec       q    Type
REMARK                         _______ _______ _______ _____ _____    ______ ____
ROOT
ATOM      1  C   UNL     1      30.003  26.683  24.868  0.00  0.00    +0.000 C 
ATOM      2  N   UNL     1      29.850  25.218  24.837  0.00  0.00    +0.000 N 
ENDROOT
BRANCH   2   3
ATOM      3  C   UNL     1      28.721  24.623  24.201  0.00  0.00    +0.000 A 
ATOM      4  C   UNL     1      27.532  24.381  24.858  0.00  0.00    +0.000 A 
ATOM      5  C   UNL     1      26.471  23.801  24.195  0.00  0.00    +0.000 A 
ATOM      6  C   UNL     1      26.530  23.437  22.867  0.00  0.00    +0.000 A 
ATOM      7  O   UNL     1      25.437  22.858  22.242  0.00  0.00    +0.000 OA
ATOM      8  C   UNL     1      27.719  23.677  22.201  0.00  0.00    +0.000 A 
ATOM      9  C   UNL     1      28.786  24.257  22.860  0.00  0.00    +0.000 A 
ENDBRANCH   2   3
BRANCH   2  10
ATOM     10  C   UNL     1      30.836  24.408  25.452  0.00  0.00    +0.000 C 
ATOM     11  S   UNL     1      31.765  23.421  24.563  0.00  0.00    +0.000 S 
BRANCH  10  12
ATOM     12  N   UNL     1      30.983  24.486  26.863  0.00  0.00    +0.000 NA
BRANCH  12  13
ATOM     13  C   UNL     1      30.214  23.673  27.752  0.00  0.00    +0.000 C 
ATOM     14  C   UNL     1      29.036  24.481  28.248  0.00  0.00    +0.000 C 
ATOM     15  C   UNL     1      28.298  23.615  29.235  0.00  0.00    +0.000 C 
ATOM     16  C   UNL     1      27.696  22.412  28.542  0.00  0.00    +0.000 C 
ATOM     17  C   UNL     1      28.324  22.114  27.217  0.00  0.00    +0.000 C 
ATOM     18  C   UNL     1      29.820  22.338  27.219  0.00  0.00    +0.000 C 
ENDBRANCH  12  13
ENDBRANCH  10  12
ENDBRANCH   2  10
TORSDOF 4
ENDMDL
