MODEL 1
REMARK VINA RESULT:      -7.7      0.000      0.000
REMARK  Name = 
REMARK  7 active torsions:
REMARK  status: ('A' for Active; 'I' for Inactive)
REMARK    1  A    between atoms: O_2  and  C_3
REMARK    2  A    between atoms: C_6  and  C_7
REMARK    3  A    between atoms: C_7  and  C_8
REMARK    4  A    between atoms: C_7  and  C_15
REMARK    5  A    between atoms: C_8  and  C_9
REMARK    6  A    between atoms: C_23  and  O_24
REMARK    7  A    between atoms: O_24  and  C_25
REMARK                            x       y       z     vdW  Elec       q    Type
REMARK                         _______ _______ _______ _____ _____    ______ ____
ROOT
ATOM      1  C   UNL     1      38.653   2.062  13.201  0.00  0.00    +0.000 A 
ATOM      2  C   UNL     1      39.193   1.380  12.139  0.00  0.00    +0.000 A 
ATOM      3  C   UNL     1      39.532   0.036  12.267  0.00  0.00    +0.000 A 
ATOM      4  C   UNL     1      39.348  -0.626  13.400  0.00  0.00    +0.000 A 
ATOM      5  C   UNL     1      38.811   0.023  14.480  0.00  0.00    +0.000 A 
ATOM      6  C   UNL     1      38.457   1.387  14.382  0.00  0.00    +0.000 A 
ENDROOT
BRANCH   1   8
ATOM      7  C   UNL     1      37.336   3.856  12.153  0.00  0.00    +0.000 C 
ATOM      8  O   UNL     1      38.305   3.426  13.082  0.00  0.00    +0.000 OA
ENDBRANCH   1   8
BRANCH   4   9
ATOM      9  C   UNL     1      39.656  -2.147  13.637  0.00  0.00    +0.000 C 
BRANCH   9  10
ATOM     10  C   UNL     1      41.213  -2.200  13.597  0.00  0.00    +0.000 A 
ATOM     11  C   UNL     1      41.990  -1.527  14.476  0.00  0.00    +0.000 A 
ATOM     12  C   UNL     1      43.395  -1.595  14.379  0.00  0.00    +0.000 A 
ATOM     13  C   UNL     1      43.969  -2.350  13.385  0.00  0.00    +0.000 A 
ATOM     14  N   UNL     1      45.415  -2.425  13.278  0.00  0.00    +0.000 NA
ATOM     15  C   UNL     1      43.176  -3.034  12.493  0.00  0.00    +0.000 A 
ATOM     16  C   UNL     1      41.770  -2.947  12.615  0.00  0.00    +0.000 A 
ENDBRANCH   9  10
BRANCH   9  17
ATOM     17  C   UNL     1      39.510  -2.119  15.276  0.00  0.00    +0.000 C 
BRANCH  17  18
ATOM     18  C   UNL     1      38.597  -3.163  15.689  0.00  0.00    +0.000 A 
ATOM     19  C   UNL     1      37.482  -3.578  14.950  0.00  0.00    +0.000 A 
ATOM     20  C   UNL     1      36.629  -4.551  15.347  0.00  0.00    +0.000 A 
ATOM     21  N   UNL     1      36.825  -5.178  16.505  0.00  0.00    +0.000 NA
ATOM     22  C   UNL     1      37.886  -4.837  17.287  0.00  0.00    +0.000 A 
ATOM     23  C   UNL     1      38.751  -3.844  16.874  0.00  0.00    +0.000 A 
ENDBRANCH  17  18
ENDBRANCH   9  17
ENDBRANCH   4   9
BRANCH   6  24
ATOM     24  O   UNL     1      37.912   2.058  15.470  0.00  0.00    +0.000 OA
BRANCH  24  25
ATOM     25  C   UNL     1      36.541   2.443  15.437  0.00  0.00    +0.000 C 
ATOM     26  C   UNL     1      35.759   1.236  14.968  0.00  0.00    +0.000 C 
ATOM     27  C   UNL     1      35.739   0.390  16.175  0.00  0.00    +0.000 A 
ATOM     28  C   UNL     1      35.613  -0.967  16.337  0.00  0.00    +0.000 A 
ATOM     29  C   UNL     1      35.618  -1.569  17.586  0.00  0.00    +0.000 A 
ATOM     30  C   UNL     1      35.755  -0.754  18.684  0.00  0.00    +0.000 A 
ATOM     31  C   UNL     1      35.882   0.625  18.514  0.00  0.00    +0.000 A 
ATOM     32  C   UNL     1      35.876   1.207  17.275  0.00  0.00    +0.000 A 
ATOM     33  C   UNL     1      35.997   2.620  16.861  0.00  0.00    +0.000 C 
ENDBRANCH  24  25
ENDBRANCH   6  24
TORSDOF 7
ENDMDL
MODEL 2
REMARK VINA RESULT:      -7.6      3.949      7.368
REMARK  Name = 
REMARK  7 active torsions:
REMARK  status: ('A' for Active; 'I' for Inactive)
REMARK    1  A    between atoms: O_2  and  C_3
REMARK    2  A    between atoms: C_6  and  C_7
REMARK    3  A    between atoms: C_7  and  C_8
REMARK    4  A    between atoms: C_7  and  C_15
REMARK    5  A    between atoms: C_8  and  C_9
REMARK    6  A    between atoms: C_23  and  O_24
REMARK    7  A    between atoms: O_24  and  C_25
REMARK                            x       y       z     vdW  Elec       q    Type
REMARK                         _______ _______ _______ _____ _____    ______ ____
ROOT
ATOM      1  C   UNL     1      38.513   0.154  14.706  0.00  0.00    +0.000 A 
ATOM      2  C   UNL     1      39.355   1.207  14.449  0.00  0.00    +0.000 A 
ATOM      3  C   UNL     1      38.923   2.516  14.650  0.00  0.00    +0.000 A 
ATOM      4  C   UNL     1      37.703   2.789  15.089  0.00  0.00    +0.000 A 
ATOM      5  C   UNL     1      36.838   1.762  15.356  0.00  0.00    +0.000 A 
ATOM      6  C   UNL     1      37.246   0.424  15.163  0.00  0.00    +0.000 A 
ENDROOT
BRANCH   1   8
ATOM      7  C   UNL     1      40.235  -1.595  14.880  0.00  0.00    +0.000 C 
ATOM      8  O   UNL     1      38.940  -1.178  14.506  0.00  0.00    +0.000 OA
ENDBRANCH   1   8
BRANCH   4   9
ATOM      9  C   UNL     1      37.133   4.221  15.387  0.00  0.00    +0.000 C 
BRANCH   9  10
ATOM     10  C   UNL     1      38.240   4.861  16.277  0.00  0.00    +0.000 A 
ATOM     11  C   UNL     1      39.244   5.611  15.768  0.00  0.00    +0.000 A 
ATOM     12  C   UNL     1      40.232   6.148  16.620  0.00  0.00    +0.000 A 
ATOM     13  C   UNL     1      40.166   5.904  17.970  0.00  0.00    +0.000 A 
ATOM     14  N   UNL     1      41.179   6.453  18.854  0.00  0.00    +0.000 NA
ATOM     15  C   UNL     1      39.143   5.142  18.484  0.00  0.00    +0.000 A 
ATOM     16  C   UNL     1      38.167   4.616  17.607  0.00  0.00    +0.000 A 
ENDBRANCH   9  10
BRANCH   9  17
ATOM     17  C   UNL     1      37.604   4.913  13.971  0.00  0.00    +0.000 C 
BRANCH  17  18
ATOM     18  C   UNL     1      36.464   5.556  13.354  0.00  0.00    +0.000 A 
ATOM     19  C   UNL     1      36.358   5.839  11.987  0.00  0.00    +0.000 A 
ATOM     20  C   UNL     1      35.291   6.448  11.420  0.00  0.00    +0.000 A 
ATOM     21  N   UNL     1      34.256   6.817  12.171  0.00  0.00    +0.000 NA
ATOM     22  C   UNL     1      34.275   6.580  13.512  0.00  0.00    +0.000 A 
ATOM     23  C   UNL     1      35.368   5.958  14.082  0.00  0.00    +0.000 A 
ENDBRANCH  17  18
ENDBRANCH   9  17
ENDBRANCH   4   9
BRANCH   6  24
ATOM     24  O   UNL     1      36.376  -0.628  15.429  0.00  0.00    +0.000 OA
BRANCH  24  25
ATOM     25  C   UNL     1      35.820  -0.759  16.734  0.00  0.00    +0.000 C 
ATOM     26  C   UNL     1      34.995  -2.028  16.732  0.00  0.00    +0.000 C 
ATOM     27  C   UNL     1      36.032  -3.073  16.810  0.00  0.00    +0.000 A 
ATOM     28  C   UNL     1      36.040  -4.385  16.407  0.00  0.00    +0.000 A 
ATOM     29  C   UNL     1      37.141  -5.209  16.580  0.00  0.00    +0.000 A 
ATOM     30  C   UNL     1      38.253  -4.667  17.178  0.00  0.00    +0.000 A 
ATOM     31  C   UNL     1      38.241  -3.332  17.586  0.00  0.00    +0.000 A 
ATOM     32  C   UNL     1      37.146  -2.529  17.409  0.00  0.00    +0.000 A 
ATOM     33  C   UNL     1      36.912  -1.111  17.753  0.00  0.00    +0.000 C 
ENDBRANCH  24  25
ENDBRANCH   6  24
TORSDOF 7
ENDMDL
MODEL 3
REMARK VINA RESULT:      -7.6      5.852      8.826
REMARK  Name = 
REMARK  7 active torsions:
REMARK  status: ('A' for Active; 'I' for Inactive)
REMARK    1  A    between atoms: O_2  and  C_3
REMARK    2  A    between atoms: C_6  and  C_7
REMARK    3  A    between atoms: C_7  and  C_8
REMARK    4  A    between atoms: C_7  and  C_15
REMARK    5  A    between atoms: C_8  and  C_9
REMARK    6  A    between atoms: C_23  and  O_24
REMARK    7  A    between atoms: O_24  and  C_25
REMARK                            x       y       z     vdW  Elec       q    Type
REMARK                         _______ _______ _______ _____ _____    ______ ____
ROOT
ATOM      1  C   UNL     1      39.213   4.068  15.277  0.00  0.00    +0.000 A 
ATOM      2  C   UNL     1      39.983   5.202  15.348  0.00  0.00    +0.000 A 
ATOM      3  C   UNL     1      39.732   6.162  16.325  0.00  0.00    +0.000 A 
ATOM      4  C   UNL     1      38.756   6.019  17.210  0.00  0.00    +0.000 A 
ATOM      5  C   UNL     1      37.968   4.899  17.168  0.00  0.00    +0.000 A 
ATOM      6  C   UNL     1      38.198   3.907  16.189  0.00  0.00    +0.000 A 
ENDROOT
BRANCH   1   8
ATOM      7  C   UNL     1      39.483   3.419  12.919  0.00  0.00    +0.000 C 
ATOM      8  O   UNL     1      39.458   3.087  14.290  0.00  0.00    +0.000 OA
ENDBRANCH   1   8
BRANCH   4   9
ATOM      9  C   UNL     1      38.416   7.017  18.373  0.00  0.00    +0.000 C 
BRANCH   9  10
ATOM     10  C   UNL     1      39.779   7.169  19.113  0.00  0.00    +0.000 A 
ATOM     11  C   UNL     1      40.401   6.133  19.720  0.00  0.00    +0.000 A 
ATOM     12  C   UNL     1      41.624   6.334  20.393  0.00  0.00    +0.000 A 
ATOM     13  C   UNL     1      42.178   7.591  20.427  0.00  0.00    +0.000 A 
ATOM     14  N   UNL     1      43.437   7.806  21.118  0.00  0.00    +0.000 NA
ATOM     15  C   UNL     1      41.543   8.642  19.809  0.00  0.00    +0.000 A 
ATOM     16  C   UNL     1      40.318   8.411  19.141  0.00  0.00    +0.000 A 
ENDBRANCH   9  10
BRANCH   9  17
ATOM     17  C   UNL     1      38.530   8.395  17.481  0.00  0.00    +0.000 C 
BRANCH  17  18
ATOM     18  C   UNL     1      37.201   8.838  17.120  0.00  0.00    +0.000 A 
ATOM     19  C   UNL     1      36.290   9.420  18.012  0.00  0.00    +0.000 A 
ATOM     20  C   UNL     1      35.046   9.825  17.667  0.00  0.00    +0.000 A 
ATOM     21  N   UNL     1      34.621   9.681  16.414  0.00  0.00    +0.000 NA
ATOM     22  C   UNL     1      35.441   9.124  15.481  0.00  0.00    +0.000 A 
ATOM     23  C   UNL     1      36.709   8.714  15.841  0.00  0.00    +0.000 A 
ENDBRANCH  17  18
ENDBRANCH   9  17
ENDBRANCH   4   9
BRANCH   6  24
ATOM     24  O   UNL     1      37.405   2.767  16.136  0.00  0.00    +0.000 OA
BRANCH  24  25
ATOM     25  C   UNL     1      36.172   2.807  15.425  0.00  0.00    +0.000 C 
ATOM     26  C   UNL     1      36.203   1.666  14.431  0.00  0.00    +0.000 C 
ATOM     27  C   UNL     1      35.944   0.497  15.291  0.00  0.00    +0.000 A 
ATOM     28  C   UNL     1      36.270  -0.829  15.153  0.00  0.00    +0.000 A 
ATOM     29  C   UNL     1      35.920  -1.782  16.098  0.00  0.00    +0.000 A 
ATOM     30  C   UNL     1      35.224  -1.356  17.203  0.00  0.00    +0.000 A 
ATOM     31  C   UNL     1      34.894  -0.006  17.338  0.00  0.00    +0.000 A 
ATOM     32  C   UNL     1      35.245   0.924  16.398  0.00  0.00    +0.000 A 
ATOM     33  C   UNL     1      35.011   2.382  16.334  0.00  0.00    +0.000 C 
ENDBRANCH  24  25
ENDBRANCH   6  24
TORSDOF 7
ENDMDL
MODEL 4
REMARK VINA RESULT:      -7.6      2.570      4.605
REMARK  Name = 
REMARK  7 active torsions:
REMARK  status: ('A' for Active; 'I' for Inactive)
REMARK    1  A    between atoms: O_2  and  C_3
REMARK    2  A    between atoms: C_6  and  C_7
REMARK    3  A    between atoms: C_7  and  C_8
REMARK    4  A    between atoms: C_7  and  C_15
REMARK    5  A    between atoms: C_8  and  C_9
REMARK    6  A    between atoms: C_23  and  O_24
REMARK    7  A    between atoms: O_24  and  C_25
REMARK                            x       y       z     vdW  Elec       q    Type
REMARK                         _______ _______ _______ _____ _____    ______ ____
ROOT
ATOM      1  C   UNL     1      39.226  -2.211  16.203  0.00  0.00    +0.000 A 
ATOM      2  C   UNL     1      40.120  -3.194  15.857  0.00  0.00    +0.000 A 
ATOM      3  C   UNL     1      41.047  -2.973  14.842  0.00  0.00    +0.000 A 
ATOM      4  C   UNL     1      41.102  -1.825  14.183  0.00  0.00    +0.000 A 
ATOM      5  C   UNL     1      40.225  -0.822  14.504  0.00  0.00    +0.000 A 
ATOM      6  C   UNL     1      39.273  -1.016  15.529  0.00  0.00    +0.000 A 
ENDROOT
BRANCH   1   8
ATOM      7  C   UNL     1      38.635  -3.086  18.426  0.00  0.00    +0.000 C 
ATOM      8  O   UNL     1      38.281  -2.424  17.232  0.00  0.00    +0.000 OA
ENDBRANCH   1   8
BRANCH   4   9
ATOM      9  C   UNL     1      42.131  -1.460  13.056  0.00  0.00    +0.000 C 
BRANCH   9  10
ATOM     10  C   UNL     1      43.476  -1.340  13.834  0.00  0.00    +0.000 A 
ATOM     11  C   UNL     1      43.753  -0.306  14.660  0.00  0.00    +0.000 A 
ATOM     12  C   UNL     1      44.996  -0.240  15.324  0.00  0.00    +0.000 A 
ATOM     13  C   UNL     1      45.923  -1.234  15.124  0.00  0.00    +0.000 A 
ATOM     14  N   UNL     1      47.205  -1.174  15.803  0.00  0.00    +0.000 NA
ATOM     15  C   UNL     1      45.637  -2.285  14.284  0.00  0.00    +0.000 A 
ATOM     16  C   UNL     1      44.383  -2.325  13.633  0.00  0.00    +0.000 A 
ENDBRANCH   9  10
BRANCH   9  17
ATOM     17  C   UNL     1      42.366  -2.993  12.507  0.00  0.00    +0.000 C 
BRANCH  17  18
ATOM     18  C   UNL     1      41.836  -3.104  11.166  0.00  0.00    +0.000 A 
ATOM     19  C   UNL     1      41.995  -4.224  10.341  0.00  0.00    +0.000 A 
ATOM     20  C   UNL     1      41.501  -4.316   9.084  0.00  0.00    +0.000 A 
ATOM     21  N   UNL     1      40.815  -3.303   8.561  0.00  0.00    +0.000 NA
ATOM     22  C   UNL     1      40.612  -2.173   9.294  0.00  0.00    +0.000 A 
ATOM     23  C   UNL     1      41.119  -2.088  10.575  0.00  0.00    +0.000 A 
ENDBRANCH  17  18
ENDBRANCH   9  17
ENDBRANCH   4   9
BRANCH   6  24
ATOM     24  O   UNL     1      38.377  -0.006  15.863  0.00  0.00    +0.000 OA
BRANCH  24  25
ATOM     25  C   UNL     1      37.452   0.458  14.885  0.00  0.00    +0.000 C 
ATOM     26  C   UNL     1      36.803  -0.768  14.280  0.00  0.00    +0.000 C 
ATOM     27  C   UNL     1      35.853  -1.169  15.334  0.00  0.00    +0.000 A 
ATOM     28  C   UNL     1      35.297  -2.384  15.649  0.00  0.00    +0.000 A 
ATOM     29  C   UNL     1      34.407  -2.543  16.700  0.00  0.00    +0.000 A 
ATOM     30  C   UNL     1      34.089  -1.429  17.439  0.00  0.00    +0.000 A 
ATOM     31  C   UNL     1      34.657  -0.196  17.114  0.00  0.00    +0.000 A 
ATOM     32  C   UNL     1      35.534  -0.052  16.073  0.00  0.00    +0.000 A 
ATOM     33  C   UNL     1      36.250   1.134  15.558  0.00  0.00    +0.000 C 
ENDBRANCH  24  25
ENDBRANCH   6  24
TORSDOF 7
ENDMDL
MODEL 5
REMARK VINA RESULT:      -7.5      2.483      4.875
REMARK  Name = 
REMARK  7 active torsions:
REMARK  status: ('A' for Active; 'I' for Inactive)
REMARK    1  A    between atoms: O_2  and  C_3
REMARK    2  A    between atoms: C_6  and  C_7
REMARK    3  A    between atoms: C_7  and  C_8
REMARK    4  A    between atoms: C_7  and  C_15
REMARK    5  A    between atoms: C_8  and  C_9
REMARK    6  A    between atoms: C_23  and  O_24
REMARK    7  A    between atoms: O_24  and  C_25
REMARK                            x       y       z     vdW  Elec       q    Type
REMARK                         _______ _______ _______ _____ _____    ______ ____
ROOT
ATOM      1  C   UNL     1      38.737  -2.820  17.001  0.00  0.00    +0.000 A 
ATOM      2  C   UNL     1      39.682  -3.526  16.299  0.00  0.00    +0.000 A 
ATOM      3  C   UNL     1      40.362  -2.928  15.241  0.00  0.00    +0.000 A 
ATOM      4  C   UNL     1      40.126  -1.676  14.878  0.00  0.00    +0.000 A 
ATOM      5  C   UNL     1      39.190  -0.943  15.557  0.00  0.00    +0.000 A 
ATOM      6  C   UNL     1      38.484  -1.520  16.635  0.00  0.00    +0.000 A 
ENDROOT
BRANCH   1   8
ATOM      7  C   UNL     1      38.583  -3.432  19.380  0.00  0.00    +0.000 C 
ATOM      8  O   UNL     1      38.042  -3.416  18.077  0.00  0.00    +0.000 OA
ENDBRANCH   1   8
BRANCH   4   9
ATOM      9  C   UNL     1      40.863  -0.897  13.731  0.00  0.00    +0.000 C 
BRANCH   9  10
ATOM     10  C   UNL     1      42.238  -1.624  13.641  0.00  0.00    +0.000 A 
ATOM     11  C   UNL     1      43.271  -1.340  14.467  0.00  0.00    +0.000 A 
ATOM     12  C   UNL     1      44.500  -2.016  14.327  0.00  0.00    +0.000 A 
ATOM     13  C   UNL     1      44.642  -2.966  13.344  0.00  0.00    +0.000 A 
ATOM     14  N   UNL     1      45.904  -3.666  13.192  0.00  0.00    +0.000 NA
ATOM     15  C   UNL     1      43.590  -3.253  12.506  0.00  0.00    +0.000 A 
ATOM     16  C   UNL     1      42.368  -2.559  12.671  0.00  0.00    +0.000 A 
ENDBRANCH   9  10
BRANCH   9  17
ATOM     17  C   UNL     1      40.150  -1.686  12.475  0.00  0.00    +0.000 C 
BRANCH  17  18
ATOM     18  C   UNL     1      39.505  -0.721  11.613  0.00  0.00    +0.000 A 
ATOM     19  C   UNL     1      38.303  -0.067  11.915  0.00  0.00    +0.000 A 
ATOM     20  C   UNL     1      37.703   0.830  11.098  0.00  0.00    +0.000 A 
ATOM     21  N   UNL     1      38.255   1.140   9.927  0.00  0.00    +0.000 NA
ATOM     22  C   UNL     1      39.424   0.551   9.553  0.00  0.00    +0.000 A 
ATOM     23  C   UNL     1      40.029  -0.363  10.392  0.00  0.00    +0.000 A 
ENDBRANCH  17  18
ENDBRANCH   9  17
ENDBRANCH   4   9
BRANCH   6  24
ATOM     24  O   UNL     1      37.531  -0.787  17.332  0.00  0.00    +0.000 OA
BRANCH  24  25
ATOM     25  C   UNL     1      36.152  -1.103  17.171  0.00  0.00    +0.000 C 
ATOM     26  C   UNL     1      35.367   0.065  17.726  0.00  0.00    +0.000 C 
ATOM     27  C   UNL     1      35.507   1.070  16.657  0.00  0.00    +0.000 A 
ATOM     28  C   UNL     1      35.449   2.441  16.678  0.00  0.00    +0.000 A 
ATOM     29  C   UNL     1      35.609   3.209  15.534  0.00  0.00    +0.000 A 
ATOM     30  C   UNL     1      35.834   2.548  14.351  0.00  0.00    +0.000 A 
ATOM     31  C   UNL     1      35.892   1.154  14.335  0.00  0.00    +0.000 A 
ATOM     32  C   UNL     1      35.732   0.407  15.471  0.00  0.00    +0.000 A 
ATOM     33  C   UNL     1      35.757  -1.054  15.689  0.00  0.00    +0.000 C 
ENDBRANCH  24  25
ENDBRANCH   6  24
TORSDOF 7
ENDMDL
MODEL 6
REMARK VINA RESULT:      -7.5      2.752      5.475
REMARK  Name = 
REMARK  7 active torsions:
REMARK  status: ('A' for Active; 'I' for Inactive)
REMARK    1  A    between atoms: O_2  and  C_3
REMARK    2  A    between atoms: C_6  and  C_7
REMARK    3  A    between atoms: C_7  and  C_8
REMARK    4  A    between atoms: C_7  and  C_15
REMARK    5  A    between atoms: C_8  and  C_9
REMARK    6  A    between atoms: C_23  and  O_24
REMARK    7  A    between atoms: O_24  and  C_25
REMARK                            x       y       z     vdW  Elec       q    Type
REMARK                         _______ _______ _______ _____ _____    ______ ____
ROOT
ATOM      1  C   UNL     1      39.318  -2.943  16.517  0.00  0.00    +0.000 A 
ATOM      2  C   UNL     1      40.393  -3.263  15.723  0.00  0.00    +0.000 A 
ATOM      3  C   UNL     1      40.873  -2.347  14.791  0.00  0.00    +0.000 A 
ATOM      4  C   UNL     1      40.322  -1.152  14.637  0.00  0.00    +0.000 A 
ATOM      5  C   UNL     1      39.249  -0.800  15.412  0.00  0.00    +0.000 A 
ATOM      6  C   UNL     1      38.738  -1.707  16.367  0.00  0.00    +0.000 A 
ENDROOT
BRANCH   1   8
ATOM      7  C   UNL     1      38.102  -5.010  17.068  0.00  0.00    +0.000 C 
ATOM      8  O   UNL     1      38.822  -3.864  17.466  0.00  0.00    +0.000 OA
ENDBRANCH   1   8
BRANCH   4   9
ATOM      9  C   UNL     1      40.810  -0.035  13.648  0.00  0.00    +0.000 C 
BRANCH   9  10
ATOM     10  C   UNL     1      41.007  -0.811  12.311  0.00  0.00    +0.000 A 
ATOM     11  C   UNL     1      39.974  -1.325  11.605  0.00  0.00    +0.000 A 
ATOM     12  C   UNL     1      40.213  -2.037  10.412  0.00  0.00    +0.000 A 
ATOM     13  C   UNL     1      41.504  -2.205   9.972  0.00  0.00    +0.000 A 
ATOM     14  N   UNL     1      41.759  -2.938   8.744  0.00  0.00    +0.000 NA
ATOM     15  C   UNL     1      42.552  -1.682  10.692  0.00  0.00    +0.000 A 
ATOM     16  C   UNL     1      42.282  -0.972  11.885  0.00  0.00    +0.000 A 
ENDBRANCH   9  10
BRANCH   9  17
ATOM     17  C   UNL     1      39.322   0.574  13.296  0.00  0.00    +0.000 C 
BRANCH  17  18
ATOM     18  C   UNL     1      39.366   2.017  13.384  0.00  0.00    +0.000 A 
ATOM     19  C   UNL     1      39.336   2.739  14.584  0.00  0.00    +0.000 A 
ATOM     20  C   UNL     1      39.371   4.090  14.657  0.00  0.00    +0.000 A 
ATOM     21  N   UNL     1      39.439   4.816  13.543  0.00  0.00    +0.000 NA
ATOM     22  C   UNL     1      39.472   4.196  12.332  0.00  0.00    +0.000 A 
ATOM     23  C   UNL     1      39.437   2.817  12.267  0.00  0.00    +0.000 A 
ENDBRANCH  17  18
ENDBRANCH   9  17
ENDBRANCH   4   9
BRANCH   6  24
ATOM     24  O   UNL     1      37.649  -1.362  17.159  0.00  0.00    +0.000 OA
BRANCH  24  25
ATOM     25  C   UNL     1      36.351  -1.830  16.804  0.00  0.00    +0.000 C 
ATOM     26  C   UNL     1      35.356  -0.939  17.514  0.00  0.00    +0.000 C 
ATOM     27  C   UNL     1      35.398   0.288  16.697  0.00  0.00    +0.000 A 
ATOM     28  C   UNL     1      35.118   1.597  17.000  0.00  0.00    +0.000 A 
ATOM     29  C   UNL     1      35.223   2.614  16.064  0.00  0.00    +0.000 A 
ATOM     30  C   UNL     1      35.625   2.272  14.795  0.00  0.00    +0.000 A 
ATOM     31  C   UNL     1      35.908   0.939  14.492  0.00  0.00    +0.000 A 
ATOM     32  C   UNL     1      35.800  -0.056  15.426  0.00  0.00    +0.000 A 
ATOM     33  C   UNL     1      36.047  -1.510  15.334  0.00  0.00    +0.000 C 
ENDBRANCH  24  25
ENDBRANCH   6  24
TORSDOF 7
ENDMDL
MODEL 7
REMARK VINA RESULT:      -7.3      3.619      6.997
REMARK  Name = 
REMARK  7 active torsions:
REMARK  status: ('A' for Active; 'I' for Inactive)
REMARK    1  A    between atoms: O_2  and  C_3
REMARK    2  A    between atoms: C_6  and  C_7
REMARK    3  A    between atoms: C_7  and  C_8
REMARK    4  A    between atoms: C_7  and  C_15
REMARK    5  A    between atoms: C_8  and  C_9
REMARK    6  A    between atoms: C_23  and  O_24
REMARK    7  A    between atoms: O_24  and  C_25
REMARK                            x       y       z     vdW  Elec       q    Type
REMARK                         _______ _______ _______ _____ _____    ______ ____
ROOT
ATOM      1  C   UNL     1      35.674   0.191  16.849  0.00  0.00    +0.000 A 
ATOM      2  C   UNL     1      34.836   1.274  16.750  0.00  0.00    +0.000 A 
ATOM      3  C   UNL     1      35.257   2.429  16.096  0.00  0.00    +0.000 A 
ATOM      4  C   UNL     1      36.462   2.525  15.553  0.00  0.00    +0.000 A 
ATOM      5  C   UNL     1      37.322   1.463  15.633  0.00  0.00    +0.000 A 
ATOM      6  C   UNL     1      36.925   0.277  16.290  0.00  0.00    +0.000 A 
ENDROOT
BRANCH   1   8
ATOM      7  C   UNL     1      33.927  -1.446  17.419  0.00  0.00    +0.000 C 
ATOM      8  O   UNL     1      35.257  -0.986  17.511  0.00  0.00    +0.000 OA
ENDBRANCH   1   8
BRANCH   4   9
ATOM      9  C   UNL     1      37.017   3.761  14.761  0.00  0.00    +0.000 C 
BRANCH   9  10
ATOM     10  C   UNL     1      38.026   4.396  15.764  0.00  0.00    +0.000 A 
ATOM     11  C   UNL     1      37.855   4.343  17.105  0.00  0.00    +0.000 A 
ATOM     12  C   UNL     1      38.791   4.954  17.965  0.00  0.00    +0.000 A 
ATOM     13  C   UNL     1      39.878   5.602  17.431  0.00  0.00    +0.000 A 
ATOM     14  N   UNL     1      40.846   6.233  18.310  0.00  0.00    +0.000 NA
ATOM     15  C   UNL     1      40.050   5.653  16.068  0.00  0.00    +0.000 A 
ATOM     16  C   UNL     1      39.095   5.032  15.229  0.00  0.00    +0.000 A 
ENDBRANCH   9  10
BRANCH   9  17
ATOM     17  C   UNL     1      38.129   2.934  13.872  0.00  0.00    +0.000 C 
BRANCH  17  18
ATOM     18  C   UNL     1      37.745   2.971  12.478  0.00  0.00    +0.000 A 
ATOM     19  C   UNL     1      37.433   4.140  11.773  0.00  0.00    +0.000 A 
ATOM     20  C   UNL     1      37.067   4.164  10.470  0.00  0.00    +0.000 A 
ATOM     21  N   UNL     1      36.986   3.030   9.779  0.00  0.00    +0.000 NA
ATOM     22  C   UNL     1      37.272   1.846  10.386  0.00  0.00    +0.000 A 
ATOM     23  C   UNL     1      37.645   1.830  11.715  0.00  0.00    +0.000 A 
ENDBRANCH  17  18
ENDBRANCH   9  17
ENDBRANCH   4   9
BRANCH   6  24
ATOM     24  O   UNL     1      37.790  -0.807  16.379  0.00  0.00    +0.000 OA
BRANCH  24  25
ATOM     25  C   UNL     1      38.356  -1.347  15.188  0.00  0.00    +0.000 C 
ATOM     26  C   UNL     1      38.935  -2.697  15.552  0.00  0.00    +0.000 C 
ATOM     27  C   UNL     1      37.728  -3.539  15.645  0.00  0.00    +0.000 A 
ATOM     28  C   UNL     1      37.469  -4.691  16.343  0.00  0.00    +0.000 A 
ATOM     29  C   UNL     1      36.242  -5.334  16.286  0.00  0.00    +0.000 A 
ATOM     30  C   UNL     1      35.268  -4.776  15.495  0.00  0.00    +0.000 A 
ATOM     31  C   UNL     1      35.536  -3.604  14.786  0.00  0.00    +0.000 A 
ATOM     32  C   UNL     1      36.753  -2.979  14.850  0.00  0.00    +0.000 A 
ATOM     33  C   UNL     1      37.253  -1.749  14.201  0.00  0.00    +0.000 C 
ENDBRANCH  24  25
ENDBRANCH   6  24
TORSDOF 7
ENDMDL
MODEL 8
REMARK VINA RESULT:      -7.2      4.362      7.530
REMARK  Name = 
REMARK  7 active torsions:
REMARK  status: ('A' for Active; 'I' for Inactive)
REMARK    1  A    between atoms: O_2  and  C_3
REMARK    2  A    between atoms: C_6  and  C_7
REMARK    3  A    between atoms: C_7  and  C_8
REMARK    4  A    between atoms: C_7  and  C_15
REMARK    5  A    between atoms: C_8  and  C_9
REMARK    6  A    between atoms: C_23  and  O_24
REMARK    7  A    between atoms: O_24  and  C_25
REMARK                            x       y       z     vdW  Elec       q    Type
REMARK                         _______ _______ _______ _____ _____    ______ ____
ROOT
ATOM      1  C   UNL     1      39.414   1.280  13.519  0.00  0.00    +0.000 A 
ATOM      2  C   UNL     1      39.402   2.518  12.925  0.00  0.00    +0.000 A 
ATOM      3  C   UNL     1      38.744   3.582  13.535  0.00  0.00    +0.000 A 
ATOM      4  C   UNL     1      38.114   3.444  14.693  0.00  0.00    +0.000 A 
ATOM      5  C   UNL     1      38.108   2.223  15.314  0.00  0.00    +0.000 A 
ATOM      6  C   UNL     1      38.766   1.123  14.721  0.00  0.00    +0.000 A 
ENDROOT
BRANCH   1   8
ATOM      7  C   UNL     1      41.464  -0.011  13.088  0.00  0.00    +0.000 C 
ATOM      8  O   UNL     1      40.079   0.193  12.910  0.00  0.00    +0.000 OA
ENDBRANCH   1   8
BRANCH   4   9
ATOM      9  C   UNL     1      37.380   4.585  15.483  0.00  0.00    +0.000 C 
BRANCH   9  10
ATOM     10  C   UNL     1      38.497   5.138  16.418  0.00  0.00    +0.000 A 
ATOM     11  C   UNL     1      39.594   5.775  15.950  0.00  0.00    +0.000 A 
ATOM     12  C   UNL     1      40.583   6.237  16.843  0.00  0.00    +0.000 A 
ATOM     13  C   UNL     1      40.423   6.035  18.193  0.00  0.00    +0.000 A 
ATOM     14  N   UNL     1      41.437   6.507  19.119  0.00  0.00    +0.000 NA
ATOM     15  C   UNL     1      39.306   5.388  18.666  0.00  0.00    +0.000 A 
ATOM     16  C   UNL     1      38.330   4.935  17.747  0.00  0.00    +0.000 A 
ENDBRANCH   9  10
BRANCH   9  17
ATOM     17  C   UNL     1      37.517   5.741  14.320  0.00  0.00    +0.000 C 
BRANCH  17  18
ATOM     18  C   UNL     1      36.308   6.535  14.296  0.00  0.00    +0.000 A 
ATOM     19  C   UNL     1      36.258   7.909  14.564  0.00  0.00    +0.000 A 
ATOM     20  C   UNL     1      35.121   8.643  14.546  0.00  0.00    +0.000 A 
ATOM     21  N   UNL     1      33.957   8.064  14.260  0.00  0.00    +0.000 NA
ATOM     22  C   UNL     1      33.914   6.731  13.987  0.00  0.00    +0.000 A 
ATOM     23  C   UNL     1      35.078   5.990  14.007  0.00  0.00    +0.000 A 
ENDBRANCH  17  18
ENDBRANCH   9  17
ENDBRANCH   4   9
BRANCH   6  24
ATOM     24  O   UNL     1      38.766  -0.121  15.340  0.00  0.00    +0.000 OA
BRANCH  24  25
ATOM     25  C   UNL     1      37.741  -1.058  15.023  0.00  0.00    +0.000 C 
ATOM     26  C   UNL     1      38.258  -2.424  15.419  0.00  0.00    +0.000 C 
ATOM     27  C   UNL     1      38.112  -2.398  16.886  0.00  0.00    +0.000 A 
ATOM     28  C   UNL     1      38.771  -3.075  17.881  0.00  0.00    +0.000 A 
ATOM     29  C   UNL     1      38.469  -2.901  19.223  0.00  0.00    +0.000 A 
ATOM     30  C   UNL     1      37.471  -2.012  19.540  0.00  0.00    +0.000 A 
ATOM     31  C   UNL     1      36.804  -1.326  18.524  0.00  0.00    +0.000 A 
ATOM     32  C   UNL     1      37.111  -1.507  17.203  0.00  0.00    +0.000 A 
ATOM     33  C   UNL     1      36.551  -0.898  15.978  0.00  0.00    +0.000 C 
ENDBRANCH  24  25
ENDBRANCH   6  24
TORSDOF 7
ENDMDL
MODEL 9
REMARK VINA RESULT:      -7.2      2.623      4.717
REMARK  Name = 
REMARK  7 active torsions:
REMARK  status: ('A' for Active; 'I' for Inactive)
REMARK    1  A    between atoms: O_2  and  C_3
REMARK    2  A    between atoms: C_6  and  C_7
REMARK    3  A    between atoms: C_7  and  C_8
REMARK    4  A    between atoms: C_7  and  C_15
REMARK    5  A    between atoms: C_8  and  C_9
REMARK    6  A    between atoms: C_23  and  O_24
REMARK    7  A    between atoms: O_24  and  C_25
REMARK                            x       y       z     vdW  Elec       q    Type
REMARK                         _______ _______ _______ _____ _____    ______ ____
ROOT
ATOM      1  C   UNL     1      39.782   1.067  14.592  0.00  0.00    +0.000 A 
ATOM      2  C   UNL     1      40.830   1.276  13.730  0.00  0.00    +0.000 A 
ATOM      3  C   UNL     1      41.665   0.220  13.373  0.00  0.00    +0.000 A 
ATOM      4  C   UNL     1      41.482  -1.005  13.843  0.00  0.00    +0.000 A 
ATOM      5  C   UNL     1      40.445  -1.248  14.704  0.00  0.00    +0.000 A 
ATOM      6  C   UNL     1      39.581  -0.199  15.086  0.00  0.00    +0.000 A 
ENDROOT
BRANCH   1   8
ATOM      7  C   UNL     1      39.214   3.462  14.592  0.00  0.00    +0.000 C 
ATOM      8  O   UNL     1      38.928   2.131  14.962  0.00  0.00    +0.000 OA
ENDBRANCH   1   8
BRANCH   4   9
ATOM      9  C   UNL     1      42.337  -2.269  13.472  0.00  0.00    +0.000 C 
BRANCH   9  10
ATOM     10  C   UNL     1      42.004  -2.487  11.966  0.00  0.00    +0.000 A 
ATOM     11  C   UNL     1      40.754  -2.758  11.525  0.00  0.00    +0.000 A 
ATOM     12  C   UNL     1      40.515  -2.967  10.151  0.00  0.00    +0.000 A 
ATOM     13  C   UNL     1      41.562  -2.894   9.263  0.00  0.00    +0.000 A 
ATOM     14  N   UNL     1      41.324  -3.108   7.847  0.00  0.00    +0.000 NA
ATOM     15  C   UNL     1      42.831  -2.618   9.715  0.00  0.00    +0.000 A 
ATOM     16  C   UNL     1      43.041  -2.412  11.098  0.00  0.00    +0.000 A 
ENDBRANCH   9  10
BRANCH   9  17
ATOM     17  C   UNL     1      43.759  -1.475  13.238  0.00  0.00    +0.000 C 
BRANCH  17  18
ATOM     18  C   UNL     1      44.499  -1.450  14.481  0.00  0.00    +0.000 A 
ATOM     19  C   UNL     1      44.685  -0.307  15.269  0.00  0.00    +0.000 A 
ATOM     20  C   UNL     1      45.385  -0.292  16.428  0.00  0.00    +0.000 A 
ATOM     21  N   UNL     1      45.946  -1.409  16.884  0.00  0.00    +0.000 NA
ATOM     22  C   UNL     1      45.815  -2.568  16.180  0.00  0.00    +0.000 A 
ATOM     23  C   UNL     1      45.099  -2.575  15.000  0.00  0.00    +0.000 A 
ENDBRANCH  17  18
ENDBRANCH   9  17
ENDBRANCH   4   9
BRANCH   6  24
ATOM     24  O   UNL     1      38.525  -0.433  15.960  0.00  0.00    +0.000 OA
BRANCH  24  25
ATOM     25  C   UNL     1      37.441  -1.255  15.540  0.00  0.00    +0.000 C 
ATOM     26  C   UNL     1      36.316  -1.032  16.526  0.00  0.00    +0.000 C 
ATOM     27  C   UNL     1      35.793   0.282  16.110  0.00  0.00    +0.000 A 
ATOM     28  C   UNL     1      35.115   1.256  16.800  0.00  0.00    +0.000 A 
ATOM     29  C   UNL     1      34.706   2.439  16.205  0.00  0.00    +0.000 A 
ATOM     30  C   UNL     1      35.003   2.618  14.875  0.00  0.00    +0.000 A 
ATOM     31  C   UNL     1      35.691   1.624  14.178  0.00  0.00    +0.000 A 
ATOM     32  C   UNL     1      36.090   0.460  14.777  0.00  0.00    +0.000 A 
ATOM     33  C   UNL     1      36.820  -0.710  14.247  0.00  0.00    +0.000 C 
ENDBRANCH  24  25
ENDBRANCH   6  24
TORSDOF 7
ENDMDL
MODEL 10
REMARK VINA RESULT:      -7.1      7.112     10.010
REMARK  Name = 
REMARK  7 active torsions:
REMARK  status: ('A' for Active; 'I' for Inactive)
REMARK    1  A    between atoms: O_2  and  C_3
REMARK    2  A    between atoms: C_6  and  C_7
REMARK    3  A    between atoms: C_7  and  C_8
REMARK    4  A    between atoms: C_7  and  C_15
REMARK    5  A    between atoms: C_8  and  C_9
REMARK    6  A    between atoms: C_23  and  O_24
REMARK    7  A    between atoms: O_24  and  C_25
REMARK                            x       y       z     vdW  Elec       q    Type
REMARK                         _______ _______ _______ _____ _____    ______ ____
ROOT
ATOM      1  C   UNL     1      37.832   9.848  19.361  0.00  0.00    +0.000 A 
ATOM      2  C   UNL     1      38.819   9.658  20.295  0.00  0.00    +0.000 A 
ATOM      3  C   UNL     1      39.552   8.474  20.311  0.00  0.00    +0.000 A 
ATOM      4  C   UNL     1      39.328   7.502  19.438  0.00  0.00    +0.000 A 
ATOM      5  C   UNL     1      38.351   7.659  18.492  0.00  0.00    +0.000 A 
ATOM      6  C   UNL     1      37.590   8.848  18.450  0.00  0.00    +0.000 A 
ENDROOT
BRANCH   1   8
ATOM      7  C   UNL     1      37.707  12.303  19.462  0.00  0.00    +0.000 C 
ATOM      8  O   UNL     1      37.082  11.045  19.335  0.00  0.00    +0.000 OA
ENDBRANCH   1   8
BRANCH   4   9
ATOM      9  C   UNL     1      40.122   6.151  19.343  0.00  0.00    +0.000 C 
BRANCH   9  10
ATOM     10  C   UNL     1      39.521   5.481  18.071  0.00  0.00    +0.000 A 
ATOM     11  C   UNL     1      40.004   5.706  16.829  0.00  0.00    +0.000 A 
ATOM     12  C   UNL     1      39.407   5.088  15.711  0.00  0.00    +0.000 A 
ATOM     13  C   UNL     1      38.331   4.253  15.894  0.00  0.00    +0.000 A 
ATOM     14  N   UNL     1      37.711   3.613  14.748  0.00  0.00    +0.000 NA
ATOM     15  C   UNL     1      37.843   4.025  17.159  0.00  0.00    +0.000 A 
ATOM     16  C   UNL     1      38.462   4.659  18.261  0.00  0.00    +0.000 A 
ENDBRANCH   9  10
BRANCH   9  17
ATOM     17  C   UNL     1      41.463   6.768  18.617  0.00  0.00    +0.000 C 
BRANCH  17  18
ATOM     18  C   UNL     1      42.600   6.594  19.495  0.00  0.00    +0.000 A 
ATOM     19  C   UNL     1      43.930   6.834  19.125  0.00  0.00    +0.000 A 
ATOM     20  C   UNL     1      44.988   6.662  19.951  0.00  0.00    +0.000 A 
ATOM     21  N   UNL     1      44.799   6.242  21.200  0.00  0.00    +0.000 NA
ATOM     22  C   UNL     1      43.538   5.985  21.643  0.00  0.00    +0.000 A 
ATOM     23  C   UNL     1      42.464   6.163  20.794  0.00  0.00    +0.000 A 
ENDBRANCH  17  18
ENDBRANCH   9  17
ENDBRANCH   4   9
BRANCH   6  24
ATOM     24  O   UNL     1      36.594   9.019  17.495  0.00  0.00    +0.000 OA
BRANCH  24  25
ATOM     25  C   UNL     1      36.890   9.734  16.299  0.00  0.00    +0.000 C 
ATOM     26  C   UNL     1      37.429   8.725  15.308  0.00  0.00    +0.000 C 
ATOM     27  C   UNL     1      36.204   8.030  14.873  0.00  0.00    +0.000 A 
ATOM     28  C   UNL     1      35.998   6.771  14.368  0.00  0.00    +0.000 A 
ATOM     29  C   UNL     1      34.739   6.310  14.014  0.00  0.00    +0.000 A 
ATOM     30  C   UNL     1      33.677   7.164  14.187  0.00  0.00    +0.000 A 
ATOM     31  C   UNL     1      33.892   8.444  14.701  0.00  0.00    +0.000 A 
ATOM     32  C   UNL     1      35.140   8.887  15.046  0.00  0.00    +0.000 A 
ATOM     33  C   UNL     1      35.597  10.178  15.603  0.00  0.00    +0.000 C 
ENDBRANCH  24  25
ENDBRANCH   6  24
TORSDOF 7
ENDMDL
