MODEL 1
REMARK VINA RESULT:      -7.6      0.000      0.000
REMARK  Name = 
REMARK  6 active torsions:
REMARK  status: ('A' for Active; 'I' for Inactive)
REMARK    1  A    between atoms: C_8  and  C_9
REMARK    2  A    between atoms: C_15  and  C_16
REMARK    3  A    between atoms: N_22  and  C_23
REMARK    4  A    between atoms: C_23  and  C_24
REMARK    5  A    between atoms: C_24  and  C_26
REMARK    6  A    between atoms: C_26  and  N_27
REMARK                            x       y       z     vdW  Elec       q    Type
REMARK                         _______ _______ _______ _____ _____    ______ ____
ROOT
ATOM      1  C   UNL     1      34.419  -1.166  17.473  0.00  0.00    +0.000 C 
ATOM      2  C   UNL     1      35.196  -0.089  16.808  0.00  0.00    +0.000 A 
ATOM      3  C   UNL     1      34.910   1.245  16.985  0.00  0.00    +0.000 A 
ATOM      4  C   UNL     1      35.625   2.255  16.373  0.00  0.00    +0.000 A 
ATOM      5  C   UNL     1      36.694   1.971  15.529  0.00  0.00    +0.000 A 
ATOM      6  C   UNL     1      36.984   0.635  15.348  0.00  0.00    +0.000 A 
ATOM      7  C   UNL     1      36.273  -0.377  15.958  0.00  0.00    +0.000 A 
ATOM      8  C   UNL     1      38.062   0.635  14.484  0.00  0.00    +0.000 A 
ATOM      9  C   UNL     1      38.427   1.920  14.141  0.00  0.00    +0.000 A 
ATOM     10  N   UNL     1      37.560   2.709  14.805  0.00  0.00    +0.000 N 
ENDROOT
BRANCH   8  11
ATOM     11  C   UNL     1      38.741  -0.547  13.989  0.00  0.00    +0.000 A 
ATOM     12  C   UNL     1      39.772  -1.030  14.803  0.00  0.00    +0.000 A 
ATOM     13  C   UNL     1      40.489  -2.128  14.460  0.00  0.00    +0.000 A 
ATOM     14  C   UNL     1      40.244  -2.832  13.289  0.00  0.00    +0.000 A 
ATOM     15  C   UNL     1      39.218  -2.340  12.491  0.00  0.00    +0.000 A 
ATOM     16  C   UNL     1      38.489  -1.220  12.844  0.00  0.00    +0.000 A 
ENDBRANCH   8  11
BRANCH   9  17
ATOM     17  C   UNL     1      39.532   2.277  13.242  0.00  0.00    +0.000 A 
ATOM     18  C   UNL     1      39.239   2.507  11.913  0.00  0.00    +0.000 A 
ATOM     19  C   UNL     1      40.129   2.845  10.954  0.00  0.00    +0.000 A 
ATOM     20  C   UNL     1      41.440   2.966  11.353  0.00  0.00    +0.000 A 
ATOM     21  C   UNL     1      41.791   2.743  12.686  0.00  0.00    +0.000 A 
ATOM     22  C   UNL     1      40.829   2.401  13.620  0.00  0.00    +0.000 A 
ENDBRANCH   9  17
BRANCH  10  23
ATOM     23  C   UNL     1      37.535   4.130  14.768  0.00  0.00    +0.000 C 
BRANCH  23  24
ATOM     24  C   UNL     1      38.720   4.673  15.755  0.00  0.00    +0.000 C 
ATOM     25  O   UNL     1      39.321   5.556  14.660  0.00  0.00    +0.000 OA
BRANCH  24  26
ATOM     26  C   UNL     1      37.831   5.928  16.354  0.00  0.00    +0.000 C 
BRANCH  26  27
ATOM     27  N   UNL     1      38.526   6.370  17.517  0.00  0.00    +0.000 NA
ATOM     28  C   UNL     1      39.043   7.679  17.512  0.00  0.00    +0.000 C 
ATOM     29  C   UNL     1      39.088   8.373  18.830  0.00  0.00    +0.000 C 
ATOM     30  C   UNL     1      39.068   7.470  20.019  0.00  0.00    +0.000 C 
ATOM     31  C   UNL     1      40.327   6.635  20.092  0.00  0.00    +0.000 C 
ATOM     32  C   UNL     1      40.565   6.039  18.712  0.00  0.00    +0.000 C 
ATOM     33  C   UNL     1      39.270   5.381  18.216  0.00  0.00    +0.000 C 
ENDBRANCH  26  27
ENDBRANCH  24  26
ENDBRANCH  23  24
ENDBRANCH  10  23
TORSDOF 6
ENDMDL
MODEL 2
REMARK VINA RESULT:      -7.4      2.237      5.495
REMARK  Name = 
REMARK  6 active torsions:
REMARK  status: ('A' for Active; 'I' for Inactive)
REMARK    1  A    between atoms: C_8  and  C_9
REMARK    2  A    between atoms: C_15  and  C_16
REMARK    3  A    between atoms: N_22  and  C_23
REMARK    4  A    between atoms: C_23  and  C_24
REMARK    5  A    between atoms: C_24  and  C_26
REMARK    6  A    between atoms: C_26  and  N_27
REMARK                            x       y       z     vdW  Elec       q    Type
REMARK                         _______ _______ _______ _____ _____    ______ ____
ROOT
ATOM      1  C   UNL     1      41.538  -3.626  11.236  0.00  0.00    +0.000 C 
ATOM      2  C   UNL     1      40.510  -2.675  11.733  0.00  0.00    +0.000 A 
ATOM      3  C   UNL     1      40.100  -1.583  11.003  0.00  0.00    +0.000 A 
ATOM      4  C   UNL     1      39.145  -0.694  11.454  0.00  0.00    +0.000 A 
ATOM      5  C   UNL     1      38.537  -0.858  12.694  0.00  0.00    +0.000 A 
ATOM      6  C   UNL     1      38.945  -1.951  13.429  0.00  0.00    +0.000 A 
ATOM      7  C   UNL     1      39.897  -2.843  12.983  0.00  0.00    +0.000 A 
ATOM      8  C   UNL     1      38.200  -1.878  14.590  0.00  0.00    +0.000 A 
ATOM      9  C   UNL     1      37.363  -0.782  14.578  0.00  0.00    +0.000 A 
ATOM     10  N   UNL     1      37.602  -0.185  13.395  0.00  0.00    +0.000 N 
ENDROOT
BRANCH   8  11
ATOM     11  C   UNL     1      38.271  -2.818  15.693  0.00  0.00    +0.000 A 
ATOM     12  C   UNL     1      37.499  -3.976  15.542  0.00  0.00    +0.000 A 
ATOM     13  C   UNL     1      37.471  -4.938  16.496  0.00  0.00    +0.000 A 
ATOM     14  C   UNL     1      38.202  -4.830  17.671  0.00  0.00    +0.000 A 
ATOM     15  C   UNL     1      38.963  -3.675  17.808  0.00  0.00    +0.000 A 
ATOM     16  C   UNL     1      38.988  -2.696  16.832  0.00  0.00    +0.000 A 
ENDBRANCH   8  11
BRANCH   9  17
ATOM     17  C   UNL     1      36.437  -0.410  15.656  0.00  0.00    +0.000 A 
ATOM     18  C   UNL     1      36.692   0.750  16.360  0.00  0.00    +0.000 A 
ATOM     19  C   UNL     1      35.947   1.238  17.375  0.00  0.00    +0.000 A 
ATOM     20  C   UNL     1      34.838   0.504  17.727  0.00  0.00    +0.000 A 
ATOM     21  C   UNL     1      34.534  -0.678  17.048  0.00  0.00    +0.000 A 
ATOM     22  C   UNL     1      35.340  -1.123  16.015  0.00  0.00    +0.000 A 
ENDBRANCH   9  17
BRANCH  10  23
ATOM     23  C   UNL     1      36.971   0.999  12.921  0.00  0.00    +0.000 C 
BRANCH  23  24
ATOM     24  C   UNL     1      38.062   2.212  13.011  0.00  0.00    +0.000 C 
ATOM     25  O   UNL     1      37.764   2.678  11.585  0.00  0.00    +0.000 OA
BRANCH  24  26
ATOM     26  C   UNL     1      36.998   3.302  13.647  0.00  0.00    +0.000 C 
BRANCH  26  27
ATOM     27  N   UNL     1      37.743   4.055  14.601  0.00  0.00    +0.000 NA
ATOM     28  C   UNL     1      39.132   3.834  14.667  0.00  0.00    +0.000 C 
ATOM     29  C   UNL     1      39.966   5.009  15.051  0.00  0.00    +0.000 C 
ATOM     30  C   UNL     1      39.238   6.086  15.786  0.00  0.00    +0.000 C 
ATOM     31  C   UNL     1      38.778   5.606  17.144  0.00  0.00    +0.000 C 
ATOM     32  C   UNL     1      38.104   4.255  16.951  0.00  0.00    +0.000 C 
ATOM     33  C   UNL     1      37.075   4.361  15.816  0.00  0.00    +0.000 C 
ENDBRANCH  26  27
ENDBRANCH  24  26
ENDBRANCH  23  24
ENDBRANCH  10  23
TORSDOF 6
ENDMDL
MODEL 3
REMARK VINA RESULT:      -7.4      3.827      7.236
REMARK  Name = 
REMARK  6 active torsions:
REMARK  status: ('A' for Active; 'I' for Inactive)
REMARK    1  A    between atoms: C_8  and  C_9
REMARK    2  A    between atoms: C_15  and  C_16
REMARK    3  A    between atoms: N_22  and  C_23
REMARK    4  A    between atoms: C_23  and  C_24
REMARK    5  A    between atoms: C_24  and  C_26
REMARK    6  A    between atoms: C_26  and  N_27
REMARK                            x       y       z     vdW  Elec       q    Type
REMARK                         _______ _______ _______ _____ _____    ______ ____
ROOT
ATOM      1  C   UNL     1      41.934  -3.336  11.874  0.00  0.00    +0.000 C 
ATOM      2  C   UNL     1      41.041  -2.391  12.593  0.00  0.00    +0.000 A 
ATOM      3  C   UNL     1      41.030  -1.040  12.332  0.00  0.00    +0.000 A 
ATOM      4  C   UNL     1      40.204  -0.153  12.992  0.00  0.00    +0.000 A 
ATOM      5  C   UNL     1      39.322  -0.588  13.976  0.00  0.00    +0.000 A 
ATOM      6  C   UNL     1      39.329  -1.941  14.242  0.00  0.00    +0.000 A 
ATOM      7  C   UNL     1      40.151  -2.831  13.584  0.00  0.00    +0.000 A 
ATOM      8  C   UNL     1      38.382  -2.098  15.236  0.00  0.00    +0.000 A 
ATOM      9  C   UNL     1      37.810  -0.889  15.575  0.00  0.00    +0.000 A 
ATOM     10  N   UNL     1      38.416   0.010  14.777  0.00  0.00    +0.000 N 
ENDROOT
BRANCH   8  11
ATOM     11  C   UNL     1      38.019  -3.357  15.857  0.00  0.00    +0.000 A 
ATOM     12  C   UNL     1      36.864  -3.963  15.349  0.00  0.00    +0.000 A 
ATOM     13  C   UNL     1      36.410  -5.142  15.838  0.00  0.00    +0.000 A 
ATOM     14  C   UNL     1      37.059  -5.813  16.865  0.00  0.00    +0.000 A 
ATOM     15  C   UNL     1      38.204  -5.199  17.360  0.00  0.00    +0.000 A 
ATOM     16  C   UNL     1      38.663  -3.995  16.858  0.00  0.00    +0.000 A 
ENDBRANCH   8  11
BRANCH   9  17
ATOM     17  C   UNL     1      36.770  -0.700  16.595  0.00  0.00    +0.000 A 
ATOM     18  C   UNL     1      37.149  -0.726  17.922  0.00  0.00    +0.000 A 
ATOM     19  C   UNL     1      36.327  -0.568  18.982  0.00  0.00    +0.000 A 
ATOM     20  C   UNL     1      34.996  -0.364  18.698  0.00  0.00    +0.000 A 
ATOM     21  C   UNL     1      34.559  -0.330  17.372  0.00  0.00    +0.000 A 
ATOM     22  C   UNL     1      35.454  -0.498  16.331  0.00  0.00    +0.000 A 
ENDBRANCH   9  17
BRANCH  10  23
ATOM     23  C   UNL     1      38.159   1.409  14.758  0.00  0.00    +0.000 C 
BRANCH  23  24
ATOM     24  C   UNL     1      36.945   1.676  13.696  0.00  0.00    +0.000 C 
ATOM     25  O   UNL     1      36.341   2.783  14.562  0.00  0.00    +0.000 OA
BRANCH  24  26
ATOM     26  C   UNL     1      37.793   2.769  12.795  0.00  0.00    +0.000 C 
BRANCH  26  27
ATOM     27  N   UNL     1      37.745   2.282  11.457  0.00  0.00    +0.000 NA
ATOM     28  C   UNL     1      37.058   1.076  11.223  0.00  0.00    +0.000 C 
ATOM     29  C   UNL     1      36.392   0.946   9.896  0.00  0.00    +0.000 C 
ATOM     30  C   UNL     1      36.934   1.838   8.828  0.00  0.00    +0.000 C 
ATOM     31  C   UNL     1      38.355   1.464   8.473  0.00  0.00    +0.000 C 
ATOM     32  C   UNL     1      39.130   1.310   9.774  0.00  0.00    +0.000 C 
ATOM     33  C   UNL     1      38.889   2.544  10.655  0.00  0.00    +0.000 C 
ENDBRANCH  26  27
ENDBRANCH  24  26
ENDBRANCH  23  24
ENDBRANCH  10  23
TORSDOF 6
ENDMDL
MODEL 4
REMARK VINA RESULT:      -7.3     25.013     28.279
REMARK  Name = 
REMARK  6 active torsions:
REMARK  status: ('A' for Active; 'I' for Inactive)
REMARK    1  A    between atoms: C_8  and  C_9
REMARK    2  A    between atoms: C_15  and  C_16
REMARK    3  A    between atoms: N_22  and  C_23
REMARK    4  A    between atoms: C_23  and  C_24
REMARK    5  A    between atoms: C_24  and  C_26
REMARK    6  A    between atoms: C_26  and  N_27
REMARK                            x       y       z     vdW  Elec       q    Type
REMARK                         _______ _______ _______ _____ _____    ______ ____
ROOT
ATOM      1  C   UNL     1      22.799  14.989  39.815  0.00  0.00    +0.000 C 
ATOM      2  C   UNL     1      24.250  15.134  39.529  0.00  0.00    +0.000 A 
ATOM      3  C   UNL     1      25.201  15.150  40.523  0.00  0.00    +0.000 A 
ATOM      4  C   UNL     1      26.551  15.283  40.270  0.00  0.00    +0.000 A 
ATOM      5  C   UNL     1      27.030  15.411  38.970  0.00  0.00    +0.000 A 
ATOM      6  C   UNL     1      26.081  15.395  37.970  0.00  0.00    +0.000 A 
ATOM      7  C   UNL     1      24.731  15.261  38.218  0.00  0.00    +0.000 A 
ATOM      8  C   UNL     1      26.811  15.535  36.805  0.00  0.00    +0.000 A 
ATOM      9  C   UNL     1      28.161  15.635  37.072  0.00  0.00    +0.000 A 
ATOM     10  N   UNL     1      28.250  15.553  38.413  0.00  0.00    +0.000 N 
ENDROOT
BRANCH   8  11
ATOM     11  C   UNL     1      26.255  15.575  35.466  0.00  0.00    +0.000 A 
ATOM     12  C   UNL     1      25.663  16.790  35.100  0.00  0.00    +0.000 A 
ATOM     13  C   UNL     1      25.105  16.965  33.878  0.00  0.00    +0.000 A 
ATOM     14  C   UNL     1      25.088  15.957  32.925  0.00  0.00    +0.000 A 
ATOM     15  C   UNL     1      25.678  14.756  33.302  0.00  0.00    +0.000 A 
ATOM     16  C   UNL     1      26.246  14.582  34.551  0.00  0.00    +0.000 A 
ENDBRANCH   8  11
BRANCH   9  17
ATOM     17  C   UNL     1      29.214  15.794  36.061  0.00  0.00    +0.000 A 
ATOM     18  C   UNL     1      29.390  17.040  35.496  0.00  0.00    +0.000 A 
ATOM     19  C   UNL     1      30.308  17.361  34.558  0.00  0.00    +0.000 A 
ATOM     20  C   UNL     1      31.135  16.345  34.140  0.00  0.00    +0.000 A 
ATOM     21  C   UNL     1      31.000  15.063  34.680  0.00  0.00    +0.000 A 
ATOM     22  C   UNL     1      30.038  14.801  35.639  0.00  0.00    +0.000 A 
ENDBRANCH   9  17
BRANCH  10  23
ATOM     23  C   UNL     1      29.453  15.608  39.169  0.00  0.00    +0.000 C 
BRANCH  23  24
ATOM     24  C   UNL     1      30.122  14.117  39.146  0.00  0.00    +0.000 C 
ATOM     25  O   UNL     1      31.539  14.676  39.280  0.00  0.00    +0.000 OA
BRANCH  24  26
ATOM     26  C   UNL     1      30.000  13.890  40.777  0.00  0.00    +0.000 C 
BRANCH  26  27
ATOM     27  N   UNL     1      29.167  12.746  40.944  0.00  0.00    +0.000 NA
ATOM     28  C   UNL     1      28.501  12.596  42.175  0.00  0.00    +0.000 C 
ATOM     29  C   UNL     1      27.174  11.920  42.126  0.00  0.00    +0.000 C 
ATOM     30  C   UNL     1      26.947  11.061  40.925  0.00  0.00    +0.000 C 
ATOM     31  C   UNL     1      27.877   9.868  40.923  0.00  0.00    +0.000 C 
ATOM     32  C   UNL     1      29.280  10.378  41.216  0.00  0.00    +0.000 C 
ATOM     33  C   UNL     1      29.593  11.560  40.288  0.00  0.00    +0.000 C 
ENDBRANCH  26  27
ENDBRANCH  24  26
ENDBRANCH  23  24
ENDBRANCH  10  23
TORSDOF 6
ENDMDL
MODEL 5
REMARK VINA RESULT:      -7.2      2.942      8.236
REMARK  Name = 
REMARK  6 active torsions:
REMARK  status: ('A' for Active; 'I' for Inactive)
REMARK    1  A    between atoms: C_8  and  C_9
REMARK    2  A    between atoms: C_15  and  C_16
REMARK    3  A    between atoms: N_22  and  C_23
REMARK    4  A    between atoms: C_23  and  C_24
REMARK    5  A    between atoms: C_24  and  C_26
REMARK    6  A    between atoms: C_26  and  N_27
REMARK                            x       y       z     vdW  Elec       q    Type
REMARK                         _______ _______ _______ _____ _____    ______ ____
ROOT
ATOM      1  C   UNL     1      39.590   7.567  20.459  0.00  0.00    +0.000 C 
ATOM      2  C   UNL     1      39.141   6.993  19.164  0.00  0.00    +0.000 A 
ATOM      3  C   UNL     1      39.440   5.705  18.783  0.00  0.00    +0.000 A 
ATOM      4  C   UNL     1      39.028   5.161  17.583  0.00  0.00    +0.000 A 
ATOM      5  C   UNL     1      38.273   5.901  16.679  0.00  0.00    +0.000 A 
ATOM      6  C   UNL     1      37.970   7.193  17.057  0.00  0.00    +0.000 A 
ATOM      7  C   UNL     1      38.379   7.740  18.254  0.00  0.00    +0.000 A 
ATOM      8  C   UNL     1      37.231   7.691  16.002  0.00  0.00    +0.000 A 
ATOM      9  C   UNL     1      37.080   6.747  15.007  0.00  0.00    +0.000 A 
ATOM     10  N   UNL     1      37.735   5.663  15.465  0.00  0.00    +0.000 N 
ENDROOT
BRANCH   8  11
ATOM     11  C   UNL     1      36.673   9.028  15.925  0.00  0.00    +0.000 A 
ATOM     12  C   UNL     1      37.534  10.006  15.412  0.00  0.00    +0.000 A 
ATOM     13  C   UNL     1      37.143  11.297  15.285  0.00  0.00    +0.000 A 
ATOM     14  C   UNL     1      35.874  11.722  15.654  0.00  0.00    +0.000 A 
ATOM     15  C   UNL     1      35.031  10.740  16.162  0.00  0.00    +0.000 A 
ATOM     16  C   UNL     1      35.435   9.424  16.290  0.00  0.00    +0.000 A 
ENDBRANCH   8  11
BRANCH   9  17
ATOM     17  C   UNL     1      36.350   6.949  13.749  0.00  0.00    +0.000 A 
ATOM     18  C   UNL     1      34.996   6.680  13.733  0.00  0.00    +0.000 A 
ATOM     19  C   UNL     1      34.176   6.812  12.667  0.00  0.00    +0.000 A 
ATOM     20  C   UNL     1      34.756   7.257  11.502  0.00  0.00    +0.000 A 
ATOM     21  C   UNL     1      36.123   7.545  11.463  0.00  0.00    +0.000 A 
ATOM     22  C   UNL     1      36.908   7.388  12.592  0.00  0.00    +0.000 A 
ENDBRANCH   9  17
BRANCH  10  23
ATOM     23  C   UNL     1      37.863   4.421  14.784  0.00  0.00    +0.000 C 
BRANCH  23  24
ATOM     24  C   UNL     1      36.676   3.435  15.324  0.00  0.00    +0.000 C 
ATOM     25  O   UNL     1      36.089   3.262  13.922  0.00  0.00    +0.000 OA
BRANCH  24  26
ATOM     26  C   UNL     1      37.570   2.056  15.179  0.00  0.00    +0.000 C 
BRANCH  26  27
ATOM     27  N   UNL     1      37.019   1.139  16.121  0.00  0.00    +0.000 NA
ATOM     28  C   UNL     1      37.001  -0.224  15.773  0.00  0.00    +0.000 C 
ATOM     29  C   UNL     1      37.137  -1.191  16.899  0.00  0.00    +0.000 C 
ATOM     30  C   UNL     1      36.775  -0.650  18.243  0.00  0.00    +0.000 C 
ATOM     31  C   UNL     1      35.301  -0.326  18.322  0.00  0.00    +0.000 C 
ATOM     32  C   UNL     1      34.938   0.473  17.079  0.00  0.00    +0.000 C 
ATOM     33  C   UNL     1      35.939   1.624  16.907  0.00  0.00    +0.000 C 
ENDBRANCH  26  27
ENDBRANCH  24  26
ENDBRANCH  23  24
ENDBRANCH  10  23
TORSDOF 6
ENDMDL
MODEL 6
REMARK VINA RESULT:      -7.2      3.551      7.428
REMARK  Name = 
REMARK  6 active torsions:
REMARK  status: ('A' for Active; 'I' for Inactive)
REMARK    1  A    between atoms: C_8  and  C_9
REMARK    2  A    between atoms: C_15  and  C_16
REMARK    3  A    between atoms: N_22  and  C_23
REMARK    4  A    between atoms: C_23  and  C_24
REMARK    5  A    between atoms: C_24  and  C_26
REMARK    6  A    between atoms: C_26  and  N_27
REMARK                            x       y       z     vdW  Elec       q    Type
REMARK                         _______ _______ _______ _____ _____    ______ ____
ROOT
ATOM      1  C   UNL     1      41.014  -2.881   7.812  0.00  0.00    +0.000 C 
ATOM      2  C   UNL     1      40.834  -2.422   9.214  0.00  0.00    +0.000 A 
ATOM      3  C   UNL     1      41.292  -3.144  10.292  0.00  0.00    +0.000 A 
ATOM      4  C   UNL     1      41.131  -2.727  11.598  0.00  0.00    +0.000 A 
ATOM      5  C   UNL     1      40.485  -1.531  11.898  0.00  0.00    +0.000 A 
ATOM      6  C   UNL     1      40.024  -0.805  10.820  0.00  0.00    +0.000 A 
ATOM      7  C   UNL     1      40.184  -1.217   9.514  0.00  0.00    +0.000 A 
ATOM      8  C   UNL     1      39.438   0.310  11.387  0.00  0.00    +0.000 A 
ATOM      9  C   UNL     1      39.529   0.276  12.763  0.00  0.00    +0.000 A 
ATOM     10  N   UNL     1      40.180  -0.871  13.034  0.00  0.00    +0.000 N 
ENDROOT
BRANCH   8  11
ATOM     11  C   UNL     1      38.802   1.388  10.654  0.00  0.00    +0.000 A 
ATOM     12  C   UNL     1      37.470   1.158  10.288  0.00  0.00    +0.000 A 
ATOM     13  C   UNL     1      36.756   2.082   9.600  0.00  0.00    +0.000 A 
ATOM     14  C   UNL     1      37.301   3.301   9.220  0.00  0.00    +0.000 A 
ATOM     15  C   UNL     1      38.624   3.515   9.590  0.00  0.00    +0.000 A 
ATOM     16  C   UNL     1      39.349   2.569  10.292  0.00  0.00    +0.000 A 
ENDBRANCH   8  11
BRANCH   9  17
ATOM     17  C   UNL     1      39.007   1.305  13.672  0.00  0.00    +0.000 A 
ATOM     18  C   UNL     1      37.684   1.221  14.057  0.00  0.00    +0.000 A 
ATOM     19  C   UNL     1      37.046   2.077  14.885  0.00  0.00    +0.000 A 
ATOM     20  C   UNL     1      37.794   3.120  15.381  0.00  0.00    +0.000 A 
ATOM     21  C   UNL     1      39.138   3.251  15.023  0.00  0.00    +0.000 A 
ATOM     22  C   UNL     1      39.732   2.338  14.170  0.00  0.00    +0.000 A 
ENDBRANCH   9  17
BRANCH  10  23
ATOM     23  C   UNL     1      40.514  -1.350  14.330  0.00  0.00    +0.000 C 
BRANCH  23  24
ATOM     24  C   UNL     1      39.366  -2.427  14.772  0.00  0.00    +0.000 C 
ATOM     25  O   UNL     1      40.367  -3.273  15.561  0.00  0.00    +0.000 OA
BRANCH  24  26
ATOM     26  C   UNL     1      38.917  -1.597  16.126  0.00  0.00    +0.000 C 
BRANCH  26  27
ATOM     27  N   UNL     1      37.509  -1.786  16.243  0.00  0.00    +0.000 NA
ATOM     28  C   UNL     1      36.772  -1.964  15.057  0.00  0.00    +0.000 C 
ATOM     29  C   UNL     1      35.568  -2.838  15.157  0.00  0.00    +0.000 C 
ATOM     30  C   UNL     1      35.015  -2.995  16.535  0.00  0.00    +0.000 C 
ATOM     31  C   UNL     1      34.464  -1.686  17.055  0.00  0.00    +0.000 C 
ATOM     32  C   UNL     1      35.508  -0.610  16.793  0.00  0.00    +0.000 C 
ATOM     33  C   UNL     1      36.871  -1.093  17.306  0.00  0.00    +0.000 C 
ENDBRANCH  26  27
ENDBRANCH  24  26
ENDBRANCH  23  24
ENDBRANCH  10  23
TORSDOF 6
ENDMDL
MODEL 7
REMARK VINA RESULT:      -6.9      1.696      4.607
REMARK  Name = 
REMARK  6 active torsions:
REMARK  status: ('A' for Active; 'I' for Inactive)
REMARK    1  A    between atoms: C_8  and  C_9
REMARK    2  A    between atoms: C_15  and  C_16
REMARK    3  A    between atoms: N_22  and  C_23
REMARK    4  A    between atoms: C_23  and  C_24
REMARK    5  A    between atoms: C_24  and  C_26
REMARK    6  A    between atoms: C_26  and  N_27
REMARK                            x       y       z     vdW  Elec       q    Type
REMARK                         _______ _______ _______ _____ _____    ______ ____
ROOT
ATOM      1  C   UNL     1      43.789  -0.009  12.230  0.00  0.00    +0.000 C 
ATOM      2  C   UNL     1      42.680   0.891  12.639  0.00  0.00    +0.000 A 
ATOM      3  C   UNL     1      42.763   2.260  12.534  0.00  0.00    +0.000 A 
ATOM      4  C   UNL     1      41.739   3.106  12.910  0.00  0.00    +0.000 A 
ATOM      5  C   UNL     1      40.547   2.609  13.426  0.00  0.00    +0.000 A 
ATOM      6  C   UNL     1      40.459   1.236  13.534  0.00  0.00    +0.000 A 
ATOM      7  C   UNL     1      41.479   0.387  13.158  0.00  0.00    +0.000 A 
ATOM      8  C   UNL     1      39.202   1.016  14.062  0.00  0.00    +0.000 A 
ATOM      9  C   UNL     1      38.535   2.205  14.274  0.00  0.00    +0.000 A 
ATOM     10  N   UNL     1      39.397   3.156  13.870  0.00  0.00    +0.000 N 
ENDROOT
BRANCH   8  11
ATOM     11  C   UNL     1      38.634  -0.284  14.362  0.00  0.00    +0.000 A 
ATOM     12  C   UNL     1      39.105  -0.886  15.534  0.00  0.00    +0.000 A 
ATOM     13  C   UNL     1      38.659  -2.102  15.935  0.00  0.00    +0.000 A 
ATOM     14  C   UNL     1      37.716  -2.816  15.209  0.00  0.00    +0.000 A 
ATOM     15  C   UNL     1      37.257  -2.206  14.047  0.00  0.00    +0.000 A 
ATOM     16  C   UNL     1      37.715  -0.965  13.642  0.00  0.00    +0.000 A 
ENDBRANCH   8  11
BRANCH   9  17
ATOM     17  C   UNL     1      37.179   2.329  14.826  0.00  0.00    +0.000 A 
ATOM     18  C   UNL     1      37.037   2.374  16.198  0.00  0.00    +0.000 A 
ATOM     19  C   UNL     1      35.870   2.488  16.869  0.00  0.00    +0.000 A 
ATOM     20  C   UNL     1      34.730   2.564  16.103  0.00  0.00    +0.000 A 
ATOM     21  C   UNL     1      34.817   2.522  14.710  0.00  0.00    +0.000 A 
ATOM     22  C   UNL     1      36.045   2.406  14.084  0.00  0.00    +0.000 A 
ENDBRANCH   9  17
BRANCH  10  23
ATOM     23  C   UNL     1      39.158   4.558  13.896  0.00  0.00    +0.000 C 
BRANCH  23  24
ATOM     24  C   UNL     1      39.903   5.163  15.219  0.00  0.00    +0.000 C 
ATOM     25  O   UNL     1      40.727   6.148  14.388  0.00  0.00    +0.000 OA
BRANCH  24  26
ATOM     26  C   UNL     1      38.745   6.301  15.517  0.00  0.00    +0.000 C 
BRANCH  26  27
ATOM     27  N   UNL     1      38.852   6.604  16.905  0.00  0.00    +0.000 NA
ATOM     28  C   UNL     1      38.657   5.553  17.822  0.00  0.00    +0.000 C 
ATOM     29  C   UNL     1      39.434   5.637  19.091  0.00  0.00    +0.000 C 
ATOM     30  C   UNL     1      39.906   7.007  19.453  0.00  0.00    +0.000 C 
ATOM     31  C   UNL     1      38.742   7.919  19.769  0.00  0.00    +0.000 C 
ATOM     32  C   UNL     1      37.716   7.759  18.657  0.00  0.00    +0.000 C 
ATOM     33  C   UNL     1      38.417   7.898  17.299  0.00  0.00    +0.000 C 
ENDBRANCH  26  27
ENDBRANCH  24  26
ENDBRANCH  23  24
ENDBRANCH  10  23
TORSDOF 6
ENDMDL
MODEL 8
REMARK VINA RESULT:      -6.9     24.224     28.328
REMARK  Name = 
REMARK  6 active torsions:
REMARK  status: ('A' for Active; 'I' for Inactive)
REMARK    1  A    between atoms: C_8  and  C_9
REMARK    2  A    between atoms: C_15  and  C_16
REMARK    3  A    between atoms: N_22  and  C_23
REMARK    4  A    between atoms: C_23  and  C_24
REMARK    5  A    between atoms: C_24  and  C_26
REMARK    6  A    between atoms: C_26  and  N_27
REMARK                            x       y       z     vdW  Elec       q    Type
REMARK                         _______ _______ _______ _____ _____    ______ ____
ROOT
ATOM      1  C   UNL     1      32.385  15.914  33.423  0.00  0.00    +0.000 C 
ATOM      2  C   UNL     1      31.556  15.888  34.656  0.00  0.00    +0.000 A 
ATOM      3  C   UNL     1      32.107  15.881  35.916  0.00  0.00    +0.000 A 
ATOM      4  C   UNL     1      31.347  15.857  37.069  0.00  0.00    +0.000 A 
ATOM      5  C   UNL     1      29.957  15.839  37.014  0.00  0.00    +0.000 A 
ATOM      6  C   UNL     1      29.400  15.846  35.752  0.00  0.00    +0.000 A 
ATOM      7  C   UNL     1      30.155  15.871  34.598  0.00  0.00    +0.000 A 
ATOM      8  C   UNL     1      28.038  15.825  35.981  0.00  0.00    +0.000 A 
ATOM      9  C   UNL     1      27.759  15.805  37.332  0.00  0.00    +0.000 A 
ATOM     10  N   UNL     1      28.966  15.815  37.929  0.00  0.00    +0.000 N 
ENDROOT
BRANCH   8  11
ATOM     11  C   UNL     1      27.014  15.824  34.954  0.00  0.00    +0.000 A 
ATOM     12  C   UNL     1      26.598  14.558  34.525  0.00  0.00    +0.000 A 
ATOM     13  C   UNL     1      25.648  14.411  33.570  0.00  0.00    +0.000 A 
ATOM     14  C   UNL     1      25.037  15.500  32.966  0.00  0.00    +0.000 A 
ATOM     15  C   UNL     1      25.460  16.751  33.401  0.00  0.00    +0.000 A 
ATOM     16  C   UNL     1      26.430  16.896  34.375  0.00  0.00    +0.000 A 
ENDBRANCH   8  11
BRANCH   9  17
ATOM     17  C   UNL     1      26.414  15.779  37.919  0.00  0.00    +0.000 A 
ATOM     18  C   UNL     1      25.726  16.972  38.022  0.00  0.00    +0.000 A 
ATOM     19  C   UNL     1      24.485  17.128  38.532  0.00  0.00    +0.000 A 
ATOM     20  C   UNL     1      23.863  15.989  38.986  0.00  0.00    +0.000 A 
ATOM     21  C   UNL     1      24.514  14.755  38.906  0.00  0.00    +0.000 A 
ATOM     22  C   UNL     1      25.787  14.664  38.371  0.00  0.00    +0.000 A 
ENDBRANCH   9  17
BRANCH  10  23
ATOM     23  C   UNL     1      29.199  15.801  39.332  0.00  0.00    +0.000 C 
BRANCH  23  24
ATOM     24  C   UNL     1      29.801  14.331  39.720  0.00  0.00    +0.000 C 
ATOM     25  O   UNL     1      30.795  14.928  40.718  0.00  0.00    +0.000 OA
BRANCH  24  26
ATOM     26  C   UNL     1      28.695  14.043  40.910  0.00  0.00    +0.000 C 
BRANCH  26  27
ATOM     27  N   UNL     1      28.568  12.625  40.981  0.00  0.00    +0.000 NA
ATOM     28  C   UNL     1      28.183  12.064  42.213  0.00  0.00    +0.000 C 
ATOM     29  C   UNL     1      27.376  10.812  42.141  0.00  0.00    +0.000 C 
ATOM     30  C   UNL     1      27.502  10.053  40.861  0.00  0.00    +0.000 C 
ATOM     31  C   UNL     1      28.900   9.503  40.687  0.00  0.00    +0.000 C 
ATOM     32  C   UNL     1      29.879  10.631  40.980  0.00  0.00    +0.000 C 
ATOM     33  C   UNL     1      29.470  11.875  40.179  0.00  0.00    +0.000 C 
ENDBRANCH  26  27
ENDBRANCH  24  26
ENDBRANCH  23  24
ENDBRANCH  10  23
TORSDOF 6
ENDMDL
MODEL 9
REMARK VINA RESULT:      -6.8      2.847      7.296
REMARK  Name = 
REMARK  6 active torsions:
REMARK  status: ('A' for Active; 'I' for Inactive)
REMARK    1  A    between atoms: C_8  and  C_9
REMARK    2  A    between atoms: C_15  and  C_16
REMARK    3  A    between atoms: N_22  and  C_23
REMARK    4  A    between atoms: C_23  and  C_24
REMARK    5  A    between atoms: C_24  and  C_26
REMARK    6  A    between atoms: C_26  and  N_27
REMARK                            x       y       z     vdW  Elec       q    Type
REMARK                         _______ _______ _______ _____ _____    ______ ____
ROOT
ATOM      1  C   UNL     1      36.301   3.193   7.532  0.00  0.00    +0.000 C 
ATOM      2  C   UNL     1      36.810   2.834   8.881  0.00  0.00    +0.000 A 
ATOM      3  C   UNL     1      37.420   1.628   9.144  0.00  0.00    +0.000 A 
ATOM      4  C   UNL     1      37.897   1.284  10.392  0.00  0.00    +0.000 A 
ATOM      5  C   UNL     1      37.785   2.155  11.471  0.00  0.00    +0.000 A 
ATOM      6  C   UNL     1      37.175   3.365  11.213  0.00  0.00    +0.000 A 
ATOM      7  C   UNL     1      36.697   3.713   9.967  0.00  0.00    +0.000 A 
ATOM      8  C   UNL     1      37.194   4.022  12.428  0.00  0.00    +0.000 A 
ATOM      9  C   UNL     1      37.792   3.251  13.403  0.00  0.00    +0.000 A 
ATOM     10  N   UNL     1      38.140   2.113  12.772  0.00  0.00    +0.000 N 
ENDROOT
BRANCH   8  11
ATOM     11  C   UNL     1      36.662   5.349  12.672  0.00  0.00    +0.000 A 
ATOM     12  C   UNL     1      37.535   6.405  12.385  0.00  0.00    +0.000 A 
ATOM     13  C   UNL     1      37.168   7.696  12.567  0.00  0.00    +0.000 A 
ATOM     14  C   UNL     1      35.913   8.044  13.047  0.00  0.00    +0.000 A 
ATOM     15  C   UNL     1      35.057   6.986  13.329  0.00  0.00    +0.000 A 
ATOM     16  C   UNL     1      35.436   5.669  13.141  0.00  0.00    +0.000 A 
ENDBRANCH   8  11
BRANCH   9  17
ATOM     17  C   UNL     1      37.974   3.649  14.804  0.00  0.00    +0.000 A 
ATOM     18  C   UNL     1      37.067   3.185  15.736  0.00  0.00    +0.000 A 
ATOM     19  C   UNL     1      37.087   3.451  17.060  0.00  0.00    +0.000 A 
ATOM     20  C   UNL     1      38.109   4.256  17.506  0.00  0.00    +0.000 A 
ATOM     21  C   UNL     1      39.054   4.754  16.606  0.00  0.00    +0.000 A 
ATOM     22  C   UNL     1      38.977   4.442  15.260  0.00  0.00    +0.000 A 
ENDBRANCH   9  17
BRANCH  10  23
ATOM     23  C   UNL     1      38.793   1.000  13.368  0.00  0.00    +0.000 C 
BRANCH  23  24
ATOM     24  C   UNL     1      37.642  -0.081  13.794  0.00  0.00    +0.000 C 
ATOM     25  O   UNL     1      38.270  -1.186  12.943  0.00  0.00    +0.000 OA
BRANCH  24  26
ATOM     26  C   UNL     1      38.435  -0.597  15.146  0.00  0.00    +0.000 C 
BRANCH  26  27
ATOM     27  N   UNL     1      37.459  -0.608  16.183  0.00  0.00    +0.000 NA
ATOM     28  C   UNL     1      37.663  -1.487  17.264  0.00  0.00    +0.000 C 
ATOM     29  C   UNL     1      37.146  -1.032  18.586  0.00  0.00    +0.000 C 
ATOM     30  C   UNL     1      36.074   0.006  18.522  0.00  0.00    +0.000 C 
ATOM     31  C   UNL     1      34.813  -0.549  17.899  0.00  0.00    +0.000 C 
ATOM     32  C   UNL     1      35.213  -1.282  16.626  0.00  0.00    +0.000 C 
ATOM     33  C   UNL     1      36.116  -0.372  15.782  0.00  0.00    +0.000 C 
ENDBRANCH  26  27
ENDBRANCH  24  26
ENDBRANCH  23  24
ENDBRANCH  10  23
TORSDOF 6
ENDMDL
MODEL 10
REMARK VINA RESULT:      -6.8      3.428      7.862
REMARK  Name = 
REMARK  6 active torsions:
REMARK  status: ('A' for Active; 'I' for Inactive)
REMARK    1  A    between atoms: C_8  and  C_9
REMARK    2  A    between atoms: C_15  and  C_16
REMARK    3  A    between atoms: N_22  and  C_23
REMARK    4  A    between atoms: C_23  and  C_24
REMARK    5  A    between atoms: C_24  and  C_26
REMARK    6  A    between atoms: C_26  and  N_27
REMARK                            x       y       z     vdW  Elec       q    Type
REMARK                         _______ _______ _______ _____ _____    ______ ____
ROOT
ATOM      1  C   UNL     1      41.028  -3.386   9.808  0.00  0.00    +0.000 C 
ATOM      2  C   UNL     1      40.438  -2.093  10.239  0.00  0.00    +0.000 A 
ATOM      3  C   UNL     1      40.502  -0.957   9.465  0.00  0.00    +0.000 A 
ATOM      4  C   UNL     1      39.956   0.250   9.855  0.00  0.00    +0.000 A 
ATOM      5  C   UNL     1      39.300   0.382  11.075  0.00  0.00    +0.000 A 
ATOM      6  C   UNL     1      39.233  -0.754  11.854  0.00  0.00    +0.000 A 
ATOM      7  C   UNL     1      39.776  -1.961  11.468  0.00  0.00    +0.000 A 
ATOM      8  C   UNL     1      38.546  -0.352  12.983  0.00  0.00    +0.000 A 
ATOM      9  C   UNL     1      38.199   0.981  12.908  0.00  0.00    +0.000 A 
ATOM     10  N   UNL     1      38.681   1.392  11.720  0.00  0.00    +0.000 N 
ENDROOT
BRANCH   8  11
ATOM     11  C   UNL     1      38.218  -1.202  14.112  0.00  0.00    +0.000 A 
ATOM     12  C   UNL     1      39.189  -1.259  15.119  0.00  0.00    +0.000 A 
ATOM     13  C   UNL     1      39.012  -2.014  16.230  0.00  0.00    +0.000 A 
ATOM     14  C   UNL     1      37.866  -2.770  16.432  0.00  0.00    +0.000 A 
ATOM     15  C   UNL     1      36.911  -2.704  15.424  0.00  0.00    +0.000 A 
ATOM     16  C   UNL     1      37.096  -1.932  14.292  0.00  0.00    +0.000 A 
ENDBRANCH   8  11
BRANCH   9  17
ATOM     17  C   UNL     1      37.463   1.724  13.939  0.00  0.00    +0.000 A 
ATOM     18  C   UNL     1      36.084   1.693  13.903  0.00  0.00    +0.000 A 
ATOM     19  C   UNL     1      35.256   2.315  14.770  0.00  0.00    +0.000 A 
ATOM     20  C   UNL     1      35.855   3.040  15.774  0.00  0.00    +0.000 A 
ATOM     21  C   UNL     1      37.248   3.105  15.857  0.00  0.00    +0.000 A 
ATOM     22  C   UNL     1      38.040   2.443  14.935  0.00  0.00    +0.000 A 
ENDBRANCH   9  17
BRANCH  10  23
ATOM     23  C   UNL     1      38.572   2.707  11.190  0.00  0.00    +0.000 C 
BRANCH  23  24
ATOM     24  C   UNL     1      37.133   2.814  10.421  0.00  0.00    +0.000 C 
ATOM     25  O   UNL     1      36.817   4.169  11.057  0.00  0.00    +0.000 OA
BRANCH  24  26
ATOM     26  C   UNL     1      37.755   3.532   9.072  0.00  0.00    +0.000 C 
BRANCH  26  27
ATOM     27  N   UNL     1      37.352   2.709   7.979  0.00  0.00    +0.000 NA
ATOM     28  C   UNL     1      38.363   2.168   7.162  0.00  0.00    +0.000 C 
ATOM     29  C   UNL     1      38.074   0.836   6.558  0.00  0.00    +0.000 C 
ATOM     30  C   UNL     1      36.625   0.484   6.468  0.00  0.00    +0.000 C 
ATOM     31  C   UNL     1      35.900   1.398   5.507  0.00  0.00    +0.000 C 
ATOM     32  C   UNL     1      36.296   2.829   5.843  0.00  0.00    +0.000 C 
ATOM     33  C   UNL     1      36.127   3.058   7.352  0.00  0.00    +0.000 C 
ENDBRANCH  26  27
ENDBRANCH  24  26
ENDBRANCH  23  24
ENDBRANCH  10  23
TORSDOF 6
ENDMDL
