MODEL 1
REMARK VINA RESULT:      -6.6      0.000      0.000
REMARK  Name = 
REMARK  9 active torsions:
REMARK  status: ('A' for Active; 'I' for Inactive)
REMARK    1  A    between atoms: C_2  and  O_4
REMARK    2  A    between atoms: O_4  and  C_5
REMARK    3  A    between atoms: C_8  and  C_9
REMARK    4  A    between atoms: C_9  and  C_10
REMARK    5  A    between atoms: C_9  and  C_21
REMARK    6  A    between atoms: C_10  and  C_11
REMARK    7  A    between atoms: C_11  and  N_12
REMARK    8  A    between atoms: N_12  and  C_13
REMARK    9  A    between atoms: C_13  and  C_14
REMARK                            x       y       z     vdW  Elec       q    Type
REMARK                         _______ _______ _______ _____ _____    ______ ____
ROOT
ATOM      1  C   UNL     1      38.675  -2.003  14.741  0.00  0.00    +0.000 C 
ENDROOT
BRANCH   1   5
ATOM      2  C   UNL     1      36.901   1.763  13.914  0.00  0.00    +0.000 A 
ATOM      3  C   UNL     1      37.729   1.607  14.989  0.00  0.00    +0.000 A 
ATOM      4  C   UNL     1      38.310   0.341  15.203  0.00  0.00    +0.000 A 
ATOM      5  C   UNL     1      38.029  -0.683  14.338  0.00  0.00    +0.000 A 
ATOM      6  C   UNL     1      37.231  -0.481  13.323  0.00  0.00    +0.000 A 
ATOM      7  C   UNL     1      36.621   0.720  13.035  0.00  0.00    +0.000 A 
BRANCH   2   8
ATOM      8  O   UNL     1      36.295   3.015  13.624  0.00  0.00    +0.000 OA
BRANCH   8  10
ATOM      9  C   UNL     1      34.469   3.206  15.223  0.00  0.00    +0.000 C 
ATOM     10  C   UNL     1      35.834   3.767  14.774  0.00  0.00    +0.000 C 
ATOM     11  C   UNL     1      35.300   5.110  14.043  0.00  0.00    +0.000 C 
ENDBRANCH   8  10
ENDBRANCH   2   8
ENDBRANCH   1   5
BRANCH   1  12
ATOM     12  C   UNL     1      39.923  -2.225  13.862  0.00  0.00    +0.000 A 
ATOM     13  C   UNL     1      41.088  -1.847  14.510  0.00  0.00    +0.000 A 
ATOM     14  C   UNL     1      42.354  -2.185  13.954  0.00  0.00    +0.000 A 
ATOM     15  C   UNL     1      42.310  -2.873  12.792  0.00  0.00    +0.000 A 
ATOM     16  C   UNL     1      41.227  -3.209  12.129  0.00  0.00    +0.000 A 
ATOM     17  C   UNL     1      39.964  -2.883  12.681  0.00  0.00    +0.000 A 
ENDBRANCH   1  12
BRANCH   1  18
ATOM     18  C   UNL     1      37.728  -3.092  13.989  0.00  0.00    +0.000 C 
BRANCH  18  19
ATOM     19  C   UNL     1      36.852  -3.625  14.783  0.00  0.00    +0.000 C 
BRANCH  19  20
ATOM     20  N   UNL     1      35.984  -4.131  15.571  0.00  0.00    +0.000 NA
BRANCH  20  21
ATOM     21  C   UNL     1      34.891  -3.221  15.783  0.00  0.00    +0.000 C 
BRANCH  21  22
ATOM     22  C   UNL     1      35.321  -2.115  16.686  0.00  0.00    +0.000 A 
ATOM     23  C   UNL     1      34.922  -0.821  16.555  0.00  0.00    +0.000 A 
ATOM     24  C   UNL     1      35.399   0.173  17.362  0.00  0.00    +0.000 A 
ATOM     25  C   UNL     1      36.319  -0.179  18.351  0.00  0.00    +0.000 A 
ATOM     26  O   UNL     1      36.786   0.896  19.135  0.00  0.00    +0.000 OA
ATOM     27  C   UNL     1      36.715  -1.428  18.505  0.00  0.00    +0.000 A 
ATOM     28  C   UNL     1      36.232  -2.455  17.669  0.00  0.00    +0.000 A 
ENDBRANCH  21  22
ENDBRANCH  20  21
ENDBRANCH  19  20
ENDBRANCH  18  19
ENDBRANCH   1  18
TORSDOF 9
ENDMDL
MODEL 2
REMARK VINA RESULT:      -6.3      2.565      5.031
REMARK  Name = 
REMARK  9 active torsions:
REMARK  status: ('A' for Active; 'I' for Inactive)
REMARK    1  A    between atoms: C_2  and  O_4
REMARK    2  A    between atoms: O_4  and  C_5
REMARK    3  A    between atoms: C_8  and  C_9
REMARK    4  A    between atoms: C_9  and  C_10
REMARK    5  A    between atoms: C_9  and  C_21
REMARK    6  A    between atoms: C_10  and  C_11
REMARK    7  A    between atoms: C_11  and  N_12
REMARK    8  A    between atoms: N_12  and  C_13
REMARK    9  A    between atoms: C_13  and  C_14
REMARK                            x       y       z     vdW  Elec       q    Type
REMARK                         _______ _______ _______ _____ _____    ______ ____
ROOT
ATOM      1  C   UNL     1      35.974   0.745  14.775  0.00  0.00    +0.000 C 
ENDROOT
BRANCH   1   5
ATOM      2  C   UNL     1      35.413   4.920  14.257  0.00  0.00    +0.000 A 
ATOM      3  C   UNL     1      36.539   4.308  13.784  0.00  0.00    +0.000 A 
ATOM      4  C   UNL     1      36.663   2.915  13.963  0.00  0.00    +0.000 A 
ATOM      5  C   UNL     1      35.664   2.227  14.598  0.00  0.00    +0.000 A 
ATOM      6  C   UNL     1      34.606   2.861  15.031  0.00  0.00    +0.000 A 
ATOM      7  C   UNL     1      34.398   4.216  14.901  0.00  0.00    +0.000 A 
BRANCH   2   8
ATOM      8  O   UNL     1      35.210   6.318  14.097  0.00  0.00    +0.000 OA
BRANCH   8  10
ATOM      9  C   UNL     1      33.640   7.130  12.422  0.00  0.00    +0.000 C 
ATOM     10  C   UNL     1      33.834   6.730  13.899  0.00  0.00    +0.000 C 
ATOM     11  C   UNL     1      33.887   8.219  14.535  0.00  0.00    +0.000 C 
ENDBRANCH   8  10
ENDBRANCH   2   8
ENDBRANCH   1   5
BRANCH   1  12
ATOM     12  C   UNL     1      35.753   0.373  16.255  0.00  0.00    +0.000 A 
ATOM     13  C   UNL     1      35.126  -0.855  16.394  0.00  0.00    +0.000 A 
ATOM     14  C   UNL     1      35.041  -1.472  17.673  0.00  0.00    +0.000 A 
ATOM     15  C   UNL     1      35.601  -0.778  18.688  0.00  0.00    +0.000 A 
ATOM     16  C   UNL     1      36.166   0.405  18.601  0.00  0.00    +0.000 A 
ATOM     17  C   UNL     1      36.260   1.020  17.329  0.00  0.00    +0.000 A 
ENDBRANCH   1  12
BRANCH   1  18
ATOM     18  C   UNL     1      37.601   0.739  14.827  0.00  0.00    +0.000 C 
BRANCH  18  19
ATOM     19  C   UNL     1      38.106  -0.417  14.532  0.00  0.00    +0.000 C 
BRANCH  19  20
ATOM     20  N   UNL     1      38.621  -1.548  14.234  0.00  0.00    +0.000 NA
BRANCH  20  21
ATOM     21  C   UNL     1      37.709  -2.620  14.526  0.00  0.00    +0.000 C 
BRANCH  21  22
ATOM     22  C   UNL     1      38.009  -3.187  15.872  0.00  0.00    +0.000 A 
ATOM     23  C   UNL     1      38.593  -2.488  16.883  0.00  0.00    +0.000 A 
ATOM     24  C   UNL     1      38.916  -3.069  18.077  0.00  0.00    +0.000 A 
ATOM     25  C   UNL     1      38.619  -4.423  18.241  0.00  0.00    +0.000 A 
ATOM     26  O   UNL     1      38.996  -4.964  19.488  0.00  0.00    +0.000 OA
ATOM     27  C   UNL     1      38.044  -5.120  17.281  0.00  0.00    +0.000 A 
ATOM     28  C   UNL     1      37.717  -4.527  16.044  0.00  0.00    +0.000 A 
ENDBRANCH  21  22
ENDBRANCH  20  21
ENDBRANCH  19  20
ENDBRANCH  18  19
ENDBRANCH   1  18
TORSDOF 9
ENDMDL
MODEL 3
REMARK VINA RESULT:      -6.2     23.630     26.760
REMARK  Name = 
REMARK  9 active torsions:
REMARK  status: ('A' for Active; 'I' for Inactive)
REMARK    1  A    between atoms: C_2  and  O_4
REMARK    2  A    between atoms: O_4  and  C_5
REMARK    3  A    between atoms: C_8  and  C_9
REMARK    4  A    between atoms: C_9  and  C_10
REMARK    5  A    between atoms: C_9  and  C_21
REMARK    6  A    between atoms: C_10  and  C_11
REMARK    7  A    between atoms: C_11  and  N_12
REMARK    8  A    between atoms: N_12  and  C_13
REMARK    9  A    between atoms: C_13  and  C_14
REMARK                            x       y       z     vdW  Elec       q    Type
REMARK                         _______ _______ _______ _____ _____    ______ ____
ROOT
ATOM      1  C   UNL     1      13.208  -0.201  26.479  0.00  0.00    +0.000 C 
ENDROOT
BRANCH   1   5
ATOM      2  C   UNL     1      10.681   3.176  26.953  0.00  0.00    +0.000 A 
ATOM      3  C   UNL     1      10.201   2.022  26.401  0.00  0.00    +0.000 A 
ATOM      4  C   UNL     1      11.077   0.924  26.289  0.00  0.00    +0.000 A 
ATOM      5  C   UNL     1      12.368   1.045  26.730  0.00  0.00    +0.000 A 
ATOM      6  C   UNL     1      12.777   2.172  27.252  0.00  0.00    +0.000 A 
ATOM      7  C   UNL     1      11.994   3.294  27.402  0.00  0.00    +0.000 A 
BRANCH   2   8
ATOM      8  O   UNL     1       9.851   4.318  27.116  0.00  0.00    +0.000 OA
BRANCH   8  10
ATOM      9  C   UNL     1       7.770   5.381  27.799  0.00  0.00    +0.000 C 
ATOM     10  C   UNL     1       8.623   4.097  27.854  0.00  0.00    +0.000 C 
ATOM     11  C   UNL     1       9.170   4.250  29.371  0.00  0.00    +0.000 C 
ENDBRANCH   8  10
ENDBRANCH   2   8
ENDBRANCH   1   5
BRANCH   1  12
ATOM     12  C   UNL     1      12.712  -1.322  27.414  0.00  0.00    +0.000 A 
ATOM     13  C   UNL     1      12.615  -2.540  26.759  0.00  0.00    +0.000 A 
ATOM     14  C   UNL     1      12.395  -3.733  27.503  0.00  0.00    +0.000 A 
ATOM     15  C   UNL     1      12.293  -3.571  28.840  0.00  0.00    +0.000 A 
ATOM     16  C   UNL     1      12.338  -2.429  29.489  0.00  0.00    +0.000 A 
ATOM     17  C   UNL     1      12.565  -1.239  28.756  0.00  0.00    +0.000 A 
ENDBRANCH   1  12
BRANCH   1  18
ATOM     18  C   UNL     1      14.572   0.132  27.302  0.00  0.00    +0.000 C 
BRANCH  18  19
ATOM     19  C   UNL     1      15.639  -0.266  26.684  0.00  0.00    +0.000 C 
BRANCH  19  20
ATOM     20  N   UNL     1      16.680  -0.661  26.057  0.00  0.00    +0.000 NA
BRANCH  20  21
ATOM     21  C   UNL     1      17.532   0.450  25.728  0.00  0.00    +0.000 C 
BRANCH  21  22
ATOM     22  C   UNL     1      18.591   0.010  24.774  0.00  0.00    +0.000 A 
ATOM     23  C   UNL     1      19.378   0.860  24.061  0.00  0.00    +0.000 A 
ATOM     24  C   UNL     1      20.287   0.414  23.144  0.00  0.00    +0.000 A 
ATOM     25  C   UNL     1      20.396  -0.966  22.958  0.00  0.00    +0.000 A 
ATOM     26  O   UNL     1      21.337  -1.359  21.984  0.00  0.00    +0.000 OA
ATOM     27  C   UNL     1      19.652  -1.811  23.643  0.00  0.00    +0.000 A 
ATOM     28  C   UNL     1      18.707  -1.354  24.584  0.00  0.00    +0.000 A 
ENDBRANCH  21  22
ENDBRANCH  20  21
ENDBRANCH  19  20
ENDBRANCH  18  19
ENDBRANCH   1  18
TORSDOF 9
ENDMDL
MODEL 4
REMARK VINA RESULT:      -6.2      5.702      8.037
REMARK  Name = 
REMARK  9 active torsions:
REMARK  status: ('A' for Active; 'I' for Inactive)
REMARK    1  A    between atoms: C_2  and  O_4
REMARK    2  A    between atoms: O_4  and  C_5
REMARK    3  A    between atoms: C_8  and  C_9
REMARK    4  A    between atoms: C_9  and  C_10
REMARK    5  A    between atoms: C_9  and  C_21
REMARK    6  A    between atoms: C_10  and  C_11
REMARK    7  A    between atoms: C_11  and  N_12
REMARK    8  A    between atoms: N_12  and  C_13
REMARK    9  A    between atoms: C_13  and  C_14
REMARK                            x       y       z     vdW  Elec       q    Type
REMARK                         _______ _______ _______ _____ _____    ______ ____
ROOT
ATOM      1  C   UNL     1      38.978   6.081  18.784  0.00  0.00    +0.000 C 
ENDROOT
BRANCH   1   5
ATOM      2  C   UNL     1      36.645   9.502  17.854  0.00  0.00    +0.000 A 
ATOM      3  C   UNL     1      36.905   9.172  19.154  0.00  0.00    +0.000 A 
ATOM      4  C   UNL     1      37.705   8.039  19.405  0.00  0.00    +0.000 A 
ATOM      5  C   UNL     1      38.191   7.312  18.351  0.00  0.00    +0.000 A 
ATOM      6  C   UNL     1      37.914   7.671  17.126  0.00  0.00    +0.000 A 
ATOM      7  C   UNL     1      37.144   8.761  16.786  0.00  0.00    +0.000 A 
BRANCH   2   8
ATOM      8  O   UNL     1      35.863  10.642  17.523  0.00  0.00    +0.000 OA
BRANCH   8  10
ATOM      9  C   UNL     1      34.177  11.767  16.174  0.00  0.00    +0.000 C 
ATOM     10  C   UNL     1      34.795  10.410  16.571  0.00  0.00    +0.000 C 
ATOM     11  C   UNL     1      33.623   9.910  17.572  0.00  0.00    +0.000 C 
ENDBRANCH   8  10
ENDBRANCH   2   8
ENDBRANCH   1   5
BRANCH   1  12
ATOM     12  C   UNL     1      40.480   6.432  18.770  0.00  0.00    +0.000 A 
ATOM     13  C   UNL     1      41.011   6.493  20.049  0.00  0.00    +0.000 A 
ATOM     14  C   UNL     1      42.420   6.577  20.232  0.00  0.00    +0.000 A 
ATOM     15  C   UNL     1      43.151   6.594  19.096  0.00  0.00    +0.000 A 
ATOM     16  C   UNL     1      42.680   6.581  17.869  0.00  0.00    +0.000 A 
ATOM     17  C   UNL     1      41.279   6.488  17.681  0.00  0.00    +0.000 A 
ENDBRANCH   1  12
BRANCH   1  18
ATOM     18  C   UNL     1      38.989   5.184  17.426  0.00  0.00    +0.000 C 
BRANCH  18  19
ATOM     19  C   UNL     1      38.119   4.223  17.456  0.00  0.00    +0.000 C 
BRANCH  19  20
ATOM     20  N   UNL     1      37.276   3.265  17.495  0.00  0.00    +0.000 NA
BRANCH  20  21
ATOM     21  C   UNL     1      36.765   2.976  16.183  0.00  0.00    +0.000 C 
BRANCH  21  22
ATOM     22  C   UNL     1      36.253   1.577  16.136  0.00  0.00    +0.000 A 
ATOM     23  C   UNL     1      35.297   1.084  16.969  0.00  0.00    +0.000 A 
ATOM     24  C   UNL     1      34.909  -0.226  16.938  0.00  0.00    +0.000 A 
ATOM     25  C   UNL     1      35.525  -1.063  16.006  0.00  0.00    +0.000 A 
ATOM     26  O   UNL     1      35.093  -2.405  16.040  0.00  0.00    +0.000 OA
ATOM     27  C   UNL     1      36.446  -0.608  15.179  0.00  0.00    +0.000 A 
ATOM     28  C   UNL     1      36.856   0.741  15.214  0.00  0.00    +0.000 A 
ENDBRANCH  21  22
ENDBRANCH  20  21
ENDBRANCH  19  20
ENDBRANCH  18  19
ENDBRANCH   1  18
TORSDOF 9
ENDMDL
MODEL 5
REMARK VINA RESULT:      -6.2     27.102     30.483
REMARK  Name = 
REMARK  9 active torsions:
REMARK  status: ('A' for Active; 'I' for Inactive)
REMARK    1  A    between atoms: C_2  and  O_4
REMARK    2  A    between atoms: O_4  and  C_5
REMARK    3  A    between atoms: C_8  and  C_9
REMARK    4  A    between atoms: C_9  and  C_10
REMARK    5  A    between atoms: C_9  and  C_21
REMARK    6  A    between atoms: C_10  and  C_11
REMARK    7  A    between atoms: C_11  and  N_12
REMARK    8  A    between atoms: N_12  and  C_13
REMARK    9  A    between atoms: C_13  and  C_14
REMARK                            x       y       z     vdW  Elec       q    Type
REMARK                         _______ _______ _______ _____ _____    ______ ____
ROOT
ATOM      1  C   UNL     1      25.917  16.949  36.086  0.00  0.00    +0.000 C 
ENDROOT
BRANCH   1   5
ATOM      2  C   UNL     1      25.518  14.427  39.476  0.00  0.00    +0.000 A 
ATOM      3  C   UNL     1      24.413  14.854  38.795  0.00  0.00    +0.000 A 
ATOM      4  C   UNL     1      24.605  15.671  37.662  0.00  0.00    +0.000 A 
ATOM      5  C   UNL     1      25.877  16.009  37.284  0.00  0.00    +0.000 A 
ATOM      6  C   UNL     1      26.901  15.572  37.970  0.00  0.00    +0.000 A 
ATOM      7  C   UNL     1      26.810  14.771  39.086  0.00  0.00    +0.000 A 
BRANCH   2   8
ATOM      8  O   UNL     1      25.403  13.586  40.616  0.00  0.00    +0.000 OA
BRANCH   8  10
ATOM      9  C   UNL     1      26.690  11.561  41.033  0.00  0.00    +0.000 C 
ATOM     10  C   UNL     1      26.655  13.098  41.160  0.00  0.00    +0.000 C 
ATOM     11  C   UNL     1      26.333  13.190  42.745  0.00  0.00    +0.000 C 
ENDBRANCH   8  10
ENDBRANCH   2   8
ENDBRANCH   1   5
BRANCH   1  12
ATOM     12  C   UNL     1      25.533  16.150  34.824  0.00  0.00    +0.000 A 
ATOM     13  C   UNL     1      24.926  16.950  33.868  0.00  0.00    +0.000 A 
ATOM     14  C   UNL     1      24.708  16.448  32.554  0.00  0.00    +0.000 A 
ATOM     15  C   UNL     1      25.125  15.181  32.342  0.00  0.00    +0.000 A 
ATOM     16  C   UNL     1      25.663  14.381  33.235  0.00  0.00    +0.000 A 
ATOM     17  C   UNL     1      25.891  14.877  34.542  0.00  0.00    +0.000 A 
ENDBRANCH   1  12
BRANCH   1  18
ATOM     18  C   UNL     1      27.511  17.033  35.768  0.00  0.00    +0.000 C 
BRANCH  18  19
ATOM     19  C   UNL     1      27.864  18.182  35.282  0.00  0.00    +0.000 C 
BRANCH  19  20
ATOM     20  N   UNL     1      28.216  19.305  34.786  0.00  0.00    +0.000 NA
BRANCH  20  21
ATOM     21  C   UNL     1      27.338  20.357  35.222  0.00  0.00    +0.000 C 
BRANCH  21  22
ATOM     22  C   UNL     1      26.122  20.392  34.360  0.00  0.00    +0.000 A 
ATOM     23  C   UNL     1      26.150  20.447  33.001  0.00  0.00    +0.000 A 
ATOM     24  C   UNL     1      25.011  20.550  32.254  0.00  0.00    +0.000 A 
ATOM     25  C   UNL     1      23.791  20.591  32.932  0.00  0.00    +0.000 A 
ATOM     26  O   UNL     1      22.657  20.719  32.104  0.00  0.00    +0.000 OA
ATOM     27  C   UNL     1      23.737  20.529  34.249  0.00  0.00    +0.000 A 
ATOM     28  C   UNL     1      24.910  20.431  35.024  0.00  0.00    +0.000 A 
ENDBRANCH  21  22
ENDBRANCH  20  21
ENDBRANCH  19  20
ENDBRANCH  18  19
ENDBRANCH   1  18
TORSDOF 9
ENDMDL
MODEL 6
REMARK VINA RESULT:      -6.2      2.420      5.954
REMARK  Name = 
REMARK  9 active torsions:
REMARK  status: ('A' for Active; 'I' for Inactive)
REMARK    1  A    between atoms: C_2  and  O_4
REMARK    2  A    between atoms: O_4  and  C_5
REMARK    3  A    between atoms: C_8  and  C_9
REMARK    4  A    between atoms: C_9  and  C_10
REMARK    5  A    between atoms: C_9  and  C_21
REMARK    6  A    between atoms: C_10  and  C_11
REMARK    7  A    between atoms: C_11  and  N_12
REMARK    8  A    between atoms: N_12  and  C_13
REMARK    9  A    between atoms: C_13  and  C_14
REMARK                            x       y       z     vdW  Elec       q    Type
REMARK                         _______ _______ _______ _____ _____    ______ ____
ROOT
ATOM      1  C   UNL     1      35.812   0.922  15.277  0.00  0.00    +0.000 C 
ENDROOT
BRANCH   1   5
ATOM      2  C   UNL     1      38.954  -1.724  14.209  0.00  0.00    +0.000 A 
ATOM      3  C   UNL     1      37.684  -1.933  13.749  0.00  0.00    +0.000 A 
ATOM      4  C   UNL     1      36.684  -1.010  14.116  0.00  0.00    +0.000 A 
ATOM      5  C   UNL     1      37.011   0.055  14.913  0.00  0.00    +0.000 A 
ATOM      6  C   UNL     1      38.241   0.210  15.325  0.00  0.00    +0.000 A 
ATOM      7  C   UNL     1      39.282  -0.638  15.017  0.00  0.00    +0.000 A 
BRANCH   2   8
ATOM      8  O   UNL     1      40.018  -2.601  13.866  0.00  0.00    +0.000 OA
BRANCH   8  10
ATOM      9  C   UNL     1      40.704  -1.660  11.728  0.00  0.00    +0.000 C 
ATOM     10  C   UNL     1      41.133  -1.988  13.172  0.00  0.00    +0.000 C 
ATOM     11  C   UNL     1      42.027  -3.300  12.852  0.00  0.00    +0.000 C 
ENDBRANCH   8  10
ENDBRANCH   2   8
ENDBRANCH   1   5
BRANCH   1  12
ATOM     12  C   UNL     1      35.868   2.213  14.436  0.00  0.00    +0.000 A 
ATOM     13  C   UNL     1      34.949   3.156  14.869  0.00  0.00    +0.000 A 
ATOM     14  C   UNL     1      35.005   4.487  14.369  0.00  0.00    +0.000 A 
ATOM     15  C   UNL     1      35.989   4.729  13.476  0.00  0.00    +0.000 A 
ATOM     16  C   UNL     1      36.850   3.851  13.012  0.00  0.00    +0.000 A 
ATOM     17  C   UNL     1      36.804   2.527  13.512  0.00  0.00    +0.000 A 
ENDBRANCH   1  12
BRANCH   1  18
ATOM     18  C   UNL     1      36.289   1.597  16.679  0.00  0.00    +0.000 C 
BRANCH  18  19
ATOM     19  C   UNL     1      35.894   0.928  17.716  0.00  0.00    +0.000 C 
BRANCH  19  20
ATOM     20  N   UNL     1      35.523   0.267  18.744  0.00  0.00    +0.000 NA
BRANCH  20  21
ATOM     21  C   UNL     1      36.611  -0.511  19.273  0.00  0.00    +0.000 C 
BRANCH  21  22
ATOM     22  C   UNL     1      36.882  -1.673  18.379  0.00  0.00    +0.000 A 
ATOM     23  C   UNL     1      35.931  -2.314  17.647  0.00  0.00    +0.000 A 
ATOM     24  C   UNL     1      36.212  -3.420  16.897  0.00  0.00    +0.000 A 
ATOM     25  C   UNL     1      37.528  -3.885  16.894  0.00  0.00    +0.000 A 
ATOM     26  O   UNL     1      37.746  -5.041  16.117  0.00  0.00    +0.000 OA
ATOM     27  C   UNL     1      38.471  -3.277  17.588  0.00  0.00    +0.000 A 
ATOM     28  C   UNL     1      38.184  -2.140  18.369  0.00  0.00    +0.000 A 
ENDBRANCH  21  22
ENDBRANCH  20  21
ENDBRANCH  19  20
ENDBRANCH  18  19
ENDBRANCH   1  18
TORSDOF 9
ENDMDL
MODEL 7
REMARK VINA RESULT:      -6.2      2.329      5.036
REMARK  Name = 
REMARK  9 active torsions:
REMARK  status: ('A' for Active; 'I' for Inactive)
REMARK    1  A    between atoms: C_2  and  O_4
REMARK    2  A    between atoms: O_4  and  C_5
REMARK    3  A    between atoms: C_8  and  C_9
REMARK    4  A    between atoms: C_9  and  C_10
REMARK    5  A    between atoms: C_9  and  C_21
REMARK    6  A    between atoms: C_10  and  C_11
REMARK    7  A    between atoms: C_11  and  N_12
REMARK    8  A    between atoms: N_12  and  C_13
REMARK    9  A    between atoms: C_13  and  C_14
REMARK                            x       y       z     vdW  Elec       q    Type
REMARK                         _______ _______ _______ _____ _____    ______ ____
ROOT
ATOM      1  C   UNL     1      36.603   0.674  14.452  0.00  0.00    +0.000 C 
ENDROOT
BRANCH   1   5
ATOM      2  C   UNL     1      35.614   4.800  14.335  0.00  0.00    +0.000 A 
ATOM      3  C   UNL     1      36.837   4.367  13.908  0.00  0.00    +0.000 A 
ATOM      4  C   UNL     1      37.104   2.984  13.947  0.00  0.00    +0.000 A 
ATOM      5  C   UNL     1      36.141   2.125  14.407  0.00  0.00    +0.000 A 
ATOM      6  C   UNL     1      34.986   2.591  14.802  0.00  0.00    +0.000 A 
ATOM      7  C   UNL     1      34.637   3.923  14.799  0.00  0.00    +0.000 A 
BRANCH   2   8
ATOM      8  O   UNL     1      35.267   6.177  14.307  0.00  0.00    +0.000 OA
BRANCH   8  10
ATOM      9  C   UNL     1      33.890   6.993  12.472  0.00  0.00    +0.000 C 
ATOM     10  C   UNL     1      33.900   6.469  13.923  0.00  0.00    +0.000 C 
ATOM     11  C   UNL     1      33.686   7.885  14.679  0.00  0.00    +0.000 C 
ENDBRANCH   8  10
ENDBRANCH   2   8
ENDBRANCH   1   5
BRANCH   1  12
ATOM     12  C   UNL     1      36.165   0.063  15.799  0.00  0.00    +0.000 A 
ATOM     13  C   UNL     1      36.560   0.843  16.875  0.00  0.00    +0.000 A 
ATOM     14  C   UNL     1      36.056   0.567  18.177  0.00  0.00    +0.000 A 
ATOM     15  C   UNL     1      35.202  -0.477  18.258  0.00  0.00    +0.000 A 
ATOM     16  C   UNL     1      34.840  -1.262  17.269  0.00  0.00    +0.000 A 
ATOM     17  C   UNL     1      35.332  -0.988  15.969  0.00  0.00    +0.000 A 
ENDBRANCH   1  12
BRANCH   1  18
ATOM     18  C   UNL     1      38.179   0.826  14.825  0.00  0.00    +0.000 C 
BRANCH  18  19
ATOM     19  C   UNL     1      38.897  -0.153  14.372  0.00  0.00    +0.000 C 
BRANCH  19  20
ATOM     20  N   UNL     1      39.592  -1.132  13.934  0.00  0.00    +0.000 NA
BRANCH  20  21
ATOM     21  C   UNL     1      39.892  -2.061  14.990  0.00  0.00    +0.000 C 
BRANCH  21  22
ATOM     22  C   UNL     1      38.682  -2.870  15.312  0.00  0.00    +0.000 A 
ATOM     23  C   UNL     1      38.349  -3.282  16.565  0.00  0.00    +0.000 A 
ATOM     24  C   UNL     1      37.268  -4.084  16.804  0.00  0.00    +0.000 A 
ATOM     25  C   UNL     1      36.494  -4.472  15.709  0.00  0.00    +0.000 A 
ATOM     26  O   UNL     1      35.407  -5.314  16.022  0.00  0.00    +0.000 OA
ATOM     27  C   UNL     1      36.789  -4.077  14.486  0.00  0.00    +0.000 A 
ATOM     28  C   UNL     1      37.908  -3.257  14.234  0.00  0.00    +0.000 A 
ENDBRANCH  21  22
ENDBRANCH  20  21
ENDBRANCH  19  20
ENDBRANCH  18  19
ENDBRANCH   1  18
TORSDOF 9
ENDMDL
MODEL 8
REMARK VINA RESULT:      -6.1      6.339      9.638
REMARK  Name = 
REMARK  9 active torsions:
REMARK  status: ('A' for Active; 'I' for Inactive)
REMARK    1  A    between atoms: C_2  and  O_4
REMARK    2  A    between atoms: O_4  and  C_5
REMARK    3  A    between atoms: C_8  and  C_9
REMARK    4  A    between atoms: C_9  and  C_10
REMARK    5  A    between atoms: C_9  and  C_21
REMARK    6  A    between atoms: C_10  and  C_11
REMARK    7  A    between atoms: C_11  and  N_12
REMARK    8  A    between atoms: N_12  and  C_13
REMARK    9  A    between atoms: C_13  and  C_14
REMARK                            x       y       z     vdW  Elec       q    Type
REMARK                         _______ _______ _______ _____ _____    ______ ____
ROOT
ATOM      1  C   UNL     1      39.920   7.287  18.489  0.00  0.00    +0.000 C 
ENDROOT
BRANCH   1   5
ATOM      2  C   UNL     1      37.868   4.145  16.506  0.00  0.00    +0.000 A 
ATOM      3  C   UNL     1      38.278   5.250  15.816  0.00  0.00    +0.000 A 
ATOM      4  C   UNL     1      38.976   6.252  16.519  0.00  0.00    +0.000 A 
ATOM      5  C   UNL     1      39.218   6.091  17.857  0.00  0.00    +0.000 A 
ATOM      6  C   UNL     1      38.805   5.013  18.471  0.00  0.00    +0.000 A 
ATOM      7  C   UNL     1      38.119   3.983  17.866  0.00  0.00    +0.000 A 
BRANCH   2   8
ATOM      8  O   UNL     1      37.177   3.084  15.860  0.00  0.00    +0.000 OA
BRANCH   8  10
ATOM      9  C   UNL     1      35.701   1.191  16.266  0.00  0.00    +0.000 C 
ATOM     10  C   UNL     1      35.912   2.707  16.459  0.00  0.00    +0.000 C 
ATOM     11  C   UNL     1      34.887   3.228  15.319  0.00  0.00    +0.000 C 
ENDBRANCH   8  10
ENDBRANCH   2   8
ENDBRANCH   1   5
BRANCH   1  12
ATOM     12  C   UNL     1      41.249   6.805  19.105  0.00  0.00    +0.000 A 
ATOM     13  C   UNL     1      42.319   6.997  18.246  0.00  0.00    +0.000 A 
ATOM     14  C   UNL     1      43.651   6.828  18.718  0.00  0.00    +0.000 A 
ATOM     15  C   UNL     1      43.764   6.476  20.017  0.00  0.00    +0.000 A 
ATOM     16  C   UNL     1      42.772   6.244  20.848  0.00  0.00    +0.000 A 
ATOM     17  C   UNL     1      41.445   6.420  20.386  0.00  0.00    +0.000 A 
ENDBRANCH   1  12
BRANCH   1  18
ATOM     18  C   UNL     1      39.117   7.452  19.896  0.00  0.00    +0.000 C 
BRANCH  18  19
ATOM     19  C   UNL     1      38.131   8.289  19.813  0.00  0.00    +0.000 C 
BRANCH  19  20
ATOM     20  N   UNL     1      37.173   9.129  19.726  0.00  0.00    +0.000 NA
BRANCH  20  21
ATOM     21  C   UNL     1      37.374  10.024  18.618  0.00  0.00    +0.000 C 
BRANCH  21  22
ATOM     22  C   UNL     1      36.375   9.738  17.549  0.00  0.00    +0.000 A 
ATOM     23  C   UNL     1      35.040   9.970  17.668  0.00  0.00    +0.000 A 
ATOM     24  C   UNL     1      34.151   9.625  16.689  0.00  0.00    +0.000 A 
ATOM     25  C   UNL     1      34.658   9.024  15.536  0.00  0.00    +0.000 A 
ATOM     26  O   UNL     1      33.686   8.675  14.575  0.00  0.00    +0.000 OA
ATOM     27  C   UNL     1      35.949   8.797  15.391  0.00  0.00    +0.000 A 
ATOM     28  C   UNL     1      36.868   9.143  16.402  0.00  0.00    +0.000 A 
ENDBRANCH  21  22
ENDBRANCH  20  21
ENDBRANCH  19  20
ENDBRANCH  18  19
ENDBRANCH   1  18
TORSDOF 9
ENDMDL
MODEL 9
REMARK VINA RESULT:      -6.1      3.337      7.157
REMARK  Name = 
REMARK  9 active torsions:
REMARK  status: ('A' for Active; 'I' for Inactive)
REMARK    1  A    between atoms: C_2  and  O_4
REMARK    2  A    between atoms: O_4  and  C_5
REMARK    3  A    between atoms: C_8  and  C_9
REMARK    4  A    between atoms: C_9  and  C_10
REMARK    5  A    between atoms: C_9  and  C_21
REMARK    6  A    between atoms: C_10  and  C_11
REMARK    7  A    between atoms: C_11  and  N_12
REMARK    8  A    between atoms: N_12  and  C_13
REMARK    9  A    between atoms: C_13  and  C_14
REMARK                            x       y       z     vdW  Elec       q    Type
REMARK                         _______ _______ _______ _____ _____    ______ ____
ROOT
ATOM      1  C   UNL     1      36.716  -3.183  15.795  0.00  0.00    +0.000 C 
ENDROOT
BRANCH   1   5
ATOM      2  C   UNL     1      34.072  -6.456  15.236  0.00  0.00    +0.000 A 
ATOM      3  C   UNL     1      35.150  -6.569  16.068  0.00  0.00    +0.000 A 
ATOM      4  C   UNL     1      35.982  -5.443  16.235  0.00  0.00    +0.000 A 
ATOM      5  C   UNL     1      35.689  -4.285  15.566  0.00  0.00    +0.000 A 
ATOM      6  C   UNL     1      34.644  -4.229  14.782  0.00  0.00    +0.000 A 
ATOM      7  C   UNL     1      33.777  -5.274  14.559  0.00  0.00    +0.000 A 
BRANCH   2   8
ATOM      8  O   UNL     1      33.178  -7.542  15.033  0.00  0.00    +0.000 OA
BRANCH   8  10
ATOM      9  C   UNL     1      33.877  -8.295  12.825  0.00  0.00    +0.000 C 
ATOM     10  C   UNL     1      33.725  -8.674  14.313  0.00  0.00    +0.000 C 
ATOM     11  C   UNL     1      32.400  -9.596  14.180  0.00  0.00    +0.000 C 
ENDBRANCH   8  10
ENDBRANCH   2   8
ENDBRANCH   1   5
BRANCH   1  12
ATOM     12  C   UNL     1      36.339  -2.424  17.083  0.00  0.00    +0.000 A 
ATOM     13  C   UNL     1      37.436  -2.223  17.908  0.00  0.00    +0.000 A 
ATOM     14  C   UNL     1      37.335  -1.349  19.026  0.00  0.00    +0.000 A 
ATOM     15  C   UNL     1      36.129  -0.767  19.199  0.00  0.00    +0.000 A 
ATOM     16  C   UNL     1      35.058  -0.966  18.464  0.00  0.00    +0.000 A 
ATOM     17  C   UNL     1      35.154  -1.828  17.345  0.00  0.00    +0.000 A 
ENDBRANCH   1  12
BRANCH   1  18
ATOM     18  C   UNL     1      36.224  -2.032  14.755  0.00  0.00    +0.000 C 
BRANCH  18  19
ATOM     19  C   UNL     1      37.198  -1.284  14.340  0.00  0.00    +0.000 C 
BRANCH  19  20
ATOM     20  N   UNL     1      38.169  -0.553  13.947  0.00  0.00    +0.000 NA
BRANCH  20  21
ATOM     21  C   UNL     1      38.364   0.562  14.834  0.00  0.00    +0.000 C 
BRANCH  21  22
ATOM     22  C   UNL     1      37.077   1.292  15.018  0.00  0.00    +0.000 A 
ATOM     23  C   UNL     1      36.371   1.866  14.007  0.00  0.00    +0.000 A 
ATOM     24  C   UNL     1      35.233   2.588  14.231  0.00  0.00    +0.000 A 
ATOM     25  C   UNL     1      34.799   2.720  15.552  0.00  0.00    +0.000 A 
ATOM     26  O   UNL     1      33.631   3.493  15.716  0.00  0.00    +0.000 OA
ATOM     27  C   UNL     1      35.460   2.165  16.549  0.00  0.00    +0.000 A 
ATOM     28  C   UNL     1      36.638   1.426  16.323  0.00  0.00    +0.000 A 
ENDBRANCH  21  22
ENDBRANCH  20  21
ENDBRANCH  19  20
ENDBRANCH  18  19
ENDBRANCH   1  18
TORSDOF 9
ENDMDL
MODEL 10
REMARK VINA RESULT:      -6.1      2.316      4.053
REMARK  Name = 
REMARK  9 active torsions:
REMARK  status: ('A' for Active; 'I' for Inactive)
REMARK    1  A    between atoms: C_2  and  O_4
REMARK    2  A    between atoms: O_4  and  C_5
REMARK    3  A    between atoms: C_8  and  C_9
REMARK    4  A    between atoms: C_9  and  C_10
REMARK    5  A    between atoms: C_9  and  C_21
REMARK    6  A    between atoms: C_10  and  C_11
REMARK    7  A    between atoms: C_11  and  N_12
REMARK    8  A    between atoms: N_12  and  C_13
REMARK    9  A    between atoms: C_13  and  C_14
REMARK                            x       y       z     vdW  Elec       q    Type
REMARK                         _______ _______ _______ _____ _____    ______ ____
ROOT
ATOM      1  C   UNL     1      36.857   1.911  15.491  0.00  0.00    +0.000 C 
ENDROOT
BRANCH   1   5
ATOM      2  C   UNL     1      35.815   5.309  13.170  0.00  0.00    +0.000 A 
ATOM      3  C   UNL     1      35.023   4.908  14.208  0.00  0.00    +0.000 A 
ATOM      4  C   UNL     1      35.429   3.787  14.960  0.00  0.00    +0.000 A 
ATOM      5  C   UNL     1      36.590   3.141  14.631  0.00  0.00    +0.000 A 
ATOM      6  C   UNL     1      37.313   3.566  13.628  0.00  0.00    +0.000 A 
ATOM      7  C   UNL     1      36.997   4.649  12.840  0.00  0.00    +0.000 A 
BRANCH   2   8
ATOM      8  O   UNL     1      35.480   6.441  12.379  0.00  0.00    +0.000 OA
BRANCH   8  10
ATOM      9  C   UNL     1      33.548   7.303  11.175  0.00  0.00    +0.000 C 
ATOM     10  C   UNL     1      34.136   6.951  12.557  0.00  0.00    +0.000 C 
ATOM     11  C   UNL     1      34.464   8.457  13.056  0.00  0.00    +0.000 C 
ENDBRANCH   8  10
ENDBRANCH   2   8
ENDBRANCH   1   5
BRANCH   1  12
ATOM     12  C   UNL     1      37.540   0.841  14.615  0.00  0.00    +0.000 A 
ATOM     13  C   UNL     1      38.836   0.580  15.030  0.00  0.00    +0.000 A 
ATOM     14  C   UNL     1      39.545  -0.532  14.495  0.00  0.00    +0.000 A 
ATOM     15  C   UNL     1      38.867  -1.268  13.587  0.00  0.00    +0.000 A 
ATOM     16  C   UNL     1      37.656  -1.025  13.139  0.00  0.00    +0.000 A 
ATOM     17  C   UNL     1      36.942   0.075  13.674  0.00  0.00    +0.000 A 
ENDBRANCH   1  12
BRANCH   1  18
ATOM     18  C   UNL     1      35.394   1.201  15.537  0.00  0.00    +0.000 C 
BRANCH  18  19
ATOM     19  C   UNL     1      35.197   0.533  16.631  0.00  0.00    +0.000 C 
BRANCH  19  20
ATOM     20  N   UNL     1      35.020  -0.115  17.717  0.00  0.00    +0.000 NA
BRANCH  20  21
ATOM     21  C   UNL     1      34.883  -1.523  17.458  0.00  0.00    +0.000 C 
BRANCH  21  22
ATOM     22  C   UNL     1      36.213  -2.107  17.122  0.00  0.00    +0.000 A 
ATOM     23  C   UNL     1      36.423  -3.003  16.120  0.00  0.00    +0.000 A 
ATOM     24  C   UNL     1      37.646  -3.568  15.894  0.00  0.00    +0.000 A 
ATOM     25  C   UNL     1      38.700  -3.189  16.728  0.00  0.00    +0.000 A 
ATOM     26  O   UNL     1      39.929  -3.823  16.453  0.00  0.00    +0.000 OA
ATOM     27  C   UNL     1      38.525  -2.315  17.700  0.00  0.00    +0.000 A 
ATOM     28  C   UNL     1      37.262  -1.737  17.942  0.00  0.00    +0.000 A 
ENDBRANCH  21  22
ENDBRANCH  20  21
ENDBRANCH  19  20
ENDBRANCH  18  19
ENDBRANCH   1  18
TORSDOF 9
ENDMDL
