MODEL 1
REMARK VINA RESULT:      -7.5      0.000      0.000
REMARK  Name = 
REMARK  9 active torsions:
REMARK  status: ('A' for Active; 'I' for Inactive)
REMARK    1  A    between atoms: C_2  and  N_3
REMARK    2  A    between atoms: N_3  and  C_4
REMARK    3  A    between atoms: N_3  and  C_6
REMARK    4  A    between atoms: C_6  and  C_7
REMARK    5  A    between atoms: C_7  and  O_8
REMARK    6  A    between atoms: O_8  and  C_9
REMARK    7  A    between atoms: C_12  and  C_13
REMARK    8  A    between atoms: C_13  and  C_14
REMARK    9  A    between atoms: C_15  and  C_16
REMARK                            x       y       z     vdW  Elec       q    Type
REMARK                         _______ _______ _______ _____ _____    ______ ____
ROOT
ATOM      1  C   UNL     1      38.467  -1.496  14.145  0.00  0.00    +0.000 A 
ATOM      2  C   UNL     1      38.153  -2.077  15.346  0.00  0.00    +0.000 A 
ATOM      3  C   UNL     1      39.175  -2.800  15.973  0.00  0.00    +0.000 A 
ATOM      4  C   UNL     1      40.430  -2.927  15.421  0.00  0.00    +0.000 A 
ATOM      5  C   UNL     1      40.738  -2.338  14.207  0.00  0.00    +0.000 A 
ATOM      6  C   UNL     1      41.999  -2.469  13.657  0.00  0.00    +0.000 A 
ATOM      7  C   UNL     1      42.310  -1.876  12.434  0.00  0.00    +0.000 A 
ATOM      8  O   UNL     1      43.568  -2.009  11.888  0.00  0.00    +0.000 OA
ATOM      9  C   UNL     1      41.303  -1.168  11.822  0.00  0.00    +0.000 A 
ATOM     10  C   UNL     1      40.043  -1.035  12.370  0.00  0.00    +0.000 A 
ATOM     11  C   UNL     1      39.744  -1.625  13.582  0.00  0.00    +0.000 A 
ENDROOT
BRANCH   2  12
ATOM     12  C   UNL     1      36.839  -1.989  15.976  0.00  0.00    +0.000 A 
ATOM     13  C   UNL     1      35.822  -2.819  15.557  0.00  0.00    +0.000 A 
ATOM     14  C   UNL     1      34.565  -2.766  16.114  0.00  0.00    +0.000 A 
ATOM     15  C   UNL     1      34.255  -1.877  17.124  0.00  0.00    +0.000 A 
ATOM     16  O   UNL     1      32.980  -1.821  17.687  0.00  0.00    +0.000 OA
ATOM     17  C   UNL     1      35.267  -1.044  17.547  0.00  0.00    +0.000 A 
ATOM     18  C   UNL     1      36.529  -1.096  16.990  0.00  0.00    +0.000 A 
ENDBRANCH   2  12
BRANCH   1  19
ATOM     19  C   UNL     1      37.449  -0.691  13.424  0.00  0.00    +0.000 C 
BRANCH  19  23
ATOM     20  C   UNL     1      37.372   3.169  15.330  0.00  0.00    +0.000 A 
ATOM     21  C   UNL     1      36.205   2.535  15.025  0.00  0.00    +0.000 A 
ATOM     22  C   UNL     1      36.205   1.286  14.409  0.00  0.00    +0.000 A 
ATOM     23  C   UNL     1      37.387   0.658  14.093  0.00  0.00    +0.000 A 
ATOM     24  C   UNL     1      38.566   1.324  14.413  0.00  0.00    +0.000 A 
ATOM     25  C   UNL     1      38.557   2.551  15.017  0.00  0.00    +0.000 A 
BRANCH  20  26
ATOM     26  O   UNL     1      37.468   4.413  15.942  0.00  0.00    +0.000 OA
BRANCH  26  27
ATOM     27  C   UNL     1      38.626   4.909  16.565  0.00  0.00    +0.000 C 
BRANCH  27  28
ATOM     28  C   UNL     1      38.535   4.717  18.073  0.00  0.00    +0.000 C 
BRANCH  28  29
ATOM     29  N   UNL     1      38.898   5.957  18.757  0.00  0.00    +0.000 NA
BRANCH  29  31
ATOM     30  C   UNL     1      37.849   8.074  19.158  0.00  0.00    +0.000 C 
ATOM     31  C   UNL     1      38.291   7.108  18.066  0.00  0.00    +0.000 C 
ENDBRANCH  29  31
BRANCH  29  32
ATOM     32  C   UNL     1      40.353   6.172  18.621  0.00  0.00    +0.000 C 
ATOM     33  C   UNL     1      40.985   6.297  19.987  0.00  0.00    +0.000 C 
ENDBRANCH  29  32
ENDBRANCH  28  29
ENDBRANCH  27  28
ENDBRANCH  26  27
ENDBRANCH  20  26
ENDBRANCH  19  23
ENDBRANCH   1  19
TORSDOF 9
ENDMDL
MODEL 2
REMARK VINA RESULT:      -7.2      3.838      7.563
REMARK  Name = 
REMARK  9 active torsions:
REMARK  status: ('A' for Active; 'I' for Inactive)
REMARK    1  A    between atoms: C_2  and  N_3
REMARK    2  A    between atoms: N_3  and  C_4
REMARK    3  A    between atoms: N_3  and  C_6
REMARK    4  A    between atoms: C_6  and  C_7
REMARK    5  A    between atoms: C_7  and  O_8
REMARK    6  A    between atoms: O_8  and  C_9
REMARK    7  A    between atoms: C_12  and  C_13
REMARK    8  A    between atoms: C_13  and  C_14
REMARK    9  A    between atoms: C_15  and  C_16
REMARK                            x       y       z     vdW  Elec       q    Type
REMARK                         _______ _______ _______ _____ _____    ______ ____
ROOT
ATOM      1  C   UNL     1      36.368  -0.651  15.243  0.00  0.00    +0.000 A 
ATOM      2  C   UNL     1      36.215  -1.327  16.425  0.00  0.00    +0.000 A 
ATOM      3  C   UNL     1      35.662  -0.603  17.489  0.00  0.00    +0.000 A 
ATOM      4  C   UNL     1      35.290   0.716  17.365  0.00  0.00    +0.000 A 
ATOM      5  C   UNL     1      35.449   1.392  16.167  0.00  0.00    +0.000 A 
ATOM      6  C   UNL     1      35.074   2.717  16.047  0.00  0.00    +0.000 A 
ATOM      7  C   UNL     1      35.234   3.399  14.841  0.00  0.00    +0.000 A 
ATOM      8  O   UNL     1      34.861   4.719  14.726  0.00  0.00    +0.000 OA
ATOM      9  C   UNL     1      35.778   2.683  13.800  0.00  0.00    +0.000 A 
ATOM     10  C   UNL     1      36.152   1.360  13.917  0.00  0.00    +0.000 A 
ATOM     11  C   UNL     1      35.990   0.692  15.115  0.00  0.00    +0.000 A 
ENDROOT
BRANCH   2  12
ATOM     12  C   UNL     1      36.601  -2.721  16.624  0.00  0.00    +0.000 A 
ATOM     13  C   UNL     1      35.826  -3.729  16.093  0.00  0.00    +0.000 A 
ATOM     14  C   UNL     1      36.145  -5.056  16.263  0.00  0.00    +0.000 A 
ATOM     15  C   UNL     1      37.261  -5.450  16.975  0.00  0.00    +0.000 A 
ATOM     16  O   UNL     1      37.583  -6.797  17.149  0.00  0.00    +0.000 OA
ATOM     17  C   UNL     1      38.040  -4.448  17.508  0.00  0.00    +0.000 A 
ATOM     18  C   UNL     1      37.722  -3.115  17.338  0.00  0.00    +0.000 A 
ENDBRANCH   2  12
BRANCH   1  19
ATOM     19  C   UNL     1      36.924  -1.350  14.057  0.00  0.00    +0.000 C 
BRANCH  19  23
ATOM     20  C   UNL     1      41.197  -1.593  14.529  0.00  0.00    +0.000 A 
ATOM     21  C   UNL     1      40.583  -0.377  14.479  0.00  0.00    +0.000 A 
ATOM     22  C   UNL     1      39.203  -0.273  14.328  0.00  0.00    +0.000 A 
ATOM     23  C   UNL     1      38.420  -1.399  14.225  0.00  0.00    +0.000 A 
ATOM     24  C   UNL     1      39.068  -2.630  14.278  0.00  0.00    +0.000 A 
ATOM     25  C   UNL     1      40.424  -2.722  14.425  0.00  0.00    +0.000 A 
BRANCH  20  26
ATOM     26  O   UNL     1      42.564  -1.790  14.677  0.00  0.00    +0.000 OA
BRANCH  26  27
ATOM     27  C   UNL     1      43.506  -1.650  13.643  0.00  0.00    +0.000 C 
BRANCH  27  28
ATOM     28  C   UNL     1      43.560  -2.920  12.806  0.00  0.00    +0.000 C 
BRANCH  28  29
ATOM     29  N   UNL     1      42.997  -2.669  11.480  0.00  0.00    +0.000 NA
BRANCH  29  31
ATOM     30  C   UNL     1      40.701  -2.655  10.791  0.00  0.00    +0.000 C 
ATOM     31  C   UNL     1      41.842  -3.555  11.249  0.00  0.00    +0.000 C 
ENDBRANCH  29  31
BRANCH  29  32
ATOM     32  C   UNL     1      43.981  -3.075  10.456  0.00  0.00    +0.000 C 
ATOM     33  C   UNL     1      44.291  -4.547  10.593  0.00  0.00    +0.000 C 
ENDBRANCH  29  32
ENDBRANCH  28  29
ENDBRANCH  27  28
ENDBRANCH  26  27
ENDBRANCH  20  26
ENDBRANCH  19  23
ENDBRANCH   1  19
TORSDOF 9
ENDMDL
MODEL 3
REMARK VINA RESULT:      -7.1      6.203      9.309
REMARK  Name = 
REMARK  9 active torsions:
REMARK  status: ('A' for Active; 'I' for Inactive)
REMARK    1  A    between atoms: C_2  and  N_3
REMARK    2  A    between atoms: N_3  and  C_4
REMARK    3  A    between atoms: N_3  and  C_6
REMARK    4  A    between atoms: C_6  and  C_7
REMARK    5  A    between atoms: C_7  and  O_8
REMARK    6  A    between atoms: O_8  and  C_9
REMARK    7  A    between atoms: C_12  and  C_13
REMARK    8  A    between atoms: C_13  and  C_14
REMARK    9  A    between atoms: C_15  and  C_16
REMARK                            x       y       z     vdW  Elec       q    Type
REMARK                         _______ _______ _______ _____ _____    ______ ____
ROOT
ATOM      1  C   UNL     1      41.126   6.548  18.749  0.00  0.00    +0.000 A 
ATOM      2  C   UNL     1      41.105   6.402  17.387  0.00  0.00    +0.000 A 
ATOM      3  C   UNL     1      42.344   6.463  16.736  0.00  0.00    +0.000 A 
ATOM      4  C   UNL     1      43.522   6.661  17.417  0.00  0.00    +0.000 A 
ATOM      5  C   UNL     1      43.535   6.809  18.794  0.00  0.00    +0.000 A 
ATOM      6  C   UNL     1      44.721   7.007  19.475  0.00  0.00    +0.000 A 
ATOM      7  C   UNL     1      44.733   7.157  20.861  0.00  0.00    +0.000 A 
ATOM      8  O   UNL     1      45.917   7.355  21.536  0.00  0.00    +0.000 OA
ATOM      9  C   UNL     1      43.515   7.096  21.495  0.00  0.00    +0.000 A 
ATOM     10  C   UNL     1      42.329   6.897  20.818  0.00  0.00    +0.000 A 
ATOM     11  C   UNL     1      42.325   6.750  19.444  0.00  0.00    +0.000 A 
ENDROOT
BRANCH   2  12
ATOM     12  C   UNL     1      39.888   6.203  16.605  0.00  0.00    +0.000 A 
ATOM     13  C   UNL     1      39.211   5.005  16.684  0.00  0.00    +0.000 A 
ATOM     14  C   UNL     1      38.066   4.769  15.960  0.00  0.00    +0.000 A 
ATOM     15  C   UNL     1      37.533   5.721  15.113  0.00  0.00    +0.000 A 
ATOM     16  O   UNL     1      36.372   5.479  14.376  0.00  0.00    +0.000 OA
ATOM     17  C   UNL     1      38.204   6.920  15.029  0.00  0.00    +0.000 A 
ATOM     18  C   UNL     1      39.353   7.159  15.756  0.00  0.00    +0.000 A 
ENDBRANCH   2  12
BRANCH   1  19
ATOM     19  C   UNL     1      39.860   6.472  19.520  0.00  0.00    +0.000 C 
BRANCH  19  23
ATOM     20  C   UNL     1      37.580  10.037  18.729  0.00  0.00    +0.000 A 
ATOM     21  C   UNL     1      38.881  10.132  19.121  0.00  0.00    +0.000 A 
ATOM     22  C   UNL     1      39.638   8.994  19.382  0.00  0.00    +0.000 A 
ATOM     23  C   UNL     1      39.091   7.739  19.249  0.00  0.00    +0.000 A 
ATOM     24  C   UNL     1      37.760   7.666  18.849  0.00  0.00    +0.000 A 
ATOM     25  C   UNL     1      37.023   8.790  18.596  0.00  0.00    +0.000 A 
BRANCH  20  26
ATOM     26  O   UNL     1      36.750  11.117  18.449  0.00  0.00    +0.000 OA
BRANCH  26  27
ATOM     27  C   UNL     1      35.952  11.231  17.297  0.00  0.00    +0.000 C 
BRANCH  27  28
ATOM     28  C   UNL     1      34.499  11.464  17.687  0.00  0.00    +0.000 C 
BRANCH  28  29
ATOM     29  N   UNL     1      33.615  10.721  16.790  0.00  0.00    +0.000 NA
BRANCH  29  31
ATOM     30  C   UNL     1      32.200  10.035  18.599  0.00  0.00    +0.000 C 
ATOM     31  C   UNL     1      33.094   9.525  17.476  0.00  0.00    +0.000 C 
ENDBRANCH  29  31
BRANCH  29  32
ATOM     32  C   UNL     1      34.412  10.184  15.668  0.00  0.00    +0.000 C 
ATOM     33  C   UNL     1      33.856   8.848  15.236  0.00  0.00    +0.000 C 
ENDBRANCH  29  32
ENDBRANCH  28  29
ENDBRANCH  27  28
ENDBRANCH  26  27
ENDBRANCH  20  26
ENDBRANCH  19  23
ENDBRANCH   1  19
TORSDOF 9
ENDMDL
MODEL 4
REMARK VINA RESULT:      -7.1      5.600     10.038
REMARK  Name = 
REMARK  9 active torsions:
REMARK  status: ('A' for Active; 'I' for Inactive)
REMARK    1  A    between atoms: C_2  and  N_3
REMARK    2  A    between atoms: N_3  and  C_4
REMARK    3  A    between atoms: N_3  and  C_6
REMARK    4  A    between atoms: C_6  and  C_7
REMARK    5  A    between atoms: C_7  and  O_8
REMARK    6  A    between atoms: O_8  and  C_9
REMARK    7  A    between atoms: C_12  and  C_13
REMARK    8  A    between atoms: C_13  and  C_14
REMARK    9  A    between atoms: C_15  and  C_16
REMARK                            x       y       z     vdW  Elec       q    Type
REMARK                         _______ _______ _______ _____ _____    ______ ____
ROOT
ATOM      1  C   UNL     1      41.277   7.447  20.263  0.00  0.00    +0.000 A 
ATOM      2  C   UNL     1      40.722   8.664  19.969  0.00  0.00    +0.000 A 
ATOM      3  C   UNL     1      41.553   9.780  20.126  0.00  0.00    +0.000 A 
ATOM      4  C   UNL     1      42.857   9.671  20.551  0.00  0.00    +0.000 A 
ATOM      5  C   UNL     1      43.410   8.436  20.847  0.00  0.00    +0.000 A 
ATOM      6  C   UNL     1      44.720   8.331  21.273  0.00  0.00    +0.000 A 
ATOM      7  C   UNL     1      45.277   7.088  21.571  0.00  0.00    +0.000 A 
ATOM      8  O   UNL     1      46.583   6.987  21.997  0.00  0.00    +0.000 OA
ATOM      9  C   UNL     1      44.457   5.996  21.416  0.00  0.00    +0.000 A 
ATOM     10  C   UNL     1      43.148   6.098  20.990  0.00  0.00    +0.000 A 
ATOM     11  C   UNL     1      42.604   7.333  20.696  0.00  0.00    +0.000 A 
ENDROOT
BRANCH   2  12
ATOM     12  C   UNL     1      39.342   8.848  19.527  0.00  0.00    +0.000 A 
ATOM     13  C   UNL     1      39.087   9.303  18.252  0.00  0.00    +0.000 A 
ATOM     14  C   UNL     1      37.804   9.500  17.795  0.00  0.00    +0.000 A 
ATOM     15  C   UNL     1      36.703   9.252  18.591  0.00  0.00    +0.000 A 
ATOM     16  O   UNL     1      35.403   9.455  18.127  0.00  0.00    +0.000 OA
ATOM     17  C   UNL     1      36.952   8.796  19.866  0.00  0.00    +0.000 A 
ATOM     18  C   UNL     1      38.238   8.598  20.326  0.00  0.00    +0.000 A 
ENDBRANCH   2  12
BRANCH   1  19
ATOM     19  C   UNL     1      40.473   6.209  20.101  0.00  0.00    +0.000 C 
BRANCH  19  23
ATOM     20  C   UNL     1      39.736   5.604  15.902  0.00  0.00    +0.000 A 
ATOM     21  C   UNL     1      40.922   6.129  16.319  0.00  0.00    +0.000 A 
ATOM     22  C   UNL     1      41.183   6.333  17.671  0.00  0.00    +0.000 A 
ATOM     23  C   UNL     1      40.248   6.008  18.625  0.00  0.00    +0.000 A 
ATOM     24  C   UNL     1      39.043   5.475  18.177  0.00  0.00    +0.000 A 
ATOM     25  C   UNL     1      38.795   5.279  16.847  0.00  0.00    +0.000 A 
BRANCH  20  26
ATOM     26  O   UNL     1      39.389   5.368  14.577  0.00  0.00    +0.000 OA
BRANCH  26  27
ATOM     27  C   UNL     1      38.167   4.813  14.160  0.00  0.00    +0.000 C 
BRANCH  27  28
ATOM     28  C   UNL     1      37.156   5.917  13.884  0.00  0.00    +0.000 C 
BRANCH  28  29
ATOM     29  N   UNL     1      35.810   5.461  14.227  0.00  0.00    +0.000 NA
BRANCH  29  31
ATOM     30  C   UNL     1      34.772   3.481  15.092  0.00  0.00    +0.000 C 
ATOM     31  C   UNL     1      35.701   4.007  14.006  0.00  0.00    +0.000 C 
ENDBRANCH  29  31
BRANCH  29  32
ATOM     32  C   UNL     1      34.846   6.050  13.277  0.00  0.00    +0.000 C 
ATOM     33  C   UNL     1      33.882   6.950  14.012  0.00  0.00    +0.000 C 
ENDBRANCH  29  32
ENDBRANCH  28  29
ENDBRANCH  27  28
ENDBRANCH  26  27
ENDBRANCH  20  26
ENDBRANCH  19  23
ENDBRANCH   1  19
TORSDOF 9
ENDMDL
MODEL 5
REMARK VINA RESULT:      -7.1      4.294      9.982
REMARK  Name = 
REMARK  9 active torsions:
REMARK  status: ('A' for Active; 'I' for Inactive)
REMARK    1  A    between atoms: C_2  and  N_3
REMARK    2  A    between atoms: N_3  and  C_4
REMARK    3  A    between atoms: N_3  and  C_6
REMARK    4  A    between atoms: C_6  and  C_7
REMARK    5  A    between atoms: C_7  and  O_8
REMARK    6  A    between atoms: O_8  and  C_9
REMARK    7  A    between atoms: C_12  and  C_13
REMARK    8  A    between atoms: C_13  and  C_14
REMARK    9  A    between atoms: C_15  and  C_16
REMARK                            x       y       z     vdW  Elec       q    Type
REMARK                         _______ _______ _______ _____ _____    ______ ____
ROOT
ATOM      1  C   UNL     1      41.247   7.440  20.247  0.00  0.00    +0.000 A 
ATOM      2  C   UNL     1      40.706   8.663  19.949  0.00  0.00    +0.000 A 
ATOM      3  C   UNL     1      41.540   9.773  20.135  0.00  0.00    +0.000 A 
ATOM      4  C   UNL     1      42.832   9.653  20.592  0.00  0.00    +0.000 A 
ATOM      5  C   UNL     1      43.370   8.414  20.892  0.00  0.00    +0.000 A 
ATOM      6  C   UNL     1      44.669   8.298  21.351  0.00  0.00    +0.000 A 
ATOM      7  C   UNL     1      45.211   7.049  21.654  0.00  0.00    +0.000 A 
ATOM      8  O   UNL     1      46.505   6.938  22.113  0.00  0.00    +0.000 OA
ATOM      9  C   UNL     1      44.389   5.963  21.471  0.00  0.00    +0.000 A 
ATOM     10  C   UNL     1      43.092   6.076  21.011  0.00  0.00    +0.000 A 
ATOM     11  C   UNL     1      42.563   7.316  20.714  0.00  0.00    +0.000 A 
ENDROOT
BRANCH   2  12
ATOM     12  C   UNL     1      39.340   8.857  19.473  0.00  0.00    +0.000 A 
ATOM     13  C   UNL     1      39.119   9.364  18.211  0.00  0.00    +0.000 A 
ATOM     14  C   UNL     1      37.850   9.573  17.724  0.00  0.00    +0.000 A 
ATOM     15  C   UNL     1      36.727   9.286  18.475  0.00  0.00    +0.000 A 
ATOM     16  O   UNL     1      35.440   9.501  17.981  0.00  0.00    +0.000 OA
ATOM     17  C   UNL     1      36.940   8.779  19.737  0.00  0.00    +0.000 A 
ATOM     18  C   UNL     1      38.213   8.569  20.228  0.00  0.00    +0.000 A 
ENDBRANCH   2  12
BRANCH   1  19
ATOM     19  C   UNL     1      40.441   6.208  20.056  0.00  0.00    +0.000 C 
BRANCH  19  23
ATOM     20  C   UNL     1      39.870   5.598  15.832  0.00  0.00    +0.000 A 
ATOM     21  C   UNL     1      41.039   6.123  16.295  0.00  0.00    +0.000 A 
ATOM     22  C   UNL     1      41.247   6.329  17.655  0.00  0.00    +0.000 A 
ATOM     23  C   UNL     1      40.274   6.005  18.572  0.00  0.00    +0.000 A 
ATOM     24  C   UNL     1      39.088   5.471  18.078  0.00  0.00    +0.000 A 
ATOM     25  C   UNL     1      38.892   5.273  16.739  0.00  0.00    +0.000 A 
BRANCH  20  26
ATOM     26  O   UNL     1      39.576   5.359  14.495  0.00  0.00    +0.000 OA
BRANCH  26  27
ATOM     27  C   UNL     1      38.275   5.249  13.972  0.00  0.00    +0.000 C 
BRANCH  27  28
ATOM     28  C   UNL     1      38.153   3.987  13.131  0.00  0.00    +0.000 C 
BRANCH  28  29
ATOM     29  N   UNL     1      37.055   3.159  13.629  0.00  0.00    +0.000 NA
BRANCH  29  31
ATOM     30  C   UNL     1      35.072   3.137  14.975  0.00  0.00    +0.000 C 
ATOM     31  C   UNL     1      35.950   4.016  14.094  0.00  0.00    +0.000 C 
ENDBRANCH  29  31
BRANCH  29  32
ATOM     32  C   UNL     1      37.503   2.447  14.842  0.00  0.00    +0.000 C 
ATOM     33  C   UNL     1      38.761   1.665  14.546  0.00  0.00    +0.000 C 
ENDBRANCH  29  32
ENDBRANCH  28  29
ENDBRANCH  27  28
ENDBRANCH  26  27
ENDBRANCH  20  26
ENDBRANCH  19  23
ENDBRANCH   1  19
TORSDOF 9
ENDMDL
MODEL 6
REMARK VINA RESULT:      -7.0      3.664      6.888
REMARK  Name = 
REMARK  9 active torsions:
REMARK  status: ('A' for Active; 'I' for Inactive)
REMARK    1  A    between atoms: C_2  and  N_3
REMARK    2  A    between atoms: N_3  and  C_4
REMARK    3  A    between atoms: N_3  and  C_6
REMARK    4  A    between atoms: C_6  and  C_7
REMARK    5  A    between atoms: C_7  and  O_8
REMARK    6  A    between atoms: O_8  and  C_9
REMARK    7  A    between atoms: C_12  and  C_13
REMARK    8  A    between atoms: C_13  and  C_14
REMARK    9  A    between atoms: C_15  and  C_16
REMARK                            x       y       z     vdW  Elec       q    Type
REMARK                         _______ _______ _______ _____ _____    ______ ____
ROOT
ATOM      1  C   UNL     1      36.332  -0.536  15.138  0.00  0.00    +0.000 A 
ATOM      2  C   UNL     1      36.123  -1.229  16.302  0.00  0.00    +0.000 A 
ATOM      3  C   UNL     1      35.533  -0.516  17.353  0.00  0.00    +0.000 A 
ATOM      4  C   UNL     1      35.181   0.809  17.234  0.00  0.00    +0.000 A 
ATOM      5  C   UNL     1      35.397   1.502  16.056  0.00  0.00    +0.000 A 
ATOM      6  C   UNL     1      35.041   2.833  15.941  0.00  0.00    +0.000 A 
ATOM      7  C   UNL     1      35.259   3.531  14.754  0.00  0.00    +0.000 A 
ATOM      8  O   UNL     1      34.904   4.857  14.644  0.00  0.00    +0.000 OA
ATOM      9  C   UNL     1      35.838   2.826  13.725  0.00  0.00    +0.000 A 
ATOM     10  C   UNL     1      36.193   1.497  13.837  0.00  0.00    +0.000 A 
ATOM     11  C   UNL     1      35.974   0.813  15.016  0.00  0.00    +0.000 A 
ENDROOT
BRANCH   2  12
ATOM     12  C   UNL     1      36.486  -2.630  16.494  0.00  0.00    +0.000 A 
ATOM     13  C   UNL     1      37.639  -2.951  17.177  0.00  0.00    +0.000 A 
ATOM     14  C   UNL     1      38.027  -4.256  17.374  0.00  0.00    +0.000 A 
ATOM     15  C   UNL     1      37.280  -5.316  16.897  0.00  0.00    +0.000 A 
ATOM     16  O   UNL     1      37.676  -6.639  17.095  0.00  0.00    +0.000 OA
ATOM     17  C   UNL     1      36.127  -5.002  16.214  0.00  0.00    +0.000 A 
ATOM     18  C   UNL     1      35.736  -3.693  16.015  0.00  0.00    +0.000 A 
ENDBRANCH   2  12
BRANCH   1  19
ATOM     19  C   UNL     1      36.930  -1.223  13.966  0.00  0.00    +0.000 C 
BRANCH  19  23
ATOM     20  C   UNL     1      41.197  -1.382  14.521  0.00  0.00    +0.000 A 
ATOM     21  C   UNL     1      40.529  -0.205  14.689  0.00  0.00    +0.000 A 
ATOM     22  C   UNL     1      39.150  -0.130  14.516  0.00  0.00    +0.000 A 
ATOM     23  C   UNL     1      38.423  -1.244  14.170  0.00  0.00    +0.000 A 
ATOM     24  C   UNL     1      39.125  -2.434  14.003  0.00  0.00    +0.000 A 
ATOM     25  C   UNL     1      40.480  -2.499  14.174  0.00  0.00    +0.000 A 
BRANCH  20  26
ATOM     26  O   UNL     1      42.568  -1.550  14.673  0.00  0.00    +0.000 OA
BRANCH  26  27
ATOM     27  C   UNL     1      43.406  -2.162  13.724  0.00  0.00    +0.000 C 
BRANCH  27  28
ATOM     28  C   UNL     1      44.864  -2.000  14.129  0.00  0.00    +0.000 C 
BRANCH  28  29
ATOM     29  N   UNL     1      45.056  -0.717  14.805  0.00  0.00    +0.000 NA
BRANCH  29  31
ATOM     30  C   UNL     1      46.943  -0.473  13.348  0.00  0.00    +0.000 C 
ATOM     31  C   UNL     1      45.711   0.238  13.893  0.00  0.00    +0.000 C 
ENDBRANCH  29  31
BRANCH  29  32
ATOM     32  C   UNL     1      46.022  -0.895  15.907  0.00  0.00    +0.000 C 
ATOM     33  C   UNL     1      45.549  -0.150  17.132  0.00  0.00    +0.000 C 
ENDBRANCH  29  32
ENDBRANCH  28  29
ENDBRANCH  27  28
ENDBRANCH  26  27
ENDBRANCH  20  26
ENDBRANCH  19  23
ENDBRANCH   1  19
TORSDOF 9
ENDMDL
MODEL 7
REMARK VINA RESULT:      -7.0      7.262     10.186
REMARK  Name = 
REMARK  9 active torsions:
REMARK  status: ('A' for Active; 'I' for Inactive)
REMARK    1  A    between atoms: C_2  and  N_3
REMARK    2  A    between atoms: N_3  and  C_4
REMARK    3  A    between atoms: N_3  and  C_6
REMARK    4  A    between atoms: C_6  and  C_7
REMARK    5  A    between atoms: C_7  and  O_8
REMARK    6  A    between atoms: O_8  and  C_9
REMARK    7  A    between atoms: C_12  and  C_13
REMARK    8  A    between atoms: C_13  and  C_14
REMARK    9  A    between atoms: C_15  and  C_16
REMARK                            x       y       z     vdW  Elec       q    Type
REMARK                         _______ _______ _______ _____ _____    ______ ____
ROOT
ATOM      1  C   UNL     1      42.026   6.590  19.225  0.00  0.00    +0.000 A 
ATOM      2  C   UNL     1      43.296   6.878  19.651  0.00  0.00    +0.000 A 
ATOM      3  C   UNL     1      44.269   7.021  18.653  0.00  0.00    +0.000 A 
ATOM      4  C   UNL     1      43.975   6.881  17.316  0.00  0.00    +0.000 A 
ATOM      5  C   UNL     1      42.689   6.588  16.894  0.00  0.00    +0.000 A 
ATOM      6  C   UNL     1      42.399   6.448  15.551  0.00  0.00    +0.000 A 
ATOM      7  C   UNL     1      41.104   6.154  15.126  0.00  0.00    +0.000 A 
ATOM      8  O   UNL     1      40.818   6.014  13.786  0.00  0.00    +0.000 OA
ATOM      9  C   UNL     1      40.153   6.014  16.110  0.00  0.00    +0.000 A 
ATOM     10  C   UNL     1      40.440   6.154  17.452  0.00  0.00    +0.000 A 
ATOM     11  C   UNL     1      41.726   6.446  17.864  0.00  0.00    +0.000 A 
ENDROOT
BRANCH   2  12
ATOM     12  C   UNL     1      43.674   7.026  21.053  0.00  0.00    +0.000 A 
ATOM     13  C   UNL     1      43.860   5.906  21.834  0.00  0.00    +0.000 A 
ATOM     14  C   UNL     1      44.207   5.997  23.162  0.00  0.00    +0.000 A 
ATOM     15  C   UNL     1      44.385   7.217  23.785  0.00  0.00    +0.000 A 
ATOM     16  O   UNL     1      44.733   7.308  25.133  0.00  0.00    +0.000 OA
ATOM     17  C   UNL     1      44.200   8.340  23.011  0.00  0.00    +0.000 A 
ATOM     18  C   UNL     1      43.853   8.251  21.678  0.00  0.00    +0.000 A 
ENDBRANCH   2  12
BRANCH   1  19
ATOM     19  C   UNL     1      40.929   6.446  20.215  0.00  0.00    +0.000 C 
BRANCH  19  23
ATOM     20  C   UNL     1      38.744  10.151  20.383  0.00  0.00    +0.000 A 
ATOM     21  C   UNL     1      40.095  10.163  20.205  0.00  0.00    +0.000 A 
ATOM     22  C   UNL     1      40.822   8.978  20.147  0.00  0.00    +0.000 A 
ATOM     23  C   UNL     1      40.195   7.760  20.267  0.00  0.00    +0.000 A 
ATOM     24  C   UNL     1      38.815   7.772  20.449  0.00  0.00    +0.000 A 
ATOM     25  C   UNL     1      38.108   8.941  20.506  0.00  0.00    +0.000 A 
BRANCH  20  26
ATOM     26  O   UNL     1      37.939  11.282  20.454  0.00  0.00    +0.000 OA
BRANCH  26  27
ATOM     27  C   UNL     1      37.810  12.235  19.429  0.00  0.00    +0.000 C 
BRANCH  27  28
ATOM     28  C   UNL     1      36.880  11.715  18.342  0.00  0.00    +0.000 C 
BRANCH  28  29
ATOM     29  N   UNL     1      37.628  11.500  17.104  0.00  0.00    +0.000 NA
BRANCH  29  31
ATOM     30  C   UNL     1      35.423  12.095  16.375  0.00  0.00    +0.000 C 
ATOM     31  C   UNL     1      36.891  12.077  15.965  0.00  0.00    +0.000 C 
ENDBRANCH  29  31
BRANCH  29  32
ATOM     32  C   UNL     1      37.674  10.052  16.817  0.00  0.00    +0.000 C 
ATOM     33  C   UNL     1      39.109   9.592  16.720  0.00  0.00    +0.000 C 
ENDBRANCH  29  32
ENDBRANCH  28  29
ENDBRANCH  27  28
ENDBRANCH  26  27
ENDBRANCH  20  26
ENDBRANCH  19  23
ENDBRANCH   1  19
TORSDOF 9
ENDMDL
MODEL 8
REMARK VINA RESULT:      -6.9      5.918      9.856
REMARK  Name = 
REMARK  9 active torsions:
REMARK  status: ('A' for Active; 'I' for Inactive)
REMARK    1  A    between atoms: C_2  and  N_3
REMARK    2  A    between atoms: N_3  and  C_4
REMARK    3  A    between atoms: N_3  and  C_6
REMARK    4  A    between atoms: C_6  and  C_7
REMARK    5  A    between atoms: C_7  and  O_8
REMARK    6  A    between atoms: O_8  and  C_9
REMARK    7  A    between atoms: C_12  and  C_13
REMARK    8  A    between atoms: C_13  and  C_14
REMARK    9  A    between atoms: C_15  and  C_16
REMARK                            x       y       z     vdW  Elec       q    Type
REMARK                         _______ _______ _______ _____ _____    ______ ____
ROOT
ATOM      1  C   UNL     1      40.298   6.077  18.008  0.00  0.00    +0.000 A 
ATOM      2  C   UNL     1      41.581   6.553  18.070  0.00  0.00    +0.000 A 
ATOM      3  C   UNL     1      42.307   6.540  16.872  0.00  0.00    +0.000 A 
ATOM      4  C   UNL     1      41.770   6.076  15.693  0.00  0.00    +0.000 A 
ATOM      5  C   UNL     1      40.473   5.596  15.640  0.00  0.00    +0.000 A 
ATOM      6  C   UNL     1      39.937   5.132  14.453  0.00  0.00    +0.000 A 
ATOM      7  C   UNL     1      38.631   4.648  14.399  0.00  0.00    +0.000 A 
ATOM      8  O   UNL     1      38.101   4.185  13.215  0.00  0.00    +0.000 OA
ATOM      9  C   UNL     1      37.923   4.663  15.578  0.00  0.00    +0.000 A 
ATOM     10  C   UNL     1      38.454   5.127  16.764  0.00  0.00    +0.000 A 
ATOM     11  C   UNL     1      39.750   5.605  16.808  0.00  0.00    +0.000 A 
ENDROOT
BRANCH   2  12
ATOM     12  C   UNL     1      42.211   7.046  19.291  0.00  0.00    +0.000 A 
ATOM     13  C   UNL     1      42.462   8.393  19.437  0.00  0.00    +0.000 A 
ATOM     14  C   UNL     1      43.062   8.902  20.565  0.00  0.00    +0.000 A 
ATOM     15  C   UNL     1      43.447   8.088  21.613  0.00  0.00    +0.000 A 
ATOM     16  O   UNL     1      44.059   8.605  22.756  0.00  0.00    +0.000 OA
ATOM     17  C   UNL     1      43.200   6.741  21.473  0.00  0.00    +0.000 A 
ATOM     18  C   UNL     1      42.597   6.229  20.342  0.00  0.00    +0.000 A 
ENDBRANCH   2  12
BRANCH   1  19
ATOM     19  C   UNL     1      39.449   6.078  19.227  0.00  0.00    +0.000 C 
BRANCH  19  23
ATOM     20  C   UNL     1      38.163  10.118  19.978  0.00  0.00    +0.000 A 
ATOM     21  C   UNL     1      38.158   9.624  18.708  0.00  0.00    +0.000 A 
ATOM     22  C   UNL     1      38.568   8.321  18.441  0.00  0.00    +0.000 A 
ATOM     23  C   UNL     1      38.991   7.495  19.455  0.00  0.00    +0.000 A 
ATOM     24  C   UNL     1      38.990   8.020  20.744  0.00  0.00    +0.000 A 
ATOM     25  C   UNL     1      38.586   9.302  20.997  0.00  0.00    +0.000 A 
BRANCH  20  26
ATOM     26  O   UNL     1      37.773  11.402  20.337  0.00  0.00    +0.000 OA
BRANCH  26  27
ATOM     27  C   UNL     1      38.476  12.230  21.229  0.00  0.00    +0.000 C 
BRANCH  27  28
ATOM     28  C   UNL     1      37.891  13.635  21.214  0.00  0.00    +0.000 C 
BRANCH  28  29
ATOM     29  N   UNL     1      37.408  13.989  22.548  0.00  0.00    +0.000 NA
BRANCH  29  31
ATOM     30  C   UNL     1      38.261  16.023  21.608  0.00  0.00    +0.000 C 
ATOM     31  C   UNL     1      37.347  15.455  22.687  0.00  0.00    +0.000 C 
ENDBRANCH  29  31
BRANCH  29  32
ATOM     32  C   UNL     1      38.407  13.566  23.549  0.00  0.00    +0.000 C 
ATOM     33  C   UNL     1      37.729  13.290  24.869  0.00  0.00    +0.000 C 
ENDBRANCH  29  32
ENDBRANCH  28  29
ENDBRANCH  27  28
ENDBRANCH  26  27
ENDBRANCH  20  26
ENDBRANCH  19  23
ENDBRANCH   1  19
TORSDOF 9
ENDMDL
MODEL 9
REMARK VINA RESULT:      -6.9      2.957      6.313
REMARK  Name = 
REMARK  9 active torsions:
REMARK  status: ('A' for Active; 'I' for Inactive)
REMARK    1  A    between atoms: C_2  and  N_3
REMARK    2  A    between atoms: N_3  and  C_4
REMARK    3  A    between atoms: N_3  and  C_6
REMARK    4  A    between atoms: C_6  and  C_7
REMARK    5  A    between atoms: C_7  and  O_8
REMARK    6  A    between atoms: O_8  and  C_9
REMARK    7  A    between atoms: C_12  and  C_13
REMARK    8  A    between atoms: C_13  and  C_14
REMARK    9  A    between atoms: C_15  and  C_16
REMARK                            x       y       z     vdW  Elec       q    Type
REMARK                         _______ _______ _______ _____ _____    ______ ____
ROOT
ATOM      1  C   UNL     1      36.798  -1.893  15.756  0.00  0.00    +0.000 A 
ATOM      2  C   UNL     1      37.310  -2.832  14.899  0.00  0.00    +0.000 A 
ATOM      3  C   UNL     1      36.455  -3.885  14.549  0.00  0.00    +0.000 A 
ATOM      4  C   UNL     1      35.171  -3.981  15.035  0.00  0.00    +0.000 A 
ATOM      5  C   UNL     1      34.663  -3.028  15.901  0.00  0.00    +0.000 A 
ATOM      6  C   UNL     1      33.372  -3.128  16.386  0.00  0.00    +0.000 A 
ATOM      7  C   UNL     1      32.860  -2.169  17.259  0.00  0.00    +0.000 A 
ATOM      8  O   UNL     1      31.575  -2.272  17.741  0.00  0.00    +0.000 OA
ATOM      9  C   UNL     1      33.704  -1.138  17.599  0.00  0.00    +0.000 A 
ATOM     10  C   UNL     1      34.992  -1.035  17.116  0.00  0.00    +0.000 A 
ATOM     11  C   UNL     1      35.492  -1.989  16.251  0.00  0.00    +0.000 A 
ENDROOT
BRANCH   2  12
ATOM     12  C   UNL     1      38.666  -2.793  14.360  0.00  0.00    +0.000 A 
ATOM     13  C   UNL     1      39.745  -2.869  15.215  0.00  0.00    +0.000 A 
ATOM     14  C   UNL     1      41.040  -2.827  14.754  0.00  0.00    +0.000 A 
ATOM     15  C   UNL     1      41.329  -2.706  13.409  0.00  0.00    +0.000 A 
ATOM     16  O   UNL     1      42.644  -2.660  12.943  0.00  0.00    +0.000 OA
ATOM     17  C   UNL     1      40.256  -2.630  12.550  0.00  0.00    +0.000 A 
ATOM     18  C   UNL     1      38.956  -2.672  13.010  0.00  0.00    +0.000 A 
ENDBRANCH   2  12
BRANCH   1  19
ATOM     19  C   UNL     1      37.629  -0.730  16.160  0.00  0.00    +0.000 C 
BRANCH  19  23
ATOM     20  C   UNL     1      37.928   1.807  12.694  0.00  0.00    +0.000 A 
ATOM     21  C   UNL     1      39.003   1.643  13.515  0.00  0.00    +0.000 A 
ATOM     22  C   UNL     1      38.930   0.828  14.641  0.00  0.00    +0.000 A 
ATOM     23  C   UNL     1      37.768   0.163  14.954  0.00  0.00    +0.000 A 
ATOM     24  C   UNL     1      36.683   0.345  14.102  0.00  0.00    +0.000 A 
ATOM     25  C   UNL     1      36.763   1.150  12.999  0.00  0.00    +0.000 A 
BRANCH  20  26
ATOM     26  O   UNL     1      37.909   2.600  11.552  0.00  0.00    +0.000 OA
BRANCH  26  27
ATOM     27  C   UNL     1      37.146   3.771  11.407  0.00  0.00    +0.000 C 
BRANCH  27  28
ATOM     28  C   UNL     1      37.300   4.654  12.638  0.00  0.00    +0.000 C 
BRANCH  28  29
ATOM     29  N   UNL     1      35.999   4.852  13.277  0.00  0.00    +0.000 NA
BRANCH  29  31
ATOM     30  C   UNL     1      34.521   6.621  12.618  0.00  0.00    +0.000 C 
ATOM     31  C   UNL     1      35.746   6.292  13.463  0.00  0.00    +0.000 C 
ENDBRANCH  29  31
BRANCH  29  32
ATOM     32  C   UNL     1      36.051   4.308  14.649  0.00  0.00    +0.000 C 
ATOM     33  C   UNL     1      34.777   3.556  14.953  0.00  0.00    +0.000 C 
ENDBRANCH  29  32
ENDBRANCH  28  29
ENDBRANCH  27  28
ENDBRANCH  26  27
ENDBRANCH  20  26
ENDBRANCH  19  23
ENDBRANCH   1  19
TORSDOF 9
ENDMDL
MODEL 10
REMARK VINA RESULT:      -6.9      6.927     10.124
REMARK  Name = 
REMARK  9 active torsions:
REMARK  status: ('A' for Active; 'I' for Inactive)
REMARK    1  A    between atoms: C_2  and  N_3
REMARK    2  A    between atoms: N_3  and  C_4
REMARK    3  A    between atoms: N_3  and  C_6
REMARK    4  A    between atoms: C_6  and  C_7
REMARK    5  A    between atoms: C_7  and  O_8
REMARK    6  A    between atoms: O_8  and  C_9
REMARK    7  A    between atoms: C_12  and  C_13
REMARK    8  A    between atoms: C_13  and  C_14
REMARK    9  A    between atoms: C_15  and  C_16
REMARK                            x       y       z     vdW  Elec       q    Type
REMARK                         _______ _______ _______ _____ _____    ______ ____
ROOT
ATOM      1  C   UNL     1      41.576   6.568  19.141  0.00  0.00    +0.000 A 
ATOM      2  C   UNL     1      41.508   6.720  17.781  0.00  0.00    +0.000 A 
ATOM      3  C   UNL     1      42.728   6.881  17.112  0.00  0.00    +0.000 A 
ATOM      4  C   UNL     1      43.934   6.889  17.775  0.00  0.00    +0.000 A 
ATOM      5  C   UNL     1      43.993   6.736  19.150  0.00  0.00    +0.000 A 
ATOM      6  C   UNL     1      45.206   6.744  19.812  0.00  0.00    +0.000 A 
ATOM      7  C   UNL     1      45.266   6.591  21.196  0.00  0.00    +0.000 A 
ATOM      8  O   UNL     1      46.476   6.601  21.853  0.00  0.00    +0.000 OA
ATOM      9  C   UNL     1      44.065   6.434  21.848  0.00  0.00    +0.000 A 
ATOM     10  C   UNL     1      42.852   6.424  21.189  0.00  0.00    +0.000 A 
ATOM     11  C   UNL     1      42.802   6.577  19.818  0.00  0.00    +0.000 A 
ENDROOT
BRANCH   2  12
ATOM     12  C   UNL     1      40.261   6.734  17.021  0.00  0.00    +0.000 A 
ATOM     13  C   UNL     1      39.689   7.936  16.665  0.00  0.00    +0.000 A 
ATOM     14  C   UNL     1      38.510   7.998  15.959  0.00  0.00    +0.000 A 
ATOM     15  C   UNL     1      37.836   6.857  15.569  0.00  0.00    +0.000 A 
ATOM     16  O   UNL     1      36.639   6.921  14.855  0.00  0.00    +0.000 OA
ATOM     17  C   UNL     1      38.402   5.653  15.922  0.00  0.00    +0.000 A 
ATOM     18  C   UNL     1      39.585   5.589  16.630  0.00  0.00    +0.000 A 
ENDBRANCH   2  12
BRANCH   1  19
ATOM     19  C   UNL     1      40.331   6.368  19.925  0.00  0.00    +0.000 C 
BRANCH  19  23
ATOM     20  C   UNL     1      38.711  10.294  20.630  0.00  0.00    +0.000 A 
ATOM     21  C   UNL     1      37.876   9.232  20.457  0.00  0.00    +0.000 A 
ATOM     22  C   UNL     1      38.376   7.953  20.229  0.00  0.00    +0.000 A 
ATOM     23  C   UNL     1      39.731   7.728  20.172  0.00  0.00    +0.000 A 
ATOM     24  C   UNL     1      40.566   8.827  20.351  0.00  0.00    +0.000 A 
ATOM     25  C   UNL     1      40.065  10.080  20.574  0.00  0.00    +0.000 A 
BRANCH  20  26
ATOM     26  O   UNL     1      38.302  11.602  20.862  0.00  0.00    +0.000 OA
BRANCH  26  27
ATOM     27  C   UNL     1      39.133  12.622  21.357  0.00  0.00    +0.000 C 
BRANCH  27  28
ATOM     28  C   UNL     1      38.654  13.069  22.731  0.00  0.00    +0.000 C 
BRANCH  28  29
ATOM     29  N   UNL     1      37.456  13.897  22.598  0.00  0.00    +0.000 NA
BRANCH  29  31
ATOM     30  C   UNL     1      38.313  16.130  22.759  0.00  0.00    +0.000 C 
ATOM     31  C   UNL     1      37.759  15.093  21.790  0.00  0.00    +0.000 C 
ENDBRANCH  29  31
BRANCH  29  32
ATOM     32  C   UNL     1      37.093  14.433  23.925  0.00  0.00    +0.000 C 
ATOM     33  C   UNL     1      37.425  13.422  24.997  0.00  0.00    +0.000 C 
ENDBRANCH  29  32
ENDBRANCH  28  29
ENDBRANCH  27  28
ENDBRANCH  26  27
ENDBRANCH  20  26
ENDBRANCH  19  23
ENDBRANCH   1  19
TORSDOF 9
ENDMDL
