MODEL 1
REMARK VINA RESULT:      -6.8      0.000      0.000
REMARK  Name = 
REMARK  3 active torsions:
REMARK  status: ('A' for Active; 'I' for Inactive)
REMARK    1  A    between atoms: C_8  and  C_9
REMARK    2  A    between atoms: C_12  and  S_13
REMARK    3  A    between atoms: S_13  and  C_14
REMARK                            x       y       z     vdW  Elec       q    Type
REMARK                         _______ _______ _______ _____ _____    ______ ____
ROOT
ATOM      1  C   UNL     1      31.567  21.996  11.915  0.00  0.00    +0.000 A 
ATOM      2  C   UNL     1      32.060  20.880  12.516  0.00  0.00    +0.000 A 
ATOM      3  C   UNL     1      33.341  20.422  12.220  0.00  0.00    +0.000 A 
ATOM      4  C   UNL     1      34.143  21.079  11.319  0.00  0.00    +0.000 A 
ATOM      5  C   UNL     1      33.616  22.213  10.723  0.00  0.00    +0.000 A 
ATOM      6  C   UNL     1      32.348  22.671  11.010  0.00  0.00    +0.000 A 
ENDROOT
BRANCH   1  14
ATOM      7  C   UNL     1      29.498  21.135  10.402  0.00  0.00    +0.000 C 
ATOM      8  C   UNL     1      29.280  22.673  10.973  0.00  0.00    +0.000 C 
ATOM      9  C   UNL     1      27.813  22.318  11.633  0.00  0.00    +0.000 C 
ATOM     10  C   UNL     1      27.644  23.273  12.752  0.00  0.00    +0.000 C 
ATOM     11  O   UNL     1      26.765  24.181  12.754  0.00  0.00    +0.000 OA
ATOM     12  N   UNL     1      28.576  23.027  13.782  0.00  0.00    +0.000 NA
ATOM     13  N   UNL     1      29.808  22.620  13.416  0.00  0.00    +0.000 NA
ATOM     14  C   UNL     1      30.203  22.440  12.262  0.00  0.00    +0.000 C 
ENDBRANCH   1  14
BRANCH   4  15
ATOM     15  S   UNL     1      35.789  20.497  10.934  0.00  0.00    +0.000 S 
BRANCH  15  16
ATOM     16  C   UNL     1      36.544  19.769  12.381  0.00  0.00    +0.000 A 
ATOM     17  N   UNL     1      36.231  18.558  12.865  0.00  0.00    +0.000 NA
ATOM     18  C   UNL     1      36.961  18.275  13.962  0.00  0.00    +0.000 A 
ATOM     19  C   UNL     1      37.766  19.383  14.156  0.00  0.00    +0.000 A 
ATOM     20  N   UNL     1      37.492  20.285  13.174  0.00  0.00    +0.000 N 
ATOM     21  C   UNL     1      38.126  21.576  13.028  0.00  0.00    +0.000 C 
ENDBRANCH  15  16
ENDBRANCH   4  15
TORSDOF 3
ENDMDL
MODEL 2
REMARK VINA RESULT:      -6.6      1.035      1.815
REMARK  Name = 
REMARK  3 active torsions:
REMARK  status: ('A' for Active; 'I' for Inactive)
REMARK    1  A    between atoms: C_8  and  C_9
REMARK    2  A    between atoms: C_12  and  S_13
REMARK    3  A    between atoms: S_13  and  C_14
REMARK                            x       y       z     vdW  Elec       q    Type
REMARK                         _______ _______ _______ _____ _____    ______ ____
ROOT
ATOM      1  C   UNL     1      31.998  21.884  11.740  0.00  0.00    +0.000 A 
ATOM      2  C   UNL     1      32.497  20.789  12.374  0.00  0.00    +0.000 A 
ATOM      3  C   UNL     1      33.804  20.368  12.140  0.00  0.00    +0.000 A 
ATOM      4  C   UNL     1      34.624  21.040  11.268  0.00  0.00    +0.000 A 
ATOM      5  C   UNL     1      34.091  22.152  10.636  0.00  0.00    +0.000 A 
ATOM      6  C   UNL     1      32.798  22.574  10.863  0.00  0.00    +0.000 A 
ENDROOT
BRANCH   1  14
ATOM      7  C   UNL     1      30.034  21.005  10.103  0.00  0.00    +0.000 C 
ATOM      8  C   UNL     1      29.749  22.526  10.689  0.00  0.00    +0.000 C 
ATOM      9  C   UNL     1      28.258  22.125  11.264  0.00  0.00    +0.000 C 
ATOM     10  C   UNL     1      28.007  23.054  12.389  0.00  0.00    +0.000 C 
ATOM     11  O   UNL     1      27.108  23.941  12.361  0.00  0.00    +0.000 OA
ATOM     12  N   UNL     1      28.889  22.810  13.462  0.00  0.00    +0.000 NA
ATOM     13  N   UNL     1      30.148  22.438  13.155  0.00  0.00    +0.000 NA
ATOM     14  C   UNL     1      30.608  22.290  12.022  0.00  0.00    +0.000 C 
ENDBRANCH   1  14
BRANCH   4  15
ATOM     15  S   UNL     1      36.303  20.505  10.963  0.00  0.00    +0.000 S 
BRANCH  15  16
ATOM     16  C   UNL     1      37.440  21.403  12.007  0.00  0.00    +0.000 A 
ATOM     17  N   UNL     1      38.090  22.515  11.632  0.00  0.00    +0.000 NA
ATOM     18  C   UNL     1      38.877  22.971  12.626  0.00  0.00    +0.000 A 
ATOM     19  C   UNL     1      38.695  22.081  13.669  0.00  0.00    +0.000 A 
ATOM     20  N   UNL     1      37.809  21.129  13.265  0.00  0.00    +0.000 N 
ATOM     21  C   UNL     1      37.356  20.017  14.071  0.00  0.00    +0.000 C 
ENDBRANCH  15  16
ENDBRANCH   4  15
TORSDOF 3
ENDMDL
MODEL 3
REMARK VINA RESULT:      -6.5     30.025     31.734
REMARK  Name = 
REMARK  3 active torsions:
REMARK  status: ('A' for Active; 'I' for Inactive)
REMARK    1  A    between atoms: C_8  and  C_9
REMARK    2  A    between atoms: C_12  and  S_13
REMARK    3  A    between atoms: S_13  and  C_14
REMARK                            x       y       z     vdW  Elec       q    Type
REMARK                         _______ _______ _______ _____ _____    ______ ____
ROOT
ATOM      1  C   UNL     1      16.983  10.398  35.824  0.00  0.00    +0.000 A 
ATOM      2  C   UNL     1      18.247   9.901  35.901  0.00  0.00    +0.000 A 
ATOM      3  C   UNL     1      18.818   9.604  37.136  0.00  0.00    +0.000 A 
ATOM      4  C   UNL     1      18.129   9.801  38.307  0.00  0.00    +0.000 A 
ATOM      5  C   UNL     1      16.844  10.308  38.199  0.00  0.00    +0.000 A 
ATOM      6  C   UNL     1      16.272  10.605  36.980  0.00  0.00    +0.000 A 
ENDROOT
BRANCH   1  14
ATOM      7  C   UNL     1      15.669  12.733  35.465  0.00  0.00    +0.000 C 
ATOM      8  C   UNL     1      15.035  11.494  34.569  0.00  0.00    +0.000 C 
ATOM      9  C   UNL     1      15.140  12.338  33.158  0.00  0.00    +0.000 C 
ATOM     10  C   UNL     1      15.259  11.315  32.095  0.00  0.00    +0.000 C 
ATOM     11  O   UNL     1      14.365  11.120  31.225  0.00  0.00    +0.000 OA
ATOM     12  N   UNL     1      16.480  10.615  32.192  0.00  0.00    +0.000 NA
ATOM     13  N   UNL     1      16.954  10.369  33.430  0.00  0.00    +0.000 NA
ATOM     14  C   UNL     1      16.423  10.696  34.493  0.00  0.00    +0.000 C 
ENDBRANCH   1  14
BRANCH   4  15
ATOM     15  S   UNL     1      18.856   9.423  39.896  0.00  0.00    +0.000 S 
BRANCH  15  16
ATOM     16  C   UNL     1      18.405   7.771  40.406  0.00  0.00    +0.000 A 
ATOM     17  N   UNL     1      19.204   6.701  40.284  0.00  0.00    +0.000 NA
ATOM     18  C   UNL     1      18.598   5.592  40.753  0.00  0.00    +0.000 A 
ATOM     19  C   UNL     1      17.354   6.015  41.186  0.00  0.00    +0.000 A 
ATOM     20  N   UNL     1      17.260   7.355  40.962  0.00  0.00    +0.000 N 
ATOM     21  C   UNL     1      16.111   8.173  41.279  0.00  0.00    +0.000 C 
ENDBRANCH  15  16
ENDBRANCH   4  15
TORSDOF 3
ENDMDL
MODEL 4
REMARK VINA RESULT:      -6.3     14.748     15.727
REMARK  Name = 
REMARK  3 active torsions:
REMARK  status: ('A' for Active; 'I' for Inactive)
REMARK    1  A    between atoms: C_8  and  C_9
REMARK    2  A    between atoms: C_12  and  S_13
REMARK    3  A    between atoms: S_13  and  C_14
REMARK                            x       y       z     vdW  Elec       q    Type
REMARK                         _______ _______ _______ _____ _____    ______ ____
ROOT
ATOM      1  C   UNL     1      29.133  23.142  25.769  0.00  0.00    +0.000 A 
ATOM      2  C   UNL     1      29.824  24.277  26.059  0.00  0.00    +0.000 A 
ATOM      3  C   UNL     1      30.827  24.269  27.025  0.00  0.00    +0.000 A 
ATOM      4  C   UNL     1      31.148  23.124  27.711  0.00  0.00    +0.000 A 
ATOM      5  C   UNL     1      30.429  21.982  27.395  0.00  0.00    +0.000 A 
ATOM      6  C   UNL     1      29.435  21.982  26.440  0.00  0.00    +0.000 A 
ENDROOT
BRANCH   1  14
ATOM      7  C   UNL     1      26.697  24.091  26.457  0.00  0.00    +0.000 C 
ATOM      8  C   UNL     1      26.621  22.888  25.322  0.00  0.00    +0.000 C 
ATOM      9  C   UNL     1      25.722  23.798  24.284  0.00  0.00    +0.000 C 
ATOM     10  C   UNL     1      26.024  23.270  22.934  0.00  0.00    +0.000 C 
ATOM     11  O   UNL     1      25.168  22.675  22.221  0.00  0.00    +0.000 OA
ATOM     12  N   UNL     1      27.364  23.522  22.573  0.00  0.00    +0.000 NA
ATOM     13  N   UNL     1      28.290  23.460  23.550  0.00  0.00    +0.000 NA
ATOM     14  C   UNL     1      28.080  23.201  24.737  0.00  0.00    +0.000 C 
ENDBRANCH   1  14
BRANCH   4  15
ATOM     15  S   UNL     1      32.434  23.106  28.953  0.00  0.00    +0.000 S 
BRANCH  15  16
ATOM     16  C   UNL     1      31.822  22.386  30.469  0.00  0.00    +0.000 A 
ATOM     17  N   UNL     1      30.584  22.578  30.948  0.00  0.00    +0.000 NA
ATOM     18  C   UNL     1      30.407  21.911  32.106  0.00  0.00    +0.000 A 
ATOM     19  C   UNL     1      31.613  21.276  32.345  0.00  0.00    +0.000 A 
ATOM     20  N   UNL     1      32.464  21.583  31.328  0.00  0.00    +0.000 N 
ATOM     21  C   UNL     1      33.826  21.111  31.210  0.00  0.00    +0.000 C 
ENDBRANCH  15  16
ENDBRANCH   4  15
TORSDOF 3
ENDMDL
MODEL 5
REMARK VINA RESULT:      -6.3      2.386      3.250
REMARK  Name = 
REMARK  3 active torsions:
REMARK  status: ('A' for Active; 'I' for Inactive)
REMARK    1  A    between atoms: C_8  and  C_9
REMARK    2  A    between atoms: C_12  and  S_13
REMARK    3  A    between atoms: S_13  and  C_14
REMARK                            x       y       z     vdW  Elec       q    Type
REMARK                         _______ _______ _______ _____ _____    ______ ____
ROOT
ATOM      1  C   UNL     1      31.611  21.999  11.888  0.00  0.00    +0.000 A 
ATOM      2  C   UNL     1      32.139  20.922  12.528  0.00  0.00    +0.000 A 
ATOM      3  C   UNL     1      33.423  20.476  12.227  0.00  0.00    +0.000 A 
ATOM      4  C   UNL     1      34.193  21.106  11.280  0.00  0.00    +0.000 A 
ATOM      5  C   UNL     1      33.631  22.200  10.643  0.00  0.00    +0.000 A 
ATOM      6  C   UNL     1      32.360  22.647  10.936  0.00  0.00    +0.000 A 
ENDROOT
BRANCH   1  14
ATOM      7  C   UNL     1      29.541  21.125  10.384  0.00  0.00    +0.000 C 
ATOM      8  C   UNL     1      29.315  22.660  10.958  0.00  0.00    +0.000 C 
ATOM      9  C   UNL     1      27.854  22.294  11.626  0.00  0.00    +0.000 C 
ATOM     10  C   UNL     1      27.684  23.246  12.747  0.00  0.00    +0.000 C 
ATOM     11  O   UNL     1      26.798  24.147  12.756  0.00  0.00    +0.000 OA
ATOM     12  N   UNL     1      28.624  23.005  13.772  0.00  0.00    +0.000 NA
ATOM     13  N   UNL     1      29.856  22.608  13.398  0.00  0.00    +0.000 NA
ATOM     14  C   UNL     1      30.247  22.433  12.242  0.00  0.00    +0.000 C 
ENDBRANCH   1  14
BRANCH   4  15
ATOM     15  S   UNL     1      35.842  20.539  10.887  0.00  0.00    +0.000 S 
BRANCH  15  16
ATOM     16  C   UNL     1      36.240  20.917   9.187  0.00  0.00    +0.000 A 
ATOM     17  N   UNL     1      37.114  21.861   8.810  0.00  0.00    +0.000 NA
ATOM     18  C   UNL     1      37.209  21.920   7.467  0.00  0.00    +0.000 A 
ATOM     19  C   UNL     1      36.338  20.952   6.999  0.00  0.00    +0.000 A 
ATOM     20  N   UNL     1      35.756  20.351   8.073  0.00  0.00    +0.000 N 
ATOM     21  C   UNL     1      34.783  19.284   8.004  0.00  0.00    +0.000 C 
ENDBRANCH  15  16
ENDBRANCH   4  15
TORSDOF 3
ENDMDL
MODEL 6
REMARK VINA RESULT:      -6.0     11.613     14.031
REMARK  Name = 
REMARK  3 active torsions:
REMARK  status: ('A' for Active; 'I' for Inactive)
REMARK    1  A    between atoms: C_8  and  C_9
REMARK    2  A    between atoms: C_12  and  S_13
REMARK    3  A    between atoms: S_13  and  C_14
REMARK                            x       y       z     vdW  Elec       q    Type
REMARK                         _______ _______ _______ _____ _____    ______ ____
ROOT
ATOM      1  C   UNL     1      28.660  25.215  22.031  0.00  0.00    +0.000 A 
ATOM      2  C   UNL     1      27.383  24.749  22.072  0.00  0.00    +0.000 A 
ATOM      3  C   UNL     1      26.953  23.953  23.131  0.00  0.00    +0.000 A 
ATOM      4  C   UNL     1      27.797  23.616  24.159  0.00  0.00    +0.000 A 
ATOM      5  C   UNL     1      29.092  24.104  24.092  0.00  0.00    +0.000 A 
ATOM      6  C   UNL     1      29.525  24.892  23.047  0.00  0.00    +0.000 A 
ENDROOT
BRANCH   1  14
ATOM      7  C   UNL     1      28.930  27.878  22.411  0.00  0.00    +0.000 C 
ATOM      8  C   UNL     1      28.372  27.498  20.900  0.00  0.00    +0.000 C 
ATOM      9  C   UNL     1      29.552  28.364  20.145  0.00  0.00    +0.000 C 
ATOM     10  C   UNL     1      29.728  27.723  18.823  0.00  0.00    +0.000 C 
ATOM     11  O   UNL     1      29.434  28.295  17.736  0.00  0.00    +0.000 OA
ATOM     12  N   UNL     1      30.257  26.421  18.951  0.00  0.00    +0.000 NA
ATOM     13  N   UNL     1      29.856  25.693  20.013  0.00  0.00    +0.000 NA
ATOM     14  C   UNL     1      29.068  26.054  20.889  0.00  0.00    +0.000 C 
ENDBRANCH   1  14
BRANCH   4  15
ATOM     15  S   UNL     1      27.252  22.594  25.521  0.00  0.00    +0.000 S 
BRANCH  15  16
ATOM     16  C   UNL     1      26.371  23.580  26.722  0.00  0.00    +0.000 A 
ATOM     17  N   UNL     1      25.413  24.466  26.412  0.00  0.00    +0.000 NA
ATOM     18  C   UNL     1      24.929  25.060  27.521  0.00  0.00    +0.000 A 
ATOM     19  C   UNL     1      25.637  24.500  28.570  0.00  0.00    +0.000 A 
ATOM     20  N   UNL     1      26.515  23.596  28.054  0.00  0.00    +0.000 N 
ATOM     21  C   UNL     1      27.438  22.797  28.828  0.00  0.00    +0.000 C 
ENDBRANCH  15  16
ENDBRANCH   4  15
TORSDOF 3
ENDMDL
MODEL 7
REMARK VINA RESULT:      -6.0     33.643     35.208
REMARK  Name = 
REMARK  3 active torsions:
REMARK  status: ('A' for Active; 'I' for Inactive)
REMARK    1  A    between atoms: C_8  and  C_9
REMARK    2  A    between atoms: C_12  and  S_13
REMARK    3  A    between atoms: S_13  and  C_14
REMARK                            x       y       z     vdW  Elec       q    Type
REMARK                         _______ _______ _______ _____ _____    ______ ____
ROOT
ATOM      1  C   UNL     1      21.436  -7.230  25.256  0.00  0.00    +0.000 A 
ATOM      2  C   UNL     1      20.823  -8.365  25.686  0.00  0.00    +0.000 A 
ATOM      3  C   UNL     1      19.549  -8.315  26.245  0.00  0.00    +0.000 A 
ATOM      4  C   UNL     1      18.874  -7.127  26.379  0.00  0.00    +0.000 A 
ATOM      5  C   UNL     1      19.522  -5.986  25.932  0.00  0.00    +0.000 A 
ATOM      6  C   UNL     1      20.783  -6.028  25.378  0.00  0.00    +0.000 A 
ENDROOT
BRANCH   1  14
ATOM      7  C   UNL     1      21.738  -8.563  22.923  0.00  0.00    +0.000 C 
ATOM      8  C   UNL     1      23.036  -8.737  23.935  0.00  0.00    +0.000 C 
ATOM      9  C   UNL     1      24.112  -8.243  22.789  0.00  0.00    +0.000 C 
ATOM     10  C   UNL     1      25.254  -7.675  23.540  0.00  0.00    +0.000 C 
ATOM     11  O   UNL     1      26.403  -8.200  23.547  0.00  0.00    +0.000 OA
ATOM     12  N   UNL     1      24.883  -6.497  24.223  0.00  0.00    +0.000 NA
ATOM     13  N   UNL     1      23.638  -6.447  24.738  0.00  0.00    +0.000 NA
ATOM     14  C   UNL     1      22.786  -7.335  24.671  0.00  0.00    +0.000 C 
ENDBRANCH   1  14
BRANCH   4  15
ATOM     15  S   UNL     1      17.238  -7.055  27.095  0.00  0.00    +0.000 S 
BRANCH  15  16
ATOM     16  C   UNL     1      16.179  -8.285  26.349  0.00  0.00    +0.000 A 
ATOM     17  N   UNL     1      15.377  -8.051  25.300  0.00  0.00    +0.000 NA
ATOM     18  C   UNL     1      14.699  -9.163  24.955  0.00  0.00    +0.000 A 
ATOM     19  C   UNL     1      15.114 -10.132  25.851  0.00  0.00    +0.000 A 
ATOM     20  N   UNL     1      16.022  -9.569  26.695  0.00  0.00    +0.000 N 
ATOM     21  C   UNL     1      16.692 -10.256  27.776  0.00  0.00    +0.000 C 
ENDBRANCH  15  16
ENDBRANCH   4  15
TORSDOF 3
ENDMDL
MODEL 8
REMARK VINA RESULT:      -5.9     30.502     32.257
REMARK  Name = 
REMARK  3 active torsions:
REMARK  status: ('A' for Active; 'I' for Inactive)
REMARK    1  A    between atoms: C_8  and  C_9
REMARK    2  A    between atoms: C_12  and  S_13
REMARK    3  A    between atoms: S_13  and  C_14
REMARK                            x       y       z     vdW  Elec       q    Type
REMARK                         _______ _______ _______ _____ _____    ______ ____
ROOT
ATOM      1  C   UNL     1      33.214  -1.033  34.754  0.00  0.00    +0.000 A 
ATOM      2  C   UNL     1      33.930  -1.532  33.711  0.00  0.00    +0.000 A 
ATOM      3  C   UNL     1      33.721  -2.834  33.266  0.00  0.00    +0.000 A 
ATOM      4  C   UNL     1      32.792  -3.651  33.861  0.00  0.00    +0.000 A 
ATOM      5  C   UNL     1      32.077  -3.118  34.922  0.00  0.00    +0.000 A 
ATOM      6  C   UNL     1      32.279  -1.830  35.368  0.00  0.00    +0.000 A 
ENDROOT
BRANCH   1  14
ATOM      7  C   UNL     1      34.857  -0.620  36.862  0.00  0.00    +0.000 C 
ATOM      8  C   UNL     1      33.628   0.486  36.779  0.00  0.00    +0.000 C 
ATOM      9  C   UNL     1      34.657   1.771  36.835  0.00  0.00    +0.000 C 
ATOM     10  C   UNL     1      33.950   2.872  36.143  0.00  0.00    +0.000 C 
ATOM     11  O   UNL     1      33.555   3.916  36.736  0.00  0.00    +0.000 OA
ATOM     12  N   UNL     1      33.788   2.595  34.769  0.00  0.00    +0.000 NA
ATOM     13  N   UNL     1      33.557   1.313  34.421  0.00  0.00    +0.000 NA
ATOM     14  C   UNL     1      33.472   0.353  35.189  0.00  0.00    +0.000 C 
ENDBRANCH   1  14
BRANCH   4  15
ATOM     15  S   UNL     1      32.519  -5.325  33.295  0.00  0.00    +0.000 S 
BRANCH  15  16
ATOM     16  C   UNL     1      33.168  -5.536  31.644  0.00  0.00    +0.000 A 
ATOM     17  N   UNL     1      32.431  -5.442  30.528  0.00  0.00    +0.000 NA
ATOM     18  C   UNL     1      33.189  -5.647  29.432  0.00  0.00    +0.000 A 
ATOM     19  C   UNL     1      34.465  -5.880  29.914  0.00  0.00    +0.000 A 
ATOM     20  N   UNL     1      34.426  -5.807  31.273  0.00  0.00    +0.000 N 
ATOM     21  C   UNL     1      35.561  -5.992  32.150  0.00  0.00    +0.000 C 
ENDBRANCH  15  16
ENDBRANCH   4  15
TORSDOF 3
ENDMDL
MODEL 9
REMARK VINA RESULT:      -5.9     11.730     13.309
REMARK  Name = 
REMARK  3 active torsions:
REMARK  status: ('A' for Active; 'I' for Inactive)
REMARK    1  A    between atoms: C_8  and  C_9
REMARK    2  A    between atoms: C_12  and  S_13
REMARK    3  A    between atoms: S_13  and  C_14
REMARK                            x       y       z     vdW  Elec       q    Type
REMARK                         _______ _______ _______ _____ _____    ______ ____
ROOT
ATOM      1  C   UNL     1      28.808  25.217  22.176  0.00  0.00    +0.000 A 
ATOM      2  C   UNL     1      27.515  25.127  22.588  0.00  0.00    +0.000 A 
ATOM      3  C   UNL     1      27.175  24.359  23.698  0.00  0.00    +0.000 A 
ATOM      4  C   UNL     1      28.128  23.671  24.408  0.00  0.00    +0.000 A 
ATOM      5  C   UNL     1      29.437  23.779  23.967  0.00  0.00    +0.000 A 
ATOM      6  C   UNL     1      29.781  24.538  22.869  0.00  0.00    +0.000 A 
ENDROOT
BRANCH   1  14
ATOM      7  C   UNL     1      29.150  27.878  22.511  0.00  0.00    +0.000 C 
ATOM      8  C   UNL     1      28.445  27.498  21.063  0.00  0.00    +0.000 C 
ATOM      9  C   UNL     1      29.560  28.343  20.194  0.00  0.00    +0.000 C 
ATOM     10  C   UNL     1      29.600  27.692  18.865  0.00  0.00    +0.000 C 
ATOM     11  O   UNL     1      29.212  28.263  17.807  0.00  0.00    +0.000 OA
ATOM     12  N   UNL     1      30.121  26.384  18.951  0.00  0.00    +0.000 NA
ATOM     13  N   UNL     1      29.813  25.667  20.050  0.00  0.00    +0.000 NA
ATOM     14  C   UNL     1      29.117  26.044  20.995  0.00  0.00    +0.000 C 
ENDBRANCH   1  14
BRANCH   4  15
ATOM     15  S   UNL     1      27.700  22.681  25.834  0.00  0.00    +0.000 S 
BRANCH  15  16
ATOM     16  C   UNL     1      29.061  22.637  26.990  0.00  0.00    +0.000 A 
ATOM     17  N   UNL     1      30.165  21.892  26.825  0.00  0.00    +0.000 NA
ATOM     18  C   UNL     1      31.017  22.062  27.855  0.00  0.00    +0.000 A 
ATOM     19  C   UNL     1      30.392  22.964  28.697  0.00  0.00    +0.000 A 
ATOM     20  N   UNL     1      29.194  23.301  28.145  0.00  0.00    +0.000 N 
ATOM     21  C   UNL     1      28.241  24.223  28.721  0.00  0.00    +0.000 C 
ENDBRANCH  15  16
ENDBRANCH   4  15
TORSDOF 3
ENDMDL
MODEL 10
REMARK VINA RESULT:      -5.8     14.671     16.147
REMARK  Name = 
REMARK  3 active torsions:
REMARK  status: ('A' for Active; 'I' for Inactive)
REMARK    1  A    between atoms: C_8  and  C_9
REMARK    2  A    between atoms: C_12  and  S_13
REMARK    3  A    between atoms: S_13  and  C_14
REMARK                            x       y       z     vdW  Elec       q    Type
REMARK                         _______ _______ _______ _____ _____    ______ ____
ROOT
ATOM      1  C   UNL     1      28.330  23.866  25.571  0.00  0.00    +0.000 A 
ATOM      2  C   UNL     1      28.587  22.580  25.929  0.00  0.00    +0.000 A 
ATOM      3  C   UNL     1      28.318  22.136  27.221  0.00  0.00    +0.000 A 
ATOM      4  C   UNL     1      27.789  22.976  28.169  0.00  0.00    +0.000 A 
ATOM      5  C   UNL     1      27.537  24.282  27.777  0.00  0.00    +0.000 A 
ATOM      6  C   UNL     1      27.801  24.728  26.500  0.00  0.00    +0.000 A 
ENDROOT
BRANCH   1  14
ATOM      7  C   UNL     1      26.502  23.381  23.639  0.00  0.00    +0.000 C 
ATOM      8  C   UNL     1      28.060  23.270  23.092  0.00  0.00    +0.000 C 
ATOM      9  C   UNL     1      27.801  24.333  21.860  0.00  0.00    +0.000 C 
ATOM     10  C   UNL     1      29.121  24.940  21.579  0.00  0.00    +0.000 C 
ATOM     11  O   UNL     1      29.749  24.753  20.498  0.00  0.00    +0.000 OA
ATOM     12  N   UNL     1      29.560  25.735  22.659  0.00  0.00    +0.000 NA
ATOM     13  N   UNL     1      29.258  25.310  23.902  0.00  0.00    +0.000 NA
ATOM     14  C   UNL     1      28.632  24.288  24.190  0.00  0.00    +0.000 C 
ENDBRANCH   1  14
BRANCH   4  15
ATOM     15  S   UNL     1      27.442  22.414  29.830  0.00  0.00    +0.000 S 
BRANCH  15  16
ATOM     16  C   UNL     1      28.682  23.022  30.963  0.00  0.00    +0.000 A 
ATOM     17  N   UNL     1      29.752  22.317  31.357  0.00  0.00    +0.000 NA
ATOM     18  C   UNL     1      30.511  23.031  32.212  0.00  0.00    +0.000 A 
ATOM     19  C   UNL     1      29.860  24.245  32.346  0.00  0.00    +0.000 A 
ATOM     20  N   UNL     1      28.741  24.214  31.570  0.00  0.00    +0.000 N 
ATOM     21  C   UNL     1      27.791  25.296  31.437  0.00  0.00    +0.000 C 
ENDBRANCH  15  16
ENDBRANCH   4  15
TORSDOF 3
ENDMDL
