MODEL 1
REMARK VINA RESULT:      -8.0      0.000      0.000
REMARK  Name = 
REMARK  0 active torsions:
REMARK  status: ('A' for Active; 'I' for Inactive)
REMARK                            x       y       z     vdW  Elec       q    Type
REMARK                         _______ _______ _______ _____ _____    ______ ____
ROOT
ATOM      1  C   UNL     1      17.708  12.442  35.837  0.00  0.00    +0.000 C 
ATOM      2  C   UNL     1      17.199  11.119  35.849  0.00  0.00    +0.000 C 
ATOM      3  C   UNL     1      17.086  10.329  34.616  0.00  0.00    +0.000 C 
ATOM      4  C   UNL     1      16.429  11.296  33.641  0.00  0.00    +0.000 C 
ATOM      5  C   UNL     1      14.868  11.423  34.107  0.00  0.00    +0.000 C 
ATOM      6  C   UNL     1      14.538  12.670  33.177  0.00  0.00    +0.000 A 
ATOM      7  C   UNL     1      14.983  12.675  31.897  0.00  0.00    +0.000 A 
ATOM      8  C   UNL     1      14.698  13.754  31.069  0.00  0.00    +0.000 A 
ATOM      9  C   UNL     1      13.957  14.798  31.595  0.00  0.00    +0.000 A 
ATOM     10  C   UNL     1      13.511  14.775  32.903  0.00  0.00    +0.000 A 
ATOM     11  C   UNL     1      13.809  13.684  33.710  0.00  0.00    +0.000 A 
ATOM     12  C   UNL     1      13.281  13.757  35.097  0.00  0.00    +0.000 C 
ATOM     13  C   UNL     1      13.750  12.552  35.921  0.00  0.00    +0.000 C 
ATOM     14  C   UNL     1      15.268  12.442  35.436  0.00  0.00    +0.000 C 
ATOM     15  C   UNL     1      15.633  11.071  36.354  0.00  0.00    +0.000 C 
ATOM     16  C   UNL     1      16.125  11.883  37.687  0.00  0.00    +0.000 C 
ATOM     17  C   UNL     1      16.635  10.595  38.186  0.00  0.00    +0.000 C 
ATOM     18  C   UNL     1      17.802  10.182  37.059  0.00  0.00    +0.000 C 
ATOM     19  O   UNL     1      18.781  11.232  37.622  0.00  0.00    +0.000 OA
ENDROOT
TORSDOF 0
ENDMDL
MODEL 2
REMARK VINA RESULT:      -7.0     17.963     20.057
REMARK  Name = 
REMARK  0 active torsions:
REMARK  status: ('A' for Active; 'I' for Inactive)
REMARK                            x       y       z     vdW  Elec       q    Type
REMARK                         _______ _______ _______ _____ _____    ______ ____
ROOT
ATOM      1  C   UNL     1      27.914  25.426  24.668  0.00  0.00    +0.000 C 
ATOM      2  C   UNL     1      27.385  24.267  24.048  0.00  0.00    +0.000 C 
ATOM      3  C   UNL     1      26.276  23.513  24.649  0.00  0.00    +0.000 C 
ATOM      4  C   UNL     1      26.702  23.366  26.103  0.00  0.00    +0.000 C 
ATOM      5  C   UNL     1      27.908  22.264  26.116  0.00  0.00    +0.000 C 
ATOM      6  C   UNL     1      28.351  22.547  27.617  0.00  0.00    +0.000 A 
ATOM      7  C   UNL     1      27.398  22.687  28.571  0.00  0.00    +0.000 A 
ATOM      8  C   UNL     1      27.768  22.927  29.888  0.00  0.00    +0.000 A 
ATOM      9  C   UNL     1      29.118  23.016  30.178  0.00  0.00    +0.000 A 
ATOM     10  C   UNL     1      30.075  22.870  29.192  0.00  0.00    +0.000 A 
ATOM     11  C   UNL     1      29.680  22.630  27.882  0.00  0.00    +0.000 A 
ATOM     12  C   UNL     1      30.786  22.486  26.900  0.00  0.00    +0.000 C 
ATOM     13  C   UNL     1      30.234  22.320  25.480  0.00  0.00    +0.000 C 
ATOM     14  C   UNL     1      29.051  23.395  25.501  0.00  0.00    +0.000 C 
ATOM     15  C   UNL     1      28.506  23.068  23.936  0.00  0.00    +0.000 C 
ATOM     16  C   UNL     1      29.472  24.155  23.186  0.00  0.00    +0.000 C 
ATOM     17  C   UNL     1      28.666  23.919  21.977  0.00  0.00    +0.000 C 
ATOM     18  C   UNL     1      27.136  24.428  22.430  0.00  0.00    +0.000 C 
ATOM     19  O   UNL     1      27.553  25.910  22.336  0.00  0.00    +0.000 OA
ENDROOT
TORSDOF 0
ENDMDL
MODEL 3
REMARK VINA RESULT:      -6.9     19.565     21.199
REMARK  Name = 
REMARK  0 active torsions:
REMARK  status: ('A' for Active; 'I' for Inactive)
REMARK                            x       y       z     vdW  Elec       q    Type
REMARK                         _______ _______ _______ _____ _____    ______ ____
ROOT
ATOM      1  C   UNL     1      36.913   5.063  36.145  0.00  0.00    +0.000 C 
ATOM      2  C   UNL     1      35.927   5.542  37.043  0.00  0.00    +0.000 C 
ATOM      3  C   UNL     1      35.318   4.665  38.052  0.00  0.00    +0.000 C 
ATOM      4  C   UNL     1      34.957   3.417  37.259  0.00  0.00    +0.000 C 
ATOM      5  C   UNL     1      33.670   3.819  36.335  0.00  0.00    +0.000 C 
ATOM      6  C   UNL     1      33.725   2.513  35.430  0.00  0.00    +0.000 A 
ATOM      7  C   UNL     1      33.930   1.309  36.019  0.00  0.00    +0.000 A 
ATOM      8  C   UNL     1      33.973   0.158  35.244  0.00  0.00    +0.000 A 
ATOM      9  C   UNL     1      33.802   0.289  33.876  0.00  0.00    +0.000 A 
ATOM     10  C   UNL     1      33.594   1.524  33.293  0.00  0.00    +0.000 A 
ATOM     11  C   UNL     1      33.555   2.661  34.091  0.00  0.00    +0.000 A 
ATOM     12  C   UNL     1      33.322   3.938  33.367  0.00  0.00    +0.000 C 
ATOM     13  C   UNL     1      33.394   5.129  34.329  0.00  0.00    +0.000 C 
ATOM     14  C   UNL     1      34.647   4.704  35.226  0.00  0.00    +0.000 C 
ATOM     15  C   UNL     1      34.573   6.041  36.254  0.00  0.00    +0.000 C 
ATOM     16  C   UNL     1      35.549   7.001  35.359  0.00  0.00    +0.000 C 
ATOM     17  C   UNL     1      35.573   7.917  36.511  0.00  0.00    +0.000 C 
ATOM     18  C   UNL     1      36.287   6.999  37.716  0.00  0.00    +0.000 C 
ATOM     19  O   UNL     1      37.679   7.152  37.068  0.00  0.00    +0.000 OA
ENDROOT
TORSDOF 0
ENDMDL
MODEL 4
REMARK VINA RESULT:      -6.9     28.247     30.746
REMARK  Name = 
REMARK  0 active torsions:
REMARK  status: ('A' for Active; 'I' for Inactive)
REMARK                            x       y       z     vdW  Elec       q    Type
REMARK                         _______ _______ _______ _____ _____    ______ ____
ROOT
ATOM      1  C   UNL     1      32.718  22.378   8.734  0.00  0.00    +0.000 C 
ATOM      2  C   UNL     1      32.434  21.007   8.510  0.00  0.00    +0.000 C 
ATOM      3  C   UNL     1      31.080  20.549   8.169  0.00  0.00    +0.000 C 
ATOM      4  C   UNL     1      30.204  21.261   9.190  0.00  0.00    +0.000 C 
ATOM      5  C   UNL     1      30.465  20.513  10.618  0.00  0.00    +0.000 C 
ATOM      6  C   UNL     1      29.726  21.611  11.499  0.00  0.00    +0.000 A 
ATOM      7  C   UNL     1      28.539  22.108  11.073  0.00  0.00    +0.000 A 
ATOM      8  C   UNL     1      27.877  23.063  11.833  0.00  0.00    +0.000 A 
ATOM      9  C   UNL     1      28.466  23.476  13.016  0.00  0.00    +0.000 A 
ATOM     10  C   UNL     1      29.677  22.957  13.434  0.00  0.00    +0.000 A 
ATOM     11  C   UNL     1      30.320  22.003  12.655  0.00  0.00    +0.000 A 
ATOM     12  C   UNL     1      31.613  21.508  13.195  0.00  0.00    +0.000 C 
ATOM     13  C   UNL     1      32.275  20.535  12.212  0.00  0.00    +0.000 C 
ATOM     14  C   UNL     1      31.992  21.283  10.828  0.00  0.00    +0.000 C 
ATOM     15  C   UNL     1      32.703  20.099   9.856  0.00  0.00    +0.000 C 
ATOM     16  C   UNL     1      34.210  20.736   9.883  0.00  0.00    +0.000 C 
ATOM     17  C   UNL     1      34.547  19.784   8.813  0.00  0.00    +0.000 C 
ATOM     18  C   UNL     1      33.537  20.243   7.559  0.00  0.00    +0.000 C 
ATOM     19  O   UNL     1      34.400  21.486   7.259  0.00  0.00    +0.000 OA
ENDROOT
TORSDOF 0
ENDMDL
MODEL 5
REMARK VINA RESULT:      -6.8     19.229     20.703
REMARK  Name = 
REMARK  0 active torsions:
REMARK  status: ('A' for Active; 'I' for Inactive)
REMARK                            x       y       z     vdW  Elec       q    Type
REMARK                         _______ _______ _______ _____ _____    ______ ____
ROOT
ATOM      1  C   UNL     1      31.233  25.547  26.337  0.00  0.00    +0.000 C 
ATOM      2  C   UNL     1      32.066  24.428  26.086  0.00  0.00    +0.000 C 
ATOM      3  C   UNL     1      32.294  23.931  24.722  0.00  0.00    +0.000 C 
ATOM      4  C   UNL     1      30.891  23.873  24.133  0.00  0.00    +0.000 C 
ATOM      5  C   UNL     1      30.151  22.599  24.840  0.00  0.00    +0.000 C 
ATOM      6  C   UNL     1      28.694  22.967  24.317  0.00  0.00    +0.000 A 
ATOM      7  C   UNL     1      28.535  23.359  23.030  0.00  0.00    +0.000 A 
ATOM      8  C   UNL     1      27.269  23.677  22.555  0.00  0.00    +0.000 A 
ATOM      9  C   UNL     1      26.202  23.578  23.433  0.00  0.00    +0.000 A 
ATOM     10  C   UNL     1      26.385  23.176  24.742  0.00  0.00    +0.000 A 
ATOM     11  C   UNL     1      27.661  22.864  25.192  0.00  0.00    +0.000 A 
ATOM     12  C   UNL     1      27.748  22.440  26.614  0.00  0.00    +0.000 C 
ATOM     13  C   UNL     1      29.208  22.214  27.026  0.00  0.00    +0.000 C 
ATOM     14  C   UNL     1      29.907  23.461  26.311  0.00  0.00    +0.000 C 
ATOM     15  C   UNL     1      31.478  23.060  26.786  0.00  0.00    +0.000 C 
ATOM     16  C   UNL     1      31.450  23.891  28.194  0.00  0.00    +0.000 C 
ATOM     17  C   UNL     1      32.902  23.660  28.268  0.00  0.00    +0.000 C 
ATOM     18  C   UNL     1      33.486  24.453  26.915  0.00  0.00    +0.000 C 
ATOM     19  O   UNL     1      33.278  25.830  27.577  0.00  0.00    +0.000 OA
ENDROOT
TORSDOF 0
ENDMDL
MODEL 6
REMARK VINA RESULT:      -6.7     18.863     20.875
REMARK  Name = 
REMARK  0 active torsions:
REMARK  status: ('A' for Active; 'I' for Inactive)
REMARK                            x       y       z     vdW  Elec       q    Type
REMARK                         _______ _______ _______ _____ _____    ______ ____
ROOT
ATOM      1  C   UNL     1      27.553  24.806  25.868  0.00  0.00    +0.000 C 
ATOM      2  C   UNL     1      27.358  23.511  25.327  0.00  0.00    +0.000 C 
ATOM      3  C   UNL     1      27.479  22.305  26.158  0.00  0.00    +0.000 C 
ATOM      4  C   UNL     1      28.782  22.532  26.913  0.00  0.00    +0.000 C 
ATOM      5  C   UNL     1      29.983  22.317  25.826  0.00  0.00    +0.000 C 
ATOM      6  C   UNL     1      31.130  22.909  26.755  0.00  0.00    +0.000 A 
ATOM      7  C   UNL     1      31.173  22.549  28.061  0.00  0.00    +0.000 A 
ATOM      8  C   UNL     1      32.172  23.051  28.885  0.00  0.00    +0.000 A 
ATOM      9  C   UNL     1      33.100  23.914  28.328  0.00  0.00    +0.000 A 
ATOM     10  C   UNL     1      33.041  24.269  26.994  0.00  0.00    +0.000 A 
ATOM     11  C   UNL     1      32.031  23.754  26.191  0.00  0.00    +0.000 A 
ATOM     12  C   UNL     1      32.059  24.195  24.772  0.00  0.00    +0.000 C 
ATOM     13  C   UNL     1      30.850  23.643  24.007  0.00  0.00    +0.000 C 
ATOM     14  C   UNL     1      29.698  23.851  25.095  0.00  0.00    +0.000 C 
ATOM     15  C   UNL     1      28.469  23.160  24.165  0.00  0.00    +0.000 C 
ATOM     16  C   UNL     1      28.012  24.546  23.427  0.00  0.00    +0.000 C 
ATOM     17  C   UNL     1      26.835  23.807  22.942  0.00  0.00    +0.000 C 
ATOM     18  C   UNL     1      26.039  23.385  24.352  0.00  0.00    +0.000 C 
ATOM     19  O   UNL     1      25.535  24.829  24.553  0.00  0.00    +0.000 OA
ENDROOT
TORSDOF 0
ENDMDL
MODEL 7
REMARK VINA RESULT:      -6.6     17.532     19.484
REMARK  Name = 
REMARK  0 active torsions:
REMARK  status: ('A' for Active; 'I' for Inactive)
REMARK                            x       y       z     vdW  Elec       q    Type
REMARK                         _______ _______ _______ _____ _____    ______ ____
ROOT
ATOM      1  C   UNL     1      26.482  26.459  26.921  0.00  0.00    +0.000 C 
ATOM      2  C   UNL     1      25.417  25.539  27.096  0.00  0.00    +0.000 C 
ATOM      3  C   UNL     1      25.573  24.331  27.917  0.00  0.00    +0.000 C 
ATOM      4  C   UNL     1      26.895  23.750  27.435  0.00  0.00    +0.000 C 
ATOM      5  C   UNL     1      26.603  23.119  25.956  0.00  0.00    +0.000 C 
ATOM      6  C   UNL     1      28.134  22.900  25.584  0.00  0.00    +0.000 A 
ATOM      7  C   UNL     1      28.971  22.379  26.515  0.00  0.00    +0.000 A 
ATOM      8  C   UNL     1      30.309  22.175  26.204  0.00  0.00    +0.000 A 
ATOM      9  C   UNL     1      30.741  22.518  24.934  0.00  0.00    +0.000 A 
ATOM     10  C   UNL     1      29.873  23.048  23.999  0.00  0.00    +0.000 A 
ATOM     11  C   UNL     1      28.539  23.243  24.334  0.00  0.00    +0.000 A 
ATOM     12  C   UNL     1      27.689  23.814  23.257  0.00  0.00    +0.000 C 
ATOM     13  C   UNL     1      26.267  24.073  23.767  0.00  0.00    +0.000 C 
ATOM     14  C   UNL     1      26.581  24.673  25.214  0.00  0.00    +0.000 C 
ATOM     15  C   UNL     1      24.965  24.850  25.672  0.00  0.00    +0.000 C 
ATOM     16  C   UNL     1      24.786  26.368  25.089  0.00  0.00    +0.000 C 
ATOM     17  C   UNL     1      23.506  26.411  25.815  0.00  0.00    +0.000 C 
ATOM     18  C   UNL     1      23.968  26.248  27.416  0.00  0.00    +0.000 C 
ATOM     19  O   UNL     1      24.488  27.699  27.460  0.00  0.00    +0.000 OA
ENDROOT
TORSDOF 0
ENDMDL
MODEL 8
REMARK VINA RESULT:      -6.6     20.886     22.843
REMARK  Name = 
REMARK  0 active torsions:
REMARK  status: ('A' for Active; 'I' for Inactive)
REMARK                            x       y       z     vdW  Elec       q    Type
REMARK                         _______ _______ _______ _____ _____    ______ ____
ROOT
ATOM      1  C   UNL     1      29.039   4.992  16.788  0.00  0.00    +0.000 C 
ATOM      2  C   UNL     1      28.545   6.303  17.001  0.00  0.00    +0.000 C 
ATOM      3  C   UNL     1      27.828   6.663  18.231  0.00  0.00    +0.000 C 
ATOM      4  C   UNL     1      26.825   5.529  18.395  0.00  0.00    +0.000 C 
ATOM      5  C   UNL     1      25.680   5.764  17.254  0.00  0.00    +0.000 C 
ATOM      6  C   UNL     1      24.998   4.338  17.434  0.00  0.00    +0.000 A 
ATOM      7  C   UNL     1      24.781   3.864  18.685  0.00  0.00    +0.000 A 
ATOM      8  C   UNL     1      24.180   2.624  18.860  0.00  0.00    +0.000 A 
ATOM      9  C   UNL     1      23.820   1.911  17.729  0.00  0.00    +0.000 A 
ATOM     10  C   UNL     1      24.049   2.411  16.462  0.00  0.00    +0.000 A 
ATOM     11  C   UNL     1      24.652   3.654  16.313  0.00  0.00    +0.000 A 
ATOM     12  C   UNL     1      24.849   4.102  14.910  0.00  0.00    +0.000 C 
ATOM     13  C   UNL     1      25.605   5.435  14.866  0.00  0.00    +0.000 C 
ATOM     14  C   UNL     1      26.705   5.183  15.997  0.00  0.00    +0.000 C 
ATOM     15  C   UNL     1      27.407   6.715  15.886  0.00  0.00    +0.000 C 
ATOM     16  C   UNL     1      28.505   6.319  14.740  0.00  0.00    +0.000 C 
ATOM     17  C   UNL     1      29.138   7.620  15.009  0.00  0.00    +0.000 C 
ATOM     18  C   UNL     1      29.612   7.492  16.610  0.00  0.00    +0.000 C 
ATOM     19  O   UNL     1      30.783   6.560  16.235  0.00  0.00    +0.000 OA
ENDROOT
TORSDOF 0
ENDMDL
MODEL 9
REMARK VINA RESULT:      -6.5     17.809     19.403
REMARK  Name = 
REMARK  0 active torsions:
REMARK  status: ('A' for Active; 'I' for Inactive)
REMARK                            x       y       z     vdW  Elec       q    Type
REMARK                         _______ _______ _______ _____ _____    ______ ____
ROOT
ATOM      1  C   UNL     1      28.397  25.044  27.633  0.00  0.00    +0.000 C 
ATOM      2  C   UNL     1      28.759  23.684  27.809  0.00  0.00    +0.000 C 
ATOM      3  C   UNL     1      29.948  23.116  27.159  0.00  0.00    +0.000 C 
ATOM      4  C   UNL     1      29.824  23.600  25.721  0.00  0.00    +0.000 C 
ATOM      5  C   UNL     1      28.619  22.728  25.047  0.00  0.00    +0.000 C 
ATOM      6  C   UNL     1      28.500  23.626  23.740  0.00  0.00    +0.000 A 
ATOM      7  C   UNL     1      29.631  24.028  23.111  0.00  0.00    +0.000 A 
ATOM      8  C   UNL     1      29.545  24.807  21.964  0.00  0.00    +0.000 A 
ATOM      9  C   UNL     1      28.284  25.146  21.502  0.00  0.00    +0.000 A 
ATOM     10  C   UNL     1      27.143  24.726  22.157  0.00  0.00    +0.000 A 
ATOM     11  C   UNL     1      27.256  23.947  23.302  0.00  0.00    +0.000 A 
ATOM     12  C   UNL     1      25.969  23.546  23.927  0.00  0.00    +0.000 C 
ATOM     13  C   UNL     1      26.214  22.776  25.230  0.00  0.00    +0.000 C 
ATOM     14  C   UNL     1      27.403  23.639  25.858  0.00  0.00    +0.000 C 
ATOM     15  C   UNL     1      27.608  22.665  27.223  0.00  0.00    +0.000 C 
ATOM     16  C   UNL     1      26.538  23.464  28.167  0.00  0.00    +0.000 C 
ATOM     17  C   UNL     1      27.073  22.686  29.296  0.00  0.00    +0.000 C 
ATOM     18  C   UNL     1      28.675  23.167  29.368  0.00  0.00    +0.000 C 
ATOM     19  O   UNL     1      28.286  24.527  29.983  0.00  0.00    +0.000 OA
ENDROOT
TORSDOF 0
ENDMDL
MODEL 10
REMARK VINA RESULT:      -6.5     20.946     22.828
REMARK  Name = 
REMARK  0 active torsions:
REMARK  status: ('A' for Active; 'I' for Inactive)
REMARK                            x       y       z     vdW  Elec       q    Type
REMARK                         _______ _______ _______ _____ _____    ______ ____
ROOT
ATOM      1  C   UNL     1      20.052  -9.850  29.857  0.00  0.00    +0.000 C 
ATOM      2  C   UNL     1      19.377 -10.844  29.105  0.00  0.00    +0.000 C 
ATOM      3  C   UNL     1      19.946 -11.385  27.863  0.00  0.00    +0.000 C 
ATOM      4  C   UNL     1      20.373 -10.137  27.103  0.00  0.00    +0.000 C 
ATOM      5  C   UNL     1      18.998  -9.435  26.568  0.00  0.00    +0.000 C 
ATOM      6  C   UNL     1      19.689  -8.071  26.131  0.00  0.00    +0.000 A 
ATOM      7  C   UNL     1      20.867  -8.113  25.462  0.00  0.00    +0.000 A 
ATOM      8  C   UNL     1      21.481  -6.931  25.067  0.00  0.00    +0.000 A 
ATOM      9  C   UNL     1      20.853  -5.737  25.379  0.00  0.00    +0.000 A 
ATOM     10  C   UNL     1      19.652  -5.715  26.062  0.00  0.00    +0.000 A 
ATOM     11  C   UNL     1      19.059  -6.911  26.446  0.00  0.00    +0.000 A 
ATOM     12  C   UNL     1      17.769  -6.776  27.172  0.00  0.00    +0.000 C 
ATOM     13  C   UNL     1      17.256  -8.147  27.628  0.00  0.00    +0.000 C 
ATOM     14  C   UNL     1      18.619  -8.814  28.130  0.00  0.00    +0.000 C 
ATOM     15  C   UNL     1      17.931 -10.303  28.535  0.00  0.00    +0.000 C 
ATOM     16  C   UNL     1      17.565  -9.908  30.080  0.00  0.00    +0.000 C 
ATOM     17  C   UNL     1      17.281 -11.336  30.294  0.00  0.00    +0.000 C 
ATOM     18  C   UNL     1      18.760 -12.068  30.015  0.00  0.00    +0.000 C 
ATOM     19  O   UNL     1      19.311 -11.574  31.369  0.00  0.00    +0.000 OA
ENDROOT
TORSDOF 0
ENDMDL
