MODEL 1
REMARK VINA RESULT:      -8.3      0.000      0.000
REMARK  Name = 
REMARK  6 active torsions:
REMARK  status: ('A' for Active; 'I' for Inactive)
REMARK    1  A    between atoms: C_2  and  C_5
REMARK    2  A    between atoms: C_8  and  C_9
REMARK    3  A    between atoms: C_9  and  N_10
REMARK    4  A    between atoms: C_11  and  C_13
REMARK    5  A    between atoms: C_14  and  C_15
REMARK    6  A    between atoms: C_23  and  C_24
REMARK                            x       y       z     vdW  Elec       q    Type
REMARK                         _______ _______ _______ _____ _____    ______ ____
ROOT
ATOM      1  C   UNL     1      38.140   3.726  15.091  0.00  0.00    +0.000 C 
ATOM      2  C   UNL     1      39.121   3.289  14.433  0.00  0.00    +0.000 C 
ATOM      3  N   UNL     1      40.065   4.345  14.418  0.00  0.00    +0.000 NA
ATOM      4  O   UNL     1      39.364   5.395  14.101  0.00  0.00    +0.000 OA
ATOM      5  C   UNL     1      38.251   5.315  15.203  0.00  0.00    +0.000 C 
ENDROOT
BRANCH   2   6
ATOM      6  C   UNL     1      39.253   1.927  13.858  0.00  0.00    +0.000 A 
ATOM      7  C   UNL     1      38.672   1.518  12.691  0.00  0.00    +0.000 A 
ATOM      8  C   UNL     1      38.749   0.212  12.235  0.00  0.00    +0.000 A 
ATOM      9  C   UNL     1      39.414  -0.730  12.940  0.00  0.00    +0.000 A 
ATOM     10  C   UNL     1      40.016  -0.340  14.118  0.00  0.00    +0.000 A 
ATOM     11  C   UNL     1      39.928   0.955  14.556  0.00  0.00    +0.000 A 
ENDBRANCH   2   6
BRANCH   5  12
ATOM     12  C   UNL     1      39.110   5.580  16.445  0.00  0.00    +0.000 A 
ATOM     13  C   UNL     1      38.585   5.189  17.645  0.00  0.00    +0.000 A 
ATOM     14  C   UNL     1      39.234   5.444  18.863  0.00  0.00    +0.000 A 
ATOM     15  C   UNL     1      40.442   6.111  18.828  0.00  0.00    +0.000 A 
ATOM     16  C   UNL     1      40.991   6.505  17.656  0.00  0.00    +0.000 A 
ATOM     17  C   UNL     1      40.299   6.227  16.480  0.00  0.00    +0.000 A 
ENDBRANCH   5  12
BRANCH   1  19
ATOM     18  N   UNL     1      36.883   2.057  16.458  0.00  0.00    +0.000 NA
ATOM     19  C   UNL     1      36.855   3.137  15.537  0.00  0.00    +0.000 C 
ATOM     20  O   UNL     1      35.750   3.542  15.139  0.00  0.00    +0.000 OA
BRANCH  18  21
ATOM     21  C   UNL     1      35.794   1.322  16.982  0.00  0.00    +0.000 C 
BRANCH  21  25
ATOM     22  C   UNL     1      35.499  -2.637  15.631  0.00  0.00    +0.000 A 
ATOM     23  C   UNL     1      34.723  -2.211  16.706  0.00  0.00    +0.000 A 
ATOM     24  C   UNL     1      34.838  -0.932  17.106  0.00  0.00    +0.000 A 
ATOM     25  C   UNL     1      35.674  -0.028  16.510  0.00  0.00    +0.000 A 
ATOM     26  C   UNL     1      36.435  -0.466  15.453  0.00  0.00    +0.000 A 
ATOM     27  C   UNL     1      36.351  -1.740  15.018  0.00  0.00    +0.000 A 
BRANCH  22  29
ATOM     28  C   UNL     1      36.489  -4.212  14.072  0.00  0.00    +0.000 C 
ATOM     29  C   UNL     1      35.441  -4.021  15.167  0.00  0.00    +0.000 C 
ATOM     30  C   UNL     1      34.086  -4.363  14.655  0.00  0.00    +0.000 C 
ATOM     31  C   UNL     1      35.851  -4.973  16.259  0.00  0.00    +0.000 C 
ENDBRANCH  22  29
ENDBRANCH  21  25
ENDBRANCH  18  21
ENDBRANCH   1  19
TORSDOF 6
ENDMDL
MODEL 2
REMARK VINA RESULT:      -8.1      2.333      7.873
REMARK  Name = 
REMARK  6 active torsions:
REMARK  status: ('A' for Active; 'I' for Inactive)
REMARK    1  A    between atoms: C_2  and  C_5
REMARK    2  A    between atoms: C_8  and  C_9
REMARK    3  A    between atoms: C_9  and  N_10
REMARK    4  A    between atoms: C_11  and  C_13
REMARK    5  A    between atoms: C_14  and  C_15
REMARK    6  A    between atoms: C_23  and  C_24
REMARK                            x       y       z     vdW  Elec       q    Type
REMARK                         _______ _______ _______ _____ _____    ______ ____
ROOT
ATOM      1  C   UNL     1      38.255  -0.409  14.816  0.00  0.00    +0.000 C 
ATOM      2  C   UNL     1      38.049  -1.249  15.730  0.00  0.00    +0.000 C 
ATOM      3  N   UNL     1      38.898  -2.344  15.436  0.00  0.00    +0.000 NA
ATOM      4  O   UNL     1      38.704  -2.563  14.166  0.00  0.00    +0.000 OA
ATOM      5  C   UNL     1      39.000  -1.131  13.601  0.00  0.00    +0.000 C 
ENDROOT
BRANCH   2   6
ATOM      6  C   UNL     1      37.146  -1.071  16.895  0.00  0.00    +0.000 A 
ATOM      7  C   UNL     1      35.885  -0.547  16.826  0.00  0.00    +0.000 A 
ATOM      8  C   UNL     1      35.108  -0.318  17.948  0.00  0.00    +0.000 A 
ATOM      9  C   UNL     1      35.573  -0.608  19.184  0.00  0.00    +0.000 A 
ATOM     10  C   UNL     1      36.839  -1.146  19.281  0.00  0.00    +0.000 A 
ATOM     11  C   UNL     1      37.596  -1.364  18.159  0.00  0.00    +0.000 A 
ENDBRANCH   2   6
BRANCH   5  12
ATOM     12  C   UNL     1      40.495  -1.038  13.923  0.00  0.00    +0.000 A 
ATOM     13  C   UNL     1      41.045   0.213  13.912  0.00  0.00    +0.000 A 
ATOM     14  C   UNL     1      42.418   0.428  14.112  0.00  0.00    +0.000 A 
ATOM     15  C   UNL     1      43.223  -0.673  14.329  0.00  0.00    +0.000 A 
ATOM     16  C   UNL     1      42.707  -1.924  14.352  0.00  0.00    +0.000 A 
ATOM     17  C   UNL     1      41.338  -2.075  14.143  0.00  0.00    +0.000 A 
ENDBRANCH   5  12
BRANCH   1  19
ATOM     18  N   UNL     1      38.138   2.011  15.418  0.00  0.00    +0.000 NA
ATOM     19  C   UNL     1      37.757   0.960  14.543  0.00  0.00    +0.000 C 
ATOM     20  O   UNL     1      37.015   1.233  13.584  0.00  0.00    +0.000 OA
BRANCH  18  21
ATOM     21  C   UNL     1      37.753   3.371  15.376  0.00  0.00    +0.000 C 
BRANCH  21  25
ATOM     22  C   UNL     1      40.046   5.917  17.793  0.00  0.00    +0.000 A 
ATOM     23  C   UNL     1      40.289   5.856  16.424  0.00  0.00    +0.000 A 
ATOM     24  C   UNL     1      39.528   5.035  15.678  0.00  0.00    +0.000 A 
ATOM     25  C   UNL     1      38.527   4.260  16.196  0.00  0.00    +0.000 A 
ATOM     26  C   UNL     1      38.303   4.329  17.549  0.00  0.00    +0.000 A 
ATOM     27  C   UNL     1      39.042   5.140  18.334  0.00  0.00    +0.000 A 
BRANCH  22  29
ATOM     28  C   UNL     1      42.325   6.612  18.262  0.00  0.00    +0.000 C 
ATOM     29  C   UNL     1      40.858   6.769  18.660  0.00  0.00    +0.000 C 
ATOM     30  C   UNL     1      40.668   6.417  20.093  0.00  0.00    +0.000 C 
ATOM     31  C   UNL     1      40.552   8.223  18.426  0.00  0.00    +0.000 C 
ENDBRANCH  22  29
ENDBRANCH  21  25
ENDBRANCH  18  21
ENDBRANCH   1  19
TORSDOF 6
ENDMDL
MODEL 3
REMARK VINA RESULT:      -8.0      1.965      4.823
REMARK  Name = 
REMARK  6 active torsions:
REMARK  status: ('A' for Active; 'I' for Inactive)
REMARK    1  A    between atoms: C_2  and  C_5
REMARK    2  A    between atoms: C_8  and  C_9
REMARK    3  A    between atoms: C_9  and  N_10
REMARK    4  A    between atoms: C_11  and  C_13
REMARK    5  A    between atoms: C_14  and  C_15
REMARK    6  A    between atoms: C_23  and  C_24
REMARK                            x       y       z     vdW  Elec       q    Type
REMARK                         _______ _______ _______ _____ _____    ______ ____
ROOT
ATOM      1  C   UNL     1      37.749   4.499  15.965  0.00  0.00    +0.000 C 
ATOM      2  C   UNL     1      38.381   5.559  16.212  0.00  0.00    +0.000 C 
ATOM      3  N   UNL     1      38.688   6.120  14.948  0.00  0.00    +0.000 NA
ATOM      4  O   UNL     1      39.154   5.118  14.260  0.00  0.00    +0.000 OA
ATOM      5  C   UNL     1      37.972   4.102  14.434  0.00  0.00    +0.000 C 
ENDROOT
BRANCH   2   6
ATOM      6  C   UNL     1      38.675   6.109  17.559  0.00  0.00    +0.000 A 
ATOM      7  C   UNL     1      38.025   7.171  18.122  0.00  0.00    +0.000 A 
ATOM      8  C   UNL     1      38.389   7.707  19.346  0.00  0.00    +0.000 A 
ATOM      9  C   UNL     1      39.424   7.194  20.048  0.00  0.00    +0.000 A 
ATOM     10  C   UNL     1      40.091   6.115  19.505  0.00  0.00    +0.000 A 
ATOM     11  C   UNL     1      39.719   5.599  18.292  0.00  0.00    +0.000 A 
ENDBRANCH   2   6
BRANCH   5  12
ATOM     12  C   UNL     1      36.884   4.848  13.654  0.00  0.00    +0.000 A 
ATOM     13  C   UNL     1      37.105   5.026  12.317  0.00  0.00    +0.000 A 
ATOM     14  C   UNL     1      36.226   5.760  11.505  0.00  0.00    +0.000 A 
ATOM     15  C   UNL     1      35.105   6.311  12.094  0.00  0.00    +0.000 A 
ATOM     16  C   UNL     1      34.855   6.146  13.414  0.00  0.00    +0.000 A 
ATOM     17  C   UNL     1      35.765   5.411  14.169  0.00  0.00    +0.000 A 
ENDBRANCH   5  12
BRANCH   1  19
ATOM     18  N   UNL     1      35.969   2.777  16.282  0.00  0.00    +0.000 NA
ATOM     19  C   UNL     1      37.090   3.473  16.806  0.00  0.00    +0.000 C 
ATOM     20  O   UNL     1      37.470   3.192  17.955  0.00  0.00    +0.000 OA
BRANCH  18  21
ATOM     21  C   UNL     1      35.168   1.799  16.915  0.00  0.00    +0.000 C 
BRANCH  21  25
ATOM     22  C   UNL     1      35.768  -2.134  15.589  0.00  0.00    +0.000 A 
ATOM     23  C   UNL     1      34.953  -1.891  16.691  0.00  0.00    +0.000 A 
ATOM     24  C   UNL     1      34.777  -0.616  17.083  0.00  0.00    +0.000 A 
ATOM     25  C   UNL     1      35.354   0.452  16.452  0.00  0.00    +0.000 A 
ATOM     26  C   UNL     1      36.158   0.194  15.369  0.00  0.00    +0.000 A 
ATOM     27  C   UNL     1      36.362  -1.069  14.942  0.00  0.00    +0.000 A 
BRANCH  22  29
ATOM     28  C   UNL     1      37.093  -3.456  14.043  0.00  0.00    +0.000 C 
ATOM     29  C   UNL     1      36.022  -3.499  15.132  0.00  0.00    +0.000 C 
ATOM     30  C   UNL     1      34.781  -4.136  14.616  0.00  0.00    +0.000 C 
ATOM     31  C   UNL     1      36.628  -4.330  16.230  0.00  0.00    +0.000 C 
ENDBRANCH  22  29
ENDBRANCH  21  25
ENDBRANCH  18  21
ENDBRANCH   1  19
TORSDOF 6
ENDMDL
MODEL 4
REMARK VINA RESULT:      -7.7      2.130      8.112
REMARK  Name = 
REMARK  6 active torsions:
REMARK  status: ('A' for Active; 'I' for Inactive)
REMARK    1  A    between atoms: C_2  and  C_5
REMARK    2  A    between atoms: C_8  and  C_9
REMARK    3  A    between atoms: C_9  and  N_10
REMARK    4  A    between atoms: C_11  and  C_13
REMARK    5  A    between atoms: C_14  and  C_15
REMARK    6  A    between atoms: C_23  and  C_24
REMARK                            x       y       z     vdW  Elec       q    Type
REMARK                         _______ _______ _______ _____ _____    ______ ____
ROOT
ATOM      1  C   UNL     1      38.207  -0.689  15.372  0.00  0.00    +0.000 C 
ATOM      2  C   UNL     1      39.227  -1.197  14.837  0.00  0.00    +0.000 C 
ATOM      3  N   UNL     1      39.337  -2.496  15.390  0.00  0.00    +0.000 NA
ATOM      4  O   UNL     1      39.181  -2.311  16.670  0.00  0.00    +0.000 OA
ATOM      5  C   UNL     1      37.814  -1.543  16.663  0.00  0.00    +0.000 C 
ENDROOT
BRANCH   2   6
ATOM      6  C   UNL     1      40.079  -0.562  13.801  0.00  0.00    +0.000 A 
ATOM      7  C   UNL     1      41.150   0.246  14.065  0.00  0.00    +0.000 A 
ATOM      8  C   UNL     1      41.865   0.889  13.069  0.00  0.00    +0.000 A 
ATOM      9  C   UNL     1      41.528   0.741  11.768  0.00  0.00    +0.000 A 
ATOM     10  C   UNL     1      40.456  -0.076  11.474  0.00  0.00    +0.000 A 
ATOM     11  C   UNL     1      39.758  -0.702  12.472  0.00  0.00    +0.000 A 
ENDBRANCH   2   6
BRANCH   5  12
ATOM     12  C   UNL     1      36.900  -2.662  16.153  0.00  0.00    +0.000 A 
ATOM     13  C   UNL     1      37.080  -3.898  16.708  0.00  0.00    +0.000 A 
ATOM     14  C   UNL     1      36.363  -5.024  16.274  0.00  0.00    +0.000 A 
ATOM     15  C   UNL     1      35.449  -4.858  15.252  0.00  0.00    +0.000 A 
ATOM     16  C   UNL     1      35.244  -3.647  14.686  0.00  0.00    +0.000 A 
ATOM     17  C   UNL     1      35.987  -2.567  15.157  0.00  0.00    +0.000 A 
ENDBRANCH   5  12
BRANCH   1  19
ATOM     18  N   UNL     1      38.177   1.803  15.519  0.00  0.00    +0.000 NA
ATOM     19  C   UNL     1      37.492   0.599  15.210  0.00  0.00    +0.000 C 
ATOM     20  O   UNL     1      36.315   0.676  14.817  0.00  0.00    +0.000 OA
BRANCH  18  21
ATOM     21  C   UNL     1      37.684   3.128  15.479  0.00  0.00    +0.000 C 
BRANCH  21  25
ATOM     22  C   UNL     1      39.906   5.892  17.717  0.00  0.00    +0.000 A 
ATOM     23  C   UNL     1      40.142   5.756  16.352  0.00  0.00    +0.000 A 
ATOM     24  C   UNL     1      39.404   4.865  15.664  0.00  0.00    +0.000 A 
ATOM     25  C   UNL     1      38.433   4.090  16.237  0.00  0.00    +0.000 A 
ATOM     26  C   UNL     1      38.217   4.235  17.585  0.00  0.00    +0.000 A 
ATOM     27  C   UNL     1      38.933   5.116  18.314  0.00  0.00    +0.000 A 
BRANCH  22  29
ATOM     28  C   UNL     1      40.460   6.502  20.001  0.00  0.00    +0.000 C 
ATOM     29  C   UNL     1      40.694   6.821  18.525  0.00  0.00    +0.000 C 
ATOM     30  C   UNL     1      40.328   8.233  18.234  0.00  0.00    +0.000 C 
ATOM     31  C   UNL     1      42.168   6.601  18.315  0.00  0.00    +0.000 C 
ENDBRANCH  22  29
ENDBRANCH  21  25
ENDBRANCH  18  21
ENDBRANCH   1  19
TORSDOF 6
ENDMDL
MODEL 5
REMARK VINA RESULT:      -7.6      3.120      7.833
REMARK  Name = 
REMARK  6 active torsions:
REMARK  status: ('A' for Active; 'I' for Inactive)
REMARK    1  A    between atoms: C_2  and  C_5
REMARK    2  A    between atoms: C_8  and  C_9
REMARK    3  A    between atoms: C_9  and  N_10
REMARK    4  A    between atoms: C_11  and  C_13
REMARK    5  A    between atoms: C_14  and  C_15
REMARK    6  A    between atoms: C_23  and  C_24
REMARK                            x       y       z     vdW  Elec       q    Type
REMARK                         _______ _______ _______ _____ _____    ______ ____
ROOT
ATOM      1  C   UNL     1      37.134  -1.912  16.333  0.00  0.00    +0.000 C 
ATOM      2  C   UNL     1      37.941  -2.081  15.382  0.00  0.00    +0.000 C 
ATOM      3  N   UNL     1      37.989  -3.481  15.172  0.00  0.00    +0.000 NA
ATOM      4  O   UNL     1      38.132  -3.978  16.368  0.00  0.00    +0.000 OA
ATOM      5  C   UNL     1      36.910  -3.304  17.083  0.00  0.00    +0.000 C 
ENDROOT
BRANCH   2   6
ATOM      6  C   UNL     1      38.635  -1.012  14.622  0.00  0.00    +0.000 A 
ATOM      7  C   UNL     1      39.899  -0.566  14.887  0.00  0.00    +0.000 A 
ATOM      8  C   UNL     1      40.476   0.495  14.209  0.00  0.00    +0.000 A 
ATOM      9  C   UNL     1      39.799   1.146  13.237  0.00  0.00    +0.000 A 
ATOM     10  C   UNL     1      38.524   0.710  12.944  0.00  0.00    +0.000 A 
ATOM     11  C   UNL     1      37.967  -0.339  13.627  0.00  0.00    +0.000 A 
ENDBRANCH   2   6
BRANCH   5  12
ATOM     12  C   UNL     1      35.767  -3.996  16.331  0.00  0.00    +0.000 A 
ATOM     13  C   UNL     1      35.848  -5.356  16.216  0.00  0.00    +0.000 A 
ATOM     14  C   UNL     1      34.909  -6.100  15.485  0.00  0.00    +0.000 A 
ATOM     15  C   UNL     1      33.876  -5.420  14.871  0.00  0.00    +0.000 A 
ATOM     16  C   UNL     1      33.765  -4.075  14.972  0.00  0.00    +0.000 A 
ATOM     17  C   UNL     1      34.729  -3.390  15.708  0.00  0.00    +0.000 A 
ENDBRANCH   5  12
BRANCH   1  19
ATOM     18  N   UNL     1      35.603   0.061  16.338  0.00  0.00    +0.000 NA
ATOM     19  C   UNL     1      36.580  -0.717  17.014  0.00  0.00    +0.000 C 
ATOM     20  O   UNL     1      36.933  -0.360  18.150  0.00  0.00    +0.000 OA
BRANCH  18  21
ATOM     21  C   UNL     1      34.975   1.251  16.773  0.00  0.00    +0.000 C 
BRANCH  21  25
ATOM     22  C   UNL     1      35.675   4.596  14.344  0.00  0.00    +0.000 A 
ATOM     23  C   UNL     1      34.375   4.274  14.723  0.00  0.00    +0.000 A 
ATOM     24  C   UNL     1      34.189   3.199  15.510  0.00  0.00    +0.000 A 
ATOM     25  C   UNL     1      35.212   2.409  15.959  0.00  0.00    +0.000 A 
ATOM     26  C   UNL     1      36.487   2.739  15.572  0.00  0.00    +0.000 A 
ATOM     27  C   UNL     1      36.720   3.809  14.784  0.00  0.00    +0.000 A 
BRANCH  22  29
ATOM     28  C   UNL     1      36.360   5.207  12.097  0.00  0.00    +0.000 C 
ATOM     29  C   UNL     1      35.939   5.735  13.467  0.00  0.00    +0.000 C 
ATOM     30  C   UNL     1      36.997   6.617  14.031  0.00  0.00    +0.000 C 
ATOM     31  C   UNL     1      34.680   6.517  13.206  0.00  0.00    +0.000 C 
ENDBRANCH  22  29
ENDBRANCH  21  25
ENDBRANCH  18  21
ENDBRANCH   1  19
TORSDOF 6
ENDMDL
MODEL 6
REMARK VINA RESULT:      -7.6      2.043      7.948
REMARK  Name = 
REMARK  6 active torsions:
REMARK  status: ('A' for Active; 'I' for Inactive)
REMARK    1  A    between atoms: C_2  and  C_5
REMARK    2  A    between atoms: C_8  and  C_9
REMARK    3  A    between atoms: C_9  and  N_10
REMARK    4  A    between atoms: C_11  and  C_13
REMARK    5  A    between atoms: C_14  and  C_15
REMARK    6  A    between atoms: C_23  and  C_24
REMARK                            x       y       z     vdW  Elec       q    Type
REMARK                         _______ _______ _______ _____ _____    ______ ____
ROOT
ATOM      1  C   UNL     1      37.642  -0.107  14.740  0.00  0.00    +0.000 C 
ATOM      2  C   UNL     1      38.135  -0.482  13.645  0.00  0.00    +0.000 C 
ATOM      3  N   UNL     1      38.587  -1.806  13.867  0.00  0.00    +0.000 NA
ATOM      4  O   UNL     1      39.239  -1.735  14.992  0.00  0.00    +0.000 OA
ATOM      5  C   UNL     1      38.135  -1.089  15.899  0.00  0.00    +0.000 C 
ENDROOT
BRANCH   2   6
ATOM      6  C   UNL     1      38.167   0.302  12.384  0.00  0.00    +0.000 A 
ATOM      7  C   UNL     1      37.062   0.642  11.654  0.00  0.00    +0.000 A 
ATOM      8  C   UNL     1      37.143   1.299  10.438  0.00  0.00    +0.000 A 
ATOM      9  C   UNL     1      38.342   1.637   9.911  0.00  0.00    +0.000 A 
ATOM     10  C   UNL     1      39.471   1.312  10.633  0.00  0.00    +0.000 A 
ATOM     11  C   UNL     1      39.373   0.660  11.833  0.00  0.00    +0.000 A 
ENDBRANCH   2   6
BRANCH   5  12
ATOM     12  C   UNL     1      37.123  -2.240  15.920  0.00  0.00    +0.000 A 
ATOM     13  C   UNL     1      37.599  -3.464  16.300  0.00  0.00    +0.000 A 
ATOM     14  C   UNL     1      36.795  -4.615  16.286  0.00  0.00    +0.000 A 
ATOM     15  C   UNL     1      35.484  -4.487  15.874  0.00  0.00    +0.000 A 
ATOM     16  C   UNL     1      34.982  -3.288  15.498  0.00  0.00    +0.000 A 
ATOM     17  C   UNL     1      35.828  -2.182  15.530  0.00  0.00    +0.000 A 
ENDBRANCH   5  12
BRANCH   1  19
ATOM     18  N   UNL     1      37.730   2.244  15.575  0.00  0.00    +0.000 NA
ATOM     19  C   UNL     1      36.949   1.123  15.190  0.00  0.00    +0.000 C 
ATOM     20  O   UNL     1      35.712   1.221  15.249  0.00  0.00    +0.000 OA
BRANCH  18  21
ATOM     21  C   UNL     1      37.289   3.493  16.071  0.00  0.00    +0.000 C 
BRANCH  21  25
ATOM     22  C   UNL     1      40.201   5.901  17.889  0.00  0.00    +0.000 A 
ATOM     23  C   UNL     1      39.208   5.309  18.665  0.00  0.00    +0.000 A 
ATOM     24  C   UNL     1      38.296   4.535  18.049  0.00  0.00    +0.000 A 
ATOM     25  C   UNL     1      38.296   4.300  16.701  0.00  0.00    +0.000 A 
ATOM     26  C   UNL     1      39.280   4.895  15.951  0.00  0.00    +0.000 A 
ATOM     27  C   UNL     1      40.215   5.678  16.527  0.00  0.00    +0.000 A 
BRANCH  22  29
ATOM     28  C   UNL     1      40.662   8.204  18.504  0.00  0.00    +0.000 C 
ATOM     29  C   UNL     1      41.203   6.775  18.495  0.00  0.00    +0.000 C 
ATOM     30  C   UNL     1      42.492   6.713  17.755  0.00  0.00    +0.000 C 
ATOM     31  C   UNL     1      41.407   6.435  19.946  0.00  0.00    +0.000 C 
ENDBRANCH  22  29
ENDBRANCH  21  25
ENDBRANCH  18  21
ENDBRANCH   1  19
TORSDOF 6
ENDMDL
MODEL 7
REMARK VINA RESULT:      -7.3      3.707      8.005
REMARK  Name = 
REMARK  6 active torsions:
REMARK  status: ('A' for Active; 'I' for Inactive)
REMARK    1  A    between atoms: C_2  and  C_5
REMARK    2  A    between atoms: C_8  and  C_9
REMARK    3  A    between atoms: C_9  and  N_10
REMARK    4  A    between atoms: C_11  and  C_13
REMARK    5  A    between atoms: C_14  and  C_15
REMARK    6  A    between atoms: C_23  and  C_24
REMARK                            x       y       z     vdW  Elec       q    Type
REMARK                         _______ _______ _______ _____ _____    ______ ____
ROOT
ATOM      1  C   UNL     1      37.686  -1.063  14.789  0.00  0.00    +0.000 C 
ATOM      2  C   UNL     1      36.496  -0.813  15.113  0.00  0.00    +0.000 C 
ATOM      3  N   UNL     1      35.914  -2.069  15.413  0.00  0.00    +0.000 NA
ATOM      4  O   UNL     1      36.271  -2.831  14.419  0.00  0.00    +0.000 OA
ATOM      5  C   UNL     1      37.824  -2.622  14.467  0.00  0.00    +0.000 C 
ENDROOT
BRANCH   2   6
ATOM      6  C   UNL     1      35.880   0.534  15.210  0.00  0.00    +0.000 A 
ATOM      7  C   UNL     1      35.905   1.472  14.216  0.00  0.00    +0.000 A 
ATOM      8  C   UNL     1      35.394   2.748  14.380  0.00  0.00    +0.000 A 
ATOM      9  C   UNL     1      34.838   3.128  15.552  0.00  0.00    +0.000 A 
ATOM     10  C   UNL     1      34.792   2.197  16.568  0.00  0.00    +0.000 A 
ATOM     11  C   UNL     1      35.305   0.939  16.391  0.00  0.00    +0.000 A 
ENDBRANCH   2   6
BRANCH   5  12
ATOM     12  C   UNL     1      38.125  -3.294  15.811  0.00  0.00    +0.000 A 
ATOM     13  C   UNL     1      37.689  -4.580  15.962  0.00  0.00    +0.000 A 
ATOM     14  C   UNL     1      37.831  -5.281  17.170  0.00  0.00    +0.000 A 
ATOM     15  C   UNL     1      38.434  -4.634  18.230  0.00  0.00    +0.000 A 
ATOM     16  C   UNL     1      38.882  -3.362  18.110  0.00  0.00    +0.000 A 
ATOM     17  C   UNL     1      38.710  -2.717  16.888  0.00  0.00    +0.000 A 
ENDBRANCH   5  12
BRANCH   1  19
ATOM     18  N   UNL     1      39.576  -0.541  13.244  0.00  0.00    +0.000 NA
ATOM     19  C   UNL     1      38.852  -0.225  14.423  0.00  0.00    +0.000 C 
ATOM     20  O   UNL     1      39.230   0.744  15.103  0.00  0.00    +0.000 OA
BRANCH  18  21
ATOM     21  C   UNL     1      40.733   0.088  12.729  0.00  0.00    +0.000 C 
BRANCH  21  25
ATOM     22  C   UNL     1      44.297  -0.749  14.773  0.00  0.00    +0.000 A 
ATOM     23  C   UNL     1      43.234  -1.645  14.838  0.00  0.00    +0.000 A 
ATOM     24  C   UNL     1      42.109  -1.348  14.162  0.00  0.00    +0.000 A 
ATOM     25  C   UNL     1      41.958  -0.213  13.413  0.00  0.00    +0.000 A 
ATOM     26  C   UNL     1      43.016   0.662  13.364  0.00  0.00    +0.000 A 
ATOM     27  C   UNL     1      44.162   0.404  14.025  0.00  0.00    +0.000 A 
BRANCH  22  29
ATOM     28  C   UNL     1      45.523  -0.160  16.784  0.00  0.00    +0.000 C 
ATOM     29  C   UNL     1      45.535  -1.001  15.508  0.00  0.00    +0.000 C 
ATOM     30  C   UNL     1      46.729  -0.675  14.683  0.00  0.00    +0.000 C 
ATOM     31  C   UNL     1      45.595  -2.425  15.989  0.00  0.00    +0.000 C 
ENDBRANCH  22  29
ENDBRANCH  21  25
ENDBRANCH  18  21
ENDBRANCH   1  19
TORSDOF 6
ENDMDL
MODEL 8
REMARK VINA RESULT:      -7.3      2.583      4.985
REMARK  Name = 
REMARK  6 active torsions:
REMARK  status: ('A' for Active; 'I' for Inactive)
REMARK    1  A    between atoms: C_2  and  C_5
REMARK    2  A    between atoms: C_8  and  C_9
REMARK    3  A    between atoms: C_9  and  N_10
REMARK    4  A    between atoms: C_11  and  C_13
REMARK    5  A    between atoms: C_14  and  C_15
REMARK    6  A    between atoms: C_23  and  C_24
REMARK                            x       y       z     vdW  Elec       q    Type
REMARK                         _______ _______ _______ _____ _____    ______ ____
ROOT
ATOM      1  C   UNL     1      38.255   6.277  16.606  0.00  0.00    +0.000 C 
ATOM      2  C   UNL     1      38.018   7.512  16.550  0.00  0.00    +0.000 C 
ATOM      3  N   UNL     1      38.425   8.032  17.803  0.00  0.00    +0.000 NA
ATOM      4  O   UNL     1      37.905   7.213  18.672  0.00  0.00    +0.000 OA
ATOM      5  C   UNL     1      38.474   5.855  18.131  0.00  0.00    +0.000 C 
ENDROOT
BRANCH   2   6
ATOM      6  C   UNL     1      37.481   8.248  15.378  0.00  0.00    +0.000 A 
ATOM      7  C   UNL     1      38.193   8.529  14.246  0.00  0.00    +0.000 A 
ATOM      8  C   UNL     1      37.681   9.295  13.212  0.00  0.00    +0.000 A 
ATOM      9  C   UNL     1      36.432   9.807  13.281  0.00  0.00    +0.000 A 
ATOM     10  C   UNL     1      35.690   9.530  14.410  0.00  0.00    +0.000 A 
ATOM     11  C   UNL     1      36.212   8.773  15.425  0.00  0.00    +0.000 A 
ENDBRANCH   2   6
BRANCH   5  12
ATOM     12  C   UNL     1      39.964   6.080  18.409  0.00  0.00    +0.000 A 
ATOM     13  C   UNL     1      40.326   6.223  19.719  0.00  0.00    +0.000 A 
ATOM     14  C   UNL     1      41.645   6.512  20.103  0.00  0.00    +0.000 A 
ATOM     15  C   UNL     1      42.595   6.650  19.110  0.00  0.00    +0.000 A 
ATOM     16  C   UNL     1      42.269   6.507  17.804  0.00  0.00    +0.000 A 
ATOM     17  C   UNL     1      40.943   6.224  17.485  0.00  0.00    +0.000 A 
ENDBRANCH   5  12
BRANCH   1  19
ATOM     18  N   UNL     1      36.832   4.752  15.233  0.00  0.00    +0.000 NA
ATOM     19  C   UNL     1      38.129   5.159  15.641  0.00  0.00    +0.000 C 
ATOM     20  O   UNL     1      39.109   4.557  15.171  0.00  0.00    +0.000 OA
BRANCH  18  21
ATOM     21  C   UNL     1      36.477   3.695  14.364  0.00  0.00    +0.000 C 
BRANCH  21  25
ATOM     22  C   UNL     1      35.541   0.073  16.260  0.00  0.00    +0.000 A 
ATOM     23  C   UNL     1      35.002   1.265  16.736  0.00  0.00    +0.000 A 
ATOM     24  C   UNL     1      35.317   2.406  16.098  0.00  0.00    +0.000 A 
ATOM     25  C   UNL     1      36.137   2.455  15.004  0.00  0.00    +0.000 A 
ATOM     26  C   UNL     1      36.663   1.271  14.549  0.00  0.00    +0.000 A 
ATOM     27  C   UNL     1      36.374   0.103  15.159  0.00  0.00    +0.000 A 
BRANCH  22  29
ATOM     28  C   UNL     1      36.177  -1.321  18.143  0.00  0.00    +0.000 C 
ATOM     29  C   UNL     1      35.260  -1.196  16.927  0.00  0.00    +0.000 C 
ATOM     30  C   UNL     1      35.460  -2.347  16.006  0.00  0.00    +0.000 C 
ATOM     31  C   UNL     1      33.867  -1.208  17.497  0.00  0.00    +0.000 C 
ENDBRANCH  22  29
ENDBRANCH  21  25
ENDBRANCH  18  21
ENDBRANCH   1  19
TORSDOF 6
ENDMDL
MODEL 9
REMARK VINA RESULT:      -7.2      3.917      8.983
REMARK  Name = 
REMARK  6 active torsions:
REMARK  status: ('A' for Active; 'I' for Inactive)
REMARK    1  A    between atoms: C_2  and  C_5
REMARK    2  A    between atoms: C_8  and  C_9
REMARK    3  A    between atoms: C_9  and  N_10
REMARK    4  A    between atoms: C_11  and  C_13
REMARK    5  A    between atoms: C_14  and  C_15
REMARK    6  A    between atoms: C_23  and  C_24
REMARK                            x       y       z     vdW  Elec       q    Type
REMARK                         _______ _______ _______ _____ _____    ______ ____
ROOT
ATOM      1  C   UNL     1      36.392   3.267  15.457  0.00  0.00    +0.000 C 
ATOM      2  C   UNL     1      37.159   3.284  16.454  0.00  0.00    +0.000 C 
ATOM      3  N   UNL     1      36.844   2.116  17.192  0.00  0.00    +0.000 NA
ATOM      4  O   UNL     1      35.543   2.119  17.252  0.00  0.00    +0.000 OA
ATOM      5  C   UNL     1      35.206   2.232  15.725  0.00  0.00    +0.000 C 
ENDROOT
BRANCH   2   6
ATOM      6  C   UNL     1      38.206   4.297  16.738  0.00  0.00    +0.000 A 
ATOM      7  C   UNL     1      39.083   4.787  15.811  0.00  0.00    +0.000 A 
ATOM      8  C   UNL     1      40.101   5.667  16.137  0.00  0.00    +0.000 A 
ATOM      9  C   UNL     1      40.274   6.087  17.410  0.00  0.00    +0.000 A 
ATOM     10  C   UNL     1      39.396   5.614  18.363  0.00  0.00    +0.000 A 
ATOM     11  C   UNL     1      38.396   4.742  18.024  0.00  0.00    +0.000 A 
ENDBRANCH   2   6
BRANCH   5  12
ATOM     12  C   UNL     1      35.733   0.873  15.252  0.00  0.00    +0.000 A 
ATOM     13  C   UNL     1      35.419  -0.208  16.028  0.00  0.00    +0.000 A 
ATOM     14  C   UNL     1      35.905  -1.495  15.749  0.00  0.00    +0.000 A 
ATOM     15  C   UNL     1      36.724  -1.656  14.649  0.00  0.00    +0.000 A 
ATOM     16  C   UNL     1      37.048  -0.607  13.857  0.00  0.00    +0.000 A 
ATOM     17  C   UNL     1      36.538   0.647  14.186  0.00  0.00    +0.000 A 
ENDBRANCH   5  12
BRANCH   1  19
ATOM     18  N   UNL     1      35.260   5.174  14.309  0.00  0.00    +0.000 NA
ATOM     19  C   UNL     1      36.230   4.138  14.268  0.00  0.00    +0.000 C 
ATOM     20  O   UNL     1      36.902   4.002  13.232  0.00  0.00    +0.000 OA
BRANCH  18  21
ATOM     21  C   UNL     1      34.909   6.087  13.288  0.00  0.00    +0.000 C 
BRANCH  21  25
ATOM     22  C   UNL     1      34.395  10.045  14.574  0.00  0.00    +0.000 A 
ATOM     23  C   UNL     1      35.319   9.756  13.574  0.00  0.00    +0.000 A 
ATOM     24  C   UNL     1      35.451   8.476  13.181  0.00  0.00    +0.000 A 
ATOM     25  C   UNL     1      34.722   7.447  13.710  0.00  0.00    +0.000 A 
ATOM     26  C   UNL     1      33.818   7.750  14.699  0.00  0.00    +0.000 A 
ATOM     27  C   UNL     1      33.653   9.019  15.124  0.00  0.00    +0.000 A 
BRANCH  22  29
ATOM     28  C   UNL     1      35.592  12.096  15.080  0.00  0.00    +0.000 C 
ATOM     29  C   UNL     1      34.226  11.411  15.065  0.00  0.00    +0.000 C 
ATOM     30  C   UNL     1      33.623  11.426  16.425  0.00  0.00    +0.000 C 
ATOM     31  C   UNL     1      33.400  12.228  14.110  0.00  0.00    +0.000 C 
ENDBRANCH  22  29
ENDBRANCH  21  25
ENDBRANCH  18  21
ENDBRANCH   1  19
TORSDOF 6
ENDMDL
MODEL 10
REMARK VINA RESULT:      -7.1      2.278      7.902
REMARK  Name = 
REMARK  6 active torsions:
REMARK  status: ('A' for Active; 'I' for Inactive)
REMARK    1  A    between atoms: C_2  and  C_5
REMARK    2  A    between atoms: C_8  and  C_9
REMARK    3  A    between atoms: C_9  and  N_10
REMARK    4  A    between atoms: C_11  and  C_13
REMARK    5  A    between atoms: C_14  and  C_15
REMARK    6  A    between atoms: C_23  and  C_24
REMARK                            x       y       z     vdW  Elec       q    Type
REMARK                         _______ _______ _______ _____ _____    ______ ____
ROOT
ATOM      1  C   UNL     1      38.180   0.775  13.954  0.00  0.00    +0.000 C 
ATOM      2  C   UNL     1      38.489   0.343  12.813  0.00  0.00    +0.000 C 
ATOM      3  N   UNL     1      39.066  -0.931  13.034  0.00  0.00    +0.000 NA
ATOM      4  O   UNL     1      39.907  -0.734  14.009  0.00  0.00    +0.000 OA
ATOM      5  C   UNL     1      38.946  -0.082  15.062  0.00  0.00    +0.000 C 
ENDROOT
BRANCH   2   6
ATOM      6  C   UNL     1      38.232   1.025  11.519  0.00  0.00    +0.000 A 
ATOM      7  C   UNL     1      37.035   1.011  10.859  0.00  0.00    +0.000 A 
ATOM      8  C   UNL     1      36.863   1.587   9.612  0.00  0.00    +0.000 A 
ATOM      9  C   UNL     1      37.891   2.199   8.982  0.00  0.00    +0.000 A 
ATOM     10  C   UNL     1      39.107   2.234   9.632  0.00  0.00    +0.000 A 
ATOM     11  C   UNL     1      39.261   1.657  10.864  0.00  0.00    +0.000 A 
ENDBRANCH   2   6
BRANCH   5  12
ATOM     12  C   UNL     1      38.040  -1.283  15.351  0.00  0.00    +0.000 A 
ATOM     13  C   UNL     1      38.661  -2.434  15.750  0.00  0.00    +0.000 A 
ATOM     14  C   UNL     1      37.953  -3.627  15.970  0.00  0.00    +0.000 A 
ATOM     15  C   UNL     1      36.587  -3.617  15.774  0.00  0.00    +0.000 A 
ATOM     16  C   UNL     1      35.943  -2.493  15.386  0.00  0.00    +0.000 A 
ATOM     17  C   UNL     1      36.698  -1.341  15.180  0.00  0.00    +0.000 A 
ENDBRANCH   5  12
BRANCH   1  19
ATOM     18  N   UNL     1      38.147   2.798  15.417  0.00  0.00    +0.000 NA
ATOM     19  C   UNL     1      37.496   1.996  14.443  0.00  0.00    +0.000 C 
ATOM     20  O   UNL     1      36.375   2.351  14.042  0.00  0.00    +0.000 OA
BRANCH  18  21
ATOM     21  C   UNL     1      37.669   3.969  16.050  0.00  0.00    +0.000 C 
BRANCH  21  25
ATOM     22  C   UNL     1      40.577   6.157  18.133  0.00  0.00    +0.000 A 
ATOM     23  C   UNL     1      40.656   6.043  16.748  0.00  0.00    +0.000 A 
ATOM     24  C   UNL     1      39.701   5.340  16.112  0.00  0.00    +0.000 A 
ATOM     25  C   UNL     1      38.656   4.736  16.757  0.00  0.00    +0.000 A 
ATOM     26  C   UNL     1      38.596   4.857  18.123  0.00  0.00    +0.000 A 
ATOM     27  C   UNL     1      39.532   5.552  18.801  0.00  0.00    +0.000 A 
BRANCH  22  29
ATOM     28  C   UNL     1      42.937   6.728  18.161  0.00  0.00    +0.000 C 
ATOM     29  C   UNL     1      41.600   6.883  18.884  0.00  0.00    +0.000 C 
ATOM     30  C   UNL     1      41.704   6.380  20.280  0.00  0.00    +0.000 C 
ATOM     31  C   UNL     1      41.328   8.363  18.871  0.00  0.00    +0.000 C 
ENDBRANCH  22  29
ENDBRANCH  21  25
ENDBRANCH  18  21
ENDBRANCH   1  19
TORSDOF 6
ENDMDL
