MODEL 1
REMARK VINA RESULT:      -8.1      0.000      0.000
REMARK  Name = 
REMARK  7 active torsions:
REMARK  status: ('A' for Active; 'I' for Inactive)
REMARK    1  A    between atoms: C_2  and  C_3
REMARK    2  A    between atoms: C_3  and  N_4
REMARK    3  A    between atoms: N_4  and  C_5
REMARK    4  A    between atoms: N_4  and  C_12
REMARK    5  A    between atoms: C_5  and  C_6
REMARK    6  A    between atoms: C_14  and  C_15
REMARK    7  A    between atoms: C_22  and  C_23
REMARK                            x       y       z     vdW  Elec       q    Type
REMARK                         _______ _______ _______ _____ _____    ______ ____
ROOT
ATOM      1  C   UNL     1      36.814   2.724  15.787  0.00  0.00    +0.000 A 
ATOM      2  C   UNL     1      36.065   3.458  14.870  0.00  0.00    +0.000 A 
ATOM      3  C   UNL     1      36.305   4.788  14.673  0.00  0.00    +0.000 A 
ATOM      4  C   UNL     1      37.312   5.366  15.414  0.00  0.00    +0.000 A 
ATOM      5  C   UNL     1      38.046   4.634  16.317  0.00  0.00    +0.000 A 
ATOM      6  N   UNL     1      37.772   3.337  16.473  0.00  0.00    +0.000 NA
ENDROOT
BRANCH   5   7
ATOM      7  C   UNL     1      39.125   5.262  17.111  0.00  0.00    +0.000 A 
ATOM      8  C   UNL     1      39.033   5.343  18.482  0.00  0.00    +0.000 A 
ATOM      9  C   UNL     1      40.018   5.922  19.258  0.00  0.00    +0.000 A 
ATOM     10  C   UNL     1      41.153   6.451  18.667  0.00  0.00    +0.000 A 
ATOM     11  O   UNL     1      42.148   7.036  19.451  0.00  0.00    +0.000 OA
ATOM     12  C   UNL     1      41.248   6.372  17.294  0.00  0.00    +0.000 A 
ATOM     13  C   UNL     1      40.249   5.785  16.515  0.00  0.00    +0.000 A 
ENDBRANCH   5   7
BRANCH   3  14
ATOM     14  C   UNL     1      35.522   5.563  13.714  0.00  0.00    +0.000 A 
ATOM     15  C   UNL     1      34.372   6.205  14.095  0.00  0.00    +0.000 A 
ATOM     16  C   UNL     1      33.638   6.927  13.209  0.00  0.00    +0.000 A 
ATOM     17  C   UNL     1      34.020   7.036  11.914  0.00  0.00    +0.000 A 
ATOM     18  C   UNL     1      35.168   6.408  11.488  0.00  0.00    +0.000 A 
ATOM     19  C   UNL     1      35.896   5.684  12.397  0.00  0.00    +0.000 A 
ENDBRANCH   3  14
BRANCH   1  20
ATOM     20  N   UNL     1      36.503   1.346  15.936  0.00  0.00    +0.000 N 
BRANCH  20  21
ATOM     21  C   UNL     1      36.057   0.819  17.196  0.00  0.00    +0.000 C 
BRANCH  21  23
ATOM     22  C   UNL     1      34.662  -1.180  17.584  0.00  0.00    +0.000 C 
ATOM     23  C   UNL     1      34.677   0.233  17.027  0.00  0.00    +0.000 C 
ENDBRANCH  21  23
ENDBRANCH  20  21
BRANCH  20  24
ATOM     24  C   UNL     1      36.639   0.477  14.804  0.00  0.00    +0.000 C 
BRANCH  24  25
ATOM     25  C   UNL     1      37.665  -0.560  14.987  0.00  0.00    +0.000 A 
ATOM     26  C   UNL     1      37.307  -1.876  14.998  0.00  0.00    +0.000 A 
ATOM     27  C   UNL     1      38.258  -2.853  15.167  0.00  0.00    +0.000 A 
ATOM     28  C   UNL     1      39.587  -2.501  15.328  0.00  0.00    +0.000 A 
ATOM     29  C   UNL     1      39.873  -1.143  15.306  0.00  0.00    +0.000 A 
ATOM     30  N   UNL     1      38.937  -0.206  15.140  0.00  0.00    +0.000 NA
ENDBRANCH  24  25
ENDBRANCH  20  24
ENDBRANCH   1  20
TORSDOF 7
ENDMDL
MODEL 2
REMARK VINA RESULT:      -8.1      1.302      2.629
REMARK  Name = 
REMARK  7 active torsions:
REMARK  status: ('A' for Active; 'I' for Inactive)
REMARK    1  A    between atoms: C_2  and  C_3
REMARK    2  A    between atoms: C_3  and  N_4
REMARK    3  A    between atoms: N_4  and  C_5
REMARK    4  A    between atoms: N_4  and  C_12
REMARK    5  A    between atoms: C_5  and  C_6
REMARK    6  A    between atoms: C_14  and  C_15
REMARK    7  A    between atoms: C_22  and  C_23
REMARK                            x       y       z     vdW  Elec       q    Type
REMARK                         _______ _______ _______ _____ _____    ______ ____
ROOT
ATOM      1  C   UNL     1      37.416   2.634  15.049  0.00  0.00    +0.000 A 
ATOM      2  C   UNL     1      36.537   3.397  14.284  0.00  0.00    +0.000 A 
ATOM      3  C   UNL     1      36.520   4.760  14.384  0.00  0.00    +0.000 A 
ATOM      4  C   UNL     1      37.403   5.340  15.267  0.00  0.00    +0.000 A 
ATOM      5  C   UNL     1      38.268   4.578  16.018  0.00  0.00    +0.000 A 
ATOM      6  N   UNL     1      38.244   3.251  15.883  0.00  0.00    +0.000 NA
ENDROOT
BRANCH   5   7
ATOM      7  C   UNL     1      39.212   5.209  16.966  0.00  0.00    +0.000 A 
ATOM      8  C   UNL     1      38.931   5.256  18.313  0.00  0.00    +0.000 A 
ATOM      9  C   UNL     1      39.786   5.836  19.229  0.00  0.00    +0.000 A 
ATOM     10  C   UNL     1      40.980   6.401  18.811  0.00  0.00    +0.000 A 
ATOM     11  O   UNL     1      41.843   6.986  19.737  0.00  0.00    +0.000 OA
ATOM     12  C   UNL     1      41.265   6.355  17.464  0.00  0.00    +0.000 A 
ATOM     13  C   UNL     1      40.396   5.768  16.542  0.00  0.00    +0.000 A 
ENDBRANCH   5   7
BRANCH   3  14
ATOM     14  C   UNL     1      35.599   5.565  13.585  0.00  0.00    +0.000 A 
ATOM     15  C   UNL     1      35.837   5.800  12.256  0.00  0.00    +0.000 A 
ATOM     16  C   UNL     1      34.986   6.547  11.506  0.00  0.00    +0.000 A 
ATOM     17  C   UNL     1      33.868   7.087  12.051  0.00  0.00    +0.000 A 
ATOM     18  C   UNL     1      33.591   6.876  13.382  0.00  0.00    +0.000 A 
ATOM     19  C   UNL     1      34.461   6.119  14.123  0.00  0.00    +0.000 A 
ENDBRANCH   3  14
BRANCH   1  20
ATOM     20  N   UNL     1      37.371   1.223  14.888  0.00  0.00    +0.000 N 
BRANCH  20  21
ATOM     21  C   UNL     1      38.445   0.517  14.248  0.00  0.00    +0.000 C 
BRANCH  21  23
ATOM     22  C   UNL     1      37.550   0.257  11.961  0.00  0.00    +0.000 C 
ATOM     23  C   UNL     1      37.869  -0.467  13.258  0.00  0.00    +0.000 C 
ENDBRANCH  21  23
ENDBRANCH  20  21
BRANCH  20  24
ATOM     24  C   UNL     1      36.231   0.505  15.378  0.00  0.00    +0.000 C 
BRANCH  24  25
ATOM     25  C   UNL     1      36.409  -0.003  16.747  0.00  0.00    +0.000 A 
ATOM     26  C   UNL     1      35.722   0.568  17.778  0.00  0.00    +0.000 A 
ATOM     27  C   UNL     1      35.880   0.101  19.061  0.00  0.00    +0.000 A 
ATOM     28  C   UNL     1      36.740  -0.955  19.308  0.00  0.00    +0.000 A 
ATOM     29  C   UNL     1      37.401  -1.484  18.209  0.00  0.00    +0.000 A 
ATOM     30  N   UNL     1      37.237  -1.018  16.968  0.00  0.00    +0.000 NA
ENDBRANCH  24  25
ENDBRANCH  20  24
ENDBRANCH   1  20
TORSDOF 7
ENDMDL
MODEL 3
REMARK VINA RESULT:      -8.0      2.370      5.459
REMARK  Name = 
REMARK  7 active torsions:
REMARK  status: ('A' for Active; 'I' for Inactive)
REMARK    1  A    between atoms: C_2  and  C_3
REMARK    2  A    between atoms: C_3  and  N_4
REMARK    3  A    between atoms: N_4  and  C_5
REMARK    4  A    between atoms: N_4  and  C_12
REMARK    5  A    between atoms: C_5  and  C_6
REMARK    6  A    between atoms: C_14  and  C_15
REMARK    7  A    between atoms: C_22  and  C_23
REMARK                            x       y       z     vdW  Elec       q    Type
REMARK                         _______ _______ _______ _____ _____    ______ ____
ROOT
ATOM      1  C   UNL     1      36.725   2.747  15.656  0.00  0.00    +0.000 A 
ATOM      2  C   UNL     1      37.725   3.336  16.427  0.00  0.00    +0.000 A 
ATOM      3  C   UNL     1      38.046   4.654  16.270  0.00  0.00    +0.000 A 
ATOM      4  C   UNL     1      37.344   5.369  15.326  0.00  0.00    +0.000 A 
ATOM      5  C   UNL     1      36.358   4.779  14.569  0.00  0.00    +0.000 A 
ATOM      6  N   UNL     1      36.083   3.488  14.760  0.00  0.00    +0.000 NA
ENDROOT
BRANCH   5   7
ATOM      7  C   UNL     1      35.610   5.553  13.555  0.00  0.00    +0.000 A 
ATOM      8  C   UNL     1      34.458   6.228  13.894  0.00  0.00    +0.000 A 
ATOM      9  C   UNL     1      33.732   6.961  12.978  0.00  0.00    +0.000 A 
ATOM     10  C   UNL     1      34.148   7.043  11.660  0.00  0.00    +0.000 A 
ATOM     11  O   UNL     1      33.414   7.784  10.734  0.00  0.00    +0.000 OA
ATOM     12  C   UNL     1      35.301   6.370  11.316  0.00  0.00    +0.000 A 
ATOM     13  C   UNL     1      36.031   5.630  12.248  0.00  0.00    +0.000 A 
ENDBRANCH   5   7
BRANCH   3  14
ATOM     14  C   UNL     1      39.094   5.277  17.075  0.00  0.00    +0.000 A 
ATOM     15  C   UNL     1      38.988   5.349  18.440  0.00  0.00    +0.000 A 
ATOM     16  C   UNL     1      39.958   5.926  19.196  0.00  0.00    +0.000 A 
ATOM     17  C   UNL     1      41.067   6.452  18.622  0.00  0.00    +0.000 A 
ATOM     18  C   UNL     1      41.214   6.401  17.255  0.00  0.00    +0.000 A 
ATOM     19  C   UNL     1      40.225   5.814  16.509  0.00  0.00    +0.000 A 
ENDBRANCH   3  14
BRANCH   1  20
ATOM     20  N   UNL     1      36.451   1.370  15.876  0.00  0.00    +0.000 N 
BRANCH  20  21
ATOM     21  C   UNL     1      36.023   0.897  17.163  0.00  0.00    +0.000 C 
BRANCH  21  23
ATOM     22  C   UNL     1      34.843  -1.210  17.677  0.00  0.00    +0.000 C 
ATOM     23  C   UNL     1      34.722   0.148  17.007  0.00  0.00    +0.000 C 
ENDBRANCH  21  23
ENDBRANCH  20  21
BRANCH  20  24
ATOM     24  C   UNL     1      36.608   0.449  14.789  0.00  0.00    +0.000 C 
BRANCH  24  25
ATOM     25  C   UNL     1      37.795  -0.409  14.920  0.00  0.00    +0.000 A 
ATOM     26  C   UNL     1      39.032   0.098  14.650  0.00  0.00    +0.000 A 
ATOM     27  C   UNL     1      40.149  -0.694  14.770  0.00  0.00    +0.000 A 
ATOM     28  C   UNL     1      40.018  -2.014  15.167  0.00  0.00    +0.000 A 
ATOM     29  C   UNL     1      38.728  -2.456  15.424  0.00  0.00    +0.000 A 
ATOM     30  N   UNL     1      37.653  -1.674  15.303  0.00  0.00    +0.000 NA
ENDBRANCH  24  25
ENDBRANCH  20  24
ENDBRANCH   1  20
TORSDOF 7
ENDMDL
MODEL 4
REMARK VINA RESULT:      -7.9      2.690      6.005
REMARK  Name = 
REMARK  7 active torsions:
REMARK  status: ('A' for Active; 'I' for Inactive)
REMARK    1  A    between atoms: C_2  and  C_3
REMARK    2  A    between atoms: C_3  and  N_4
REMARK    3  A    between atoms: N_4  and  C_5
REMARK    4  A    between atoms: N_4  and  C_12
REMARK    5  A    between atoms: C_5  and  C_6
REMARK    6  A    between atoms: C_14  and  C_15
REMARK    7  A    between atoms: C_22  and  C_23
REMARK                            x       y       z     vdW  Elec       q    Type
REMARK                         _______ _______ _______ _____ _____    ______ ____
ROOT
ATOM      1  C   UNL     1      37.149   2.610  14.901  0.00  0.00    +0.000 A 
ATOM      2  C   UNL     1      38.024   3.196  15.813  0.00  0.00    +0.000 A 
ATOM      3  C   UNL     1      38.156   4.553  15.886  0.00  0.00    +0.000 A 
ATOM      4  C   UNL     1      37.393   5.311  15.026  0.00  0.00    +0.000 A 
ATOM      5  C   UNL     1      36.531   4.724  14.128  0.00  0.00    +0.000 A 
ATOM      6  N   UNL     1      36.439   3.393  14.097  0.00  0.00    +0.000 NA
ENDROOT
BRANCH   5   7
ATOM      7  C   UNL     1      35.717   5.544  13.206  0.00  0.00    +0.000 A 
ATOM      8  C   UNL     1      34.597   6.207  13.657  0.00  0.00    +0.000 A 
ATOM      9  C   UNL     1      33.811   6.982  12.829  0.00  0.00    +0.000 A 
ATOM     10  C   UNL     1      34.131   7.120  11.489  0.00  0.00    +0.000 A 
ATOM     11  O   UNL     1      33.336   7.904  10.652  0.00  0.00    +0.000 OA
ATOM     12  C   UNL     1      35.251   6.459  11.034  0.00  0.00    +0.000 A 
ATOM     13  C   UNL     1      36.042   5.676  11.876  0.00  0.00    +0.000 A 
ENDBRANCH   5   7
BRANCH   3  14
ATOM     14  C   UNL     1      39.073   5.172  16.840  0.00  0.00    +0.000 A 
ATOM     15  C   UNL     1      40.237   5.763  16.420  0.00  0.00    +0.000 A 
ATOM     16  C   UNL     1      41.095   6.340  17.301  0.00  0.00    +0.000 A 
ATOM     17  C   UNL     1      40.827   6.352  18.629  0.00  0.00    +0.000 A 
ATOM     18  C   UNL     1      39.670   5.770  19.094  0.00  0.00    +0.000 A 
ATOM     19  C   UNL     1      38.816   5.193  18.190  0.00  0.00    +0.000 A 
ENDBRANCH   3  14
BRANCH   1  20
ATOM     20  N   UNL     1      37.069   1.191  14.886  0.00  0.00    +0.000 N 
BRANCH  20  21
ATOM     21  C   UNL     1      38.135   0.396  14.346  0.00  0.00    +0.000 C 
BRANCH  21  23
ATOM     22  C   UNL     1      37.361   0.283  12.004  0.00  0.00    +0.000 C 
ATOM     23  C   UNL     1      37.581  -0.515  13.277  0.00  0.00    +0.000 C 
ENDBRANCH  21  23
ENDBRANCH  20  21
BRANCH  20  24
ATOM     24  C   UNL     1      35.900   0.557  15.420  0.00  0.00    +0.000 C 
BRANCH  24  25
ATOM     25  C   UNL     1      36.118  -0.038  16.748  0.00  0.00    +0.000 A 
ATOM     26  C   UNL     1      35.957   0.723  17.868  0.00  0.00    +0.000 A 
ATOM     27  C   UNL     1      36.157   0.177  19.114  0.00  0.00    +0.000 A 
ATOM     28  C   UNL     1      36.523  -1.152  19.232  0.00  0.00    +0.000 A 
ATOM     29  C   UNL     1      36.667  -1.861  18.048  0.00  0.00    +0.000 A 
ATOM     30  N   UNL     1      36.468  -1.317  16.845  0.00  0.00    +0.000 NA
ENDBRANCH  24  25
ENDBRANCH  20  24
ENDBRANCH   1  20
TORSDOF 7
ENDMDL
MODEL 5
REMARK VINA RESULT:      -7.6      2.719      7.050
REMARK  Name = 
REMARK  7 active torsions:
REMARK  status: ('A' for Active; 'I' for Inactive)
REMARK    1  A    between atoms: C_2  and  C_3
REMARK    2  A    between atoms: C_3  and  N_4
REMARK    3  A    between atoms: N_4  and  C_5
REMARK    4  A    between atoms: N_4  and  C_12
REMARK    5  A    between atoms: C_5  and  C_6
REMARK    6  A    between atoms: C_14  and  C_15
REMARK    7  A    between atoms: C_22  and  C_23
REMARK                            x       y       z     vdW  Elec       q    Type
REMARK                         _______ _______ _______ _____ _____    ______ ____
ROOT
ATOM      1  C   UNL     1      37.948   4.789  16.041  0.00  0.00    +0.000 A 
ATOM      2  C   UNL     1      37.228   5.523  15.102  0.00  0.00    +0.000 A 
ATOM      3  C   UNL     1      36.160   4.974  14.450  0.00  0.00    +0.000 A 
ATOM      4  C   UNL     1      35.829   3.674  14.761  0.00  0.00    +0.000 A 
ATOM      5  C   UNL     1      36.546   2.956  15.691  0.00  0.00    +0.000 A 
ATOM      6  N   UNL     1      37.581   3.539  16.299  0.00  0.00    +0.000 NA
ENDROOT
BRANCH   5   7
ATOM      7  C   UNL     1      36.185   1.560  16.018  0.00  0.00    +0.000 A 
ATOM      8  C   UNL     1      35.475   1.266  17.160  0.00  0.00    +0.000 A 
ATOM      9  C   UNL     1      35.119  -0.024  17.500  0.00  0.00    +0.000 A 
ATOM     10  C   UNL     1      35.474  -1.086  16.684  0.00  0.00    +0.000 A 
ATOM     11  O   UNL     1      35.114  -2.389  17.029  0.00  0.00    +0.000 OA
ATOM     12  C   UNL     1      36.185  -0.795  15.540  0.00  0.00    +0.000 A 
ATOM     13  C   UNL     1      36.542   0.511  15.201  0.00  0.00    +0.000 A 
ENDBRANCH   5   7
BRANCH   3  14
ATOM     14  C   UNL     1      35.403   5.739  13.463  0.00  0.00    +0.000 A 
ATOM     15  C   UNL     1      35.832   5.839  12.165  0.00  0.00    +0.000 A 
ATOM     16  C   UNL     1      35.134   6.549  11.241  0.00  0.00    +0.000 A 
ATOM     17  C   UNL     1      33.985   7.185  11.574  0.00  0.00    +0.000 A 
ATOM     18  C   UNL     1      33.517   7.111  12.866  0.00  0.00    +0.000 A 
ATOM     19  C   UNL     1      34.235   6.390  13.785  0.00  0.00    +0.000 A 
ENDBRANCH   3  14
BRANCH   1  20
ATOM     20  N   UNL     1      39.046   5.430  16.675  0.00  0.00    +0.000 N 
BRANCH  20  21
ATOM     21  C   UNL     1      39.969   6.233  15.922  0.00  0.00    +0.000 C 
BRANCH  21  23
ATOM     22  C   UNL     1      41.995   7.481  16.579  0.00  0.00    +0.000 C 
ATOM     23  C   UNL     1      41.344   6.110  16.532  0.00  0.00    +0.000 C 
ENDBRANCH  21  23
ENDBRANCH  20  21
BRANCH  20  24
ATOM     24  C   UNL     1      39.225   5.265  18.087  0.00  0.00    +0.000 C 
BRANCH  24  25
ATOM     25  C   UNL     1      38.881   6.468  18.861  0.00  0.00    +0.000 A 
ATOM     26  C   UNL     1      39.612   6.798  19.964  0.00  0.00    +0.000 A 
ATOM     27  C   UNL     1      39.300   7.921  20.694  0.00  0.00    +0.000 A 
ATOM     28  C   UNL     1      38.238   8.720  20.308  0.00  0.00    +0.000 A 
ATOM     29  C   UNL     1      37.543   8.319  19.176  0.00  0.00    +0.000 A 
ATOM     30  N   UNL     1      37.859   7.226  18.477  0.00  0.00    +0.000 NA
ENDBRANCH  24  25
ENDBRANCH  20  24
ENDBRANCH   1  20
TORSDOF 7
ENDMDL
MODEL 6
REMARK VINA RESULT:      -7.4      2.636      7.335
REMARK  Name = 
REMARK  7 active torsions:
REMARK  status: ('A' for Active; 'I' for Inactive)
REMARK    1  A    between atoms: C_2  and  C_3
REMARK    2  A    between atoms: C_3  and  N_4
REMARK    3  A    between atoms: N_4  and  C_5
REMARK    4  A    between atoms: N_4  and  C_12
REMARK    5  A    between atoms: C_5  and  C_6
REMARK    6  A    between atoms: C_14  and  C_15
REMARK    7  A    between atoms: C_22  and  C_23
REMARK                            x       y       z     vdW  Elec       q    Type
REMARK                         _______ _______ _______ _____ _____    ______ ____
ROOT
ATOM      1  C   UNL     1      37.602   2.203  15.057  0.00  0.00    +0.000 A 
ATOM      2  C   UNL     1      36.602   1.332  15.483  0.00  0.00    +0.000 A 
ATOM      3  C   UNL     1      36.832  -0.012  15.571  0.00  0.00    +0.000 A 
ATOM      4  C   UNL     1      38.086  -0.463  15.223  0.00  0.00    +0.000 A 
ATOM      5  C   UNL     1      39.068   0.405  14.804  0.00  0.00    +0.000 A 
ATOM      6  N   UNL     1      38.791   1.708  14.736  0.00  0.00    +0.000 NA
ENDROOT
BRANCH   5   7
ATOM      7  C   UNL     1      40.411  -0.088  14.431  0.00  0.00    +0.000 A 
ATOM      8  C   UNL     1      41.311   0.737  13.793  0.00  0.00    +0.000 A 
ATOM      9  C   UNL     1      42.574   0.315  13.429  0.00  0.00    +0.000 A 
ATOM     10  C   UNL     1      42.984  -0.980  13.699  0.00  0.00    +0.000 A 
ATOM     11  O   UNL     1      44.260  -1.406  13.330  0.00  0.00    +0.000 OA
ATOM     12  C   UNL     1      42.087  -1.808  14.337  0.00  0.00    +0.000 A 
ATOM     13  C   UNL     1      40.811  -1.376  14.704  0.00  0.00    +0.000 A 
ENDBRANCH   5   7
BRANCH   3  14
ATOM     14  C   UNL     1      35.787  -0.930  16.015  0.00  0.00    +0.000 A 
ATOM     15  C   UNL     1      35.670  -2.184  15.474  0.00  0.00    +0.000 A 
ATOM     16  C   UNL     1      34.700  -3.044  15.881  0.00  0.00    +0.000 A 
ATOM     17  C   UNL     1      33.812  -2.687  16.841  0.00  0.00    +0.000 A 
ATOM     18  C   UNL     1      33.893  -1.438  17.411  0.00  0.00    +0.000 A 
ATOM     19  C   UNL     1      34.879  -0.584  16.987  0.00  0.00    +0.000 A 
ENDBRANCH   3  14
BRANCH   1  20
ATOM     20  N   UNL     1      37.284   3.586  14.991  0.00  0.00    +0.000 N 
BRANCH  20  21
ATOM     21  C   UNL     1      35.919   4.029  14.920  0.00  0.00    +0.000 C 
BRANCH  21  23
ATOM     22  C   UNL     1      34.733   5.971  13.961  0.00  0.00    +0.000 C 
ATOM     23  C   UNL     1      35.735   4.866  13.677  0.00  0.00    +0.000 C 
ENDBRANCH  21  23
ENDBRANCH  20  21
BRANCH  20  24
ATOM     24  C   UNL     1      38.350   4.544  14.997  0.00  0.00    +0.000 C 
BRANCH  24  25
ATOM     25  C   UNL     1      38.458   5.286  16.262  0.00  0.00    +0.000 A 
ATOM     26  C   UNL     1      38.875   4.646  17.392  0.00  0.00    +0.000 A 
ATOM     27  C   UNL     1      38.981   5.331  18.579  0.00  0.00    +0.000 A 
ATOM     28  C   UNL     1      38.661   6.676  18.629  0.00  0.00    +0.000 A 
ATOM     29  C   UNL     1      38.244   7.257  17.440  0.00  0.00    +0.000 A 
ATOM     30  N   UNL     1      38.147   6.578  16.294  0.00  0.00    +0.000 NA
ENDBRANCH  24  25
ENDBRANCH  20  24
ENDBRANCH   1  20
TORSDOF 7
ENDMDL
MODEL 7
REMARK VINA RESULT:      -7.3      1.674      2.322
REMARK  Name = 
REMARK  7 active torsions:
REMARK  status: ('A' for Active; 'I' for Inactive)
REMARK    1  A    between atoms: C_2  and  C_3
REMARK    2  A    between atoms: C_3  and  N_4
REMARK    3  A    between atoms: N_4  and  C_5
REMARK    4  A    between atoms: N_4  and  C_12
REMARK    5  A    between atoms: C_5  and  C_6
REMARK    6  A    between atoms: C_14  and  C_15
REMARK    7  A    between atoms: C_22  and  C_23
REMARK                            x       y       z     vdW  Elec       q    Type
REMARK                         _______ _______ _______ _____ _____    ______ ____
ROOT
ATOM      1  C   UNL     1      37.502   2.684  15.061  0.00  0.00    +0.000 A 
ATOM      2  C   UNL     1      36.616   3.435  14.293  0.00  0.00    +0.000 A 
ATOM      3  C   UNL     1      36.572   4.796  14.402  0.00  0.00    +0.000 A 
ATOM      4  C   UNL     1      37.435   5.387  15.298  0.00  0.00    +0.000 A 
ATOM      5  C   UNL     1      38.307   4.637  16.053  0.00  0.00    +0.000 A 
ATOM      6  N   UNL     1      38.310   3.311  15.908  0.00  0.00    +0.000 NA
ENDROOT
BRANCH   5   7
ATOM      7  C   UNL     1      39.229   5.280  17.014  0.00  0.00    +0.000 A 
ATOM      8  C   UNL     1      40.402   5.859  16.584  0.00  0.00    +0.000 A 
ATOM      9  C   UNL     1      41.288   6.469  17.450  0.00  0.00    +0.000 A 
ATOM     10  C   UNL     1      41.019   6.517  18.807  0.00  0.00    +0.000 A 
ATOM     11  O   UNL     1      41.915   7.133  19.681  0.00  0.00    +0.000 OA
ATOM     12  C   UNL     1      39.846   5.939  19.241  0.00  0.00    +0.000 A 
ATOM     13  C   UNL     1      38.953   5.324  18.361  0.00  0.00    +0.000 A 
ENDBRANCH   5   7
BRANCH   3  14
ATOM     14  C   UNL     1      35.644   5.588  13.600  0.00  0.00    +0.000 A 
ATOM     15  C   UNL     1      35.878   5.817  12.269  0.00  0.00    +0.000 A 
ATOM     16  C   UNL     1      35.020   6.553  11.515  0.00  0.00    +0.000 A 
ATOM     17  C   UNL     1      33.899   7.087  12.058  0.00  0.00    +0.000 A 
ATOM     18  C   UNL     1      33.625   6.882  13.391  0.00  0.00    +0.000 A 
ATOM     19  C   UNL     1      34.503   6.137  14.135  0.00  0.00    +0.000 A 
ENDBRANCH   3  14
BRANCH   1  20
ATOM     20  N   UNL     1      37.487   1.273  14.891  0.00  0.00    +0.000 N 
BRANCH  20  21
ATOM     21  C   UNL     1      36.248   0.552  14.802  0.00  0.00    +0.000 C 
BRANCH  21  23
ATOM     22  C   UNL     1      34.908   0.755  16.866  0.00  0.00    +0.000 C 
ATOM     23  C   UNL     1      35.947  -0.081  16.139  0.00  0.00    +0.000 C 
ENDBRANCH  21  23
ENDBRANCH  20  21
BRANCH  20  24
ATOM     24  C   UNL     1      38.733   0.571  14.808  0.00  0.00    +0.000 C 
BRANCH  24  25
ATOM     25  C   UNL     1      39.080   0.161  13.439  0.00  0.00    +0.000 A 
ATOM     26  C   UNL     1      39.419   1.103  12.513  0.00  0.00    +0.000 A 
ATOM     27  C   UNL     1      39.746   0.731  11.231  0.00  0.00    +0.000 A 
ATOM     28  C   UNL     1      39.730  -0.606  10.877  0.00  0.00    +0.000 A 
ATOM     29  C   UNL     1      39.375  -1.505  11.873  0.00  0.00    +0.000 A 
ATOM     30  N   UNL     1      39.061  -1.128  13.114  0.00  0.00    +0.000 NA
ENDBRANCH  24  25
ENDBRANCH  20  24
ENDBRANCH   1  20
TORSDOF 7
ENDMDL
MODEL 8
REMARK VINA RESULT:      -7.2      2.250      7.125
REMARK  Name = 
REMARK  7 active torsions:
REMARK  status: ('A' for Active; 'I' for Inactive)
REMARK    1  A    between atoms: C_2  and  C_3
REMARK    2  A    between atoms: C_3  and  N_4
REMARK    3  A    between atoms: N_4  and  C_5
REMARK    4  A    between atoms: N_4  and  C_12
REMARK    5  A    between atoms: C_5  and  C_6
REMARK    6  A    between atoms: C_14  and  C_15
REMARK    7  A    between atoms: C_22  and  C_23
REMARK                            x       y       z     vdW  Elec       q    Type
REMARK                         _______ _______ _______ _____ _____    ______ ____
ROOT
ATOM      1  C   UNL     1      36.897   5.637  14.847  0.00  0.00    +0.000 A 
ATOM      2  C   UNL     1      36.407   4.337  14.943  0.00  0.00    +0.000 A 
ATOM      3  C   UNL     1      36.895   3.469  15.879  0.00  0.00    +0.000 A 
ATOM      4  C   UNL     1      37.885   3.933  16.716  0.00  0.00    +0.000 A 
ATOM      5  C   UNL     1      38.363   5.219  16.614  0.00  0.00    +0.000 A 
ATOM      6  N   UNL     1      37.852   6.027  15.683  0.00  0.00    +0.000 NA
ENDROOT
BRANCH   5   7
ATOM      7  C   UNL     1      39.428   5.710  17.516  0.00  0.00    +0.000 A 
ATOM      8  C   UNL     1      39.197   5.849  18.866  0.00  0.00    +0.000 A 
ATOM      9  C   UNL     1      40.164   6.303  19.741  0.00  0.00    +0.000 A 
ATOM     10  C   UNL     1      41.424   6.640  19.276  0.00  0.00    +0.000 A 
ATOM     11  O   UNL     1      42.401   7.098  20.161  0.00  0.00    +0.000 OA
ATOM     12  C   UNL     1      41.660   6.501  17.926  0.00  0.00    +0.000 A 
ATOM     13  C   UNL     1      40.678   6.041  17.046  0.00  0.00    +0.000 A 
ENDBRANCH   5   7
BRANCH   3  14
ATOM     14  C   UNL     1      36.386   2.104  15.982  0.00  0.00    +0.000 A 
ATOM     15  C   UNL     1      36.894   1.099  15.201  0.00  0.00    +0.000 A 
ATOM     16  C   UNL     1      36.426  -0.173  15.291  0.00  0.00    +0.000 A 
ATOM     17  C   UNL     1      35.435  -0.490  16.160  0.00  0.00    +0.000 A 
ATOM     18  C   UNL     1      34.896   0.488  16.963  0.00  0.00    +0.000 A 
ATOM     19  C   UNL     1      35.382   1.766  16.858  0.00  0.00    +0.000 A 
ENDBRANCH   3  14
BRANCH   1  20
ATOM     20  N   UNL     1      36.339   6.478  13.847  0.00  0.00    +0.000 N 
BRANCH  20  21
ATOM     21  C   UNL     1      35.280   6.012  12.995  0.00  0.00    +0.000 C 
BRANCH  21  23
ATOM     22  C   UNL     1      34.630   6.879  10.777  0.00  0.00    +0.000 C 
ATOM     23  C   UNL     1      35.709   6.146  11.555  0.00  0.00    +0.000 C 
ENDBRANCH  21  23
ENDBRANCH  20  21
BRANCH  20  24
ATOM     24  C   UNL     1      36.848   7.809  13.696  0.00  0.00    +0.000 C 
BRANCH  24  25
ATOM     25  C   UNL     1      35.846   8.850  13.970  0.00  0.00    +0.000 A 
ATOM     26  C   UNL     1      35.513   9.745  12.996  0.00  0.00    +0.000 A 
ATOM     27  C   UNL     1      34.577  10.721  13.241  0.00  0.00    +0.000 A 
ATOM     28  C   UNL     1      33.969  10.797  14.482  0.00  0.00    +0.000 A 
ATOM     29  C   UNL     1      34.359   9.851  15.419  0.00  0.00    +0.000 A 
ATOM     30  N   UNL     1      35.270   8.908  15.166  0.00  0.00    +0.000 NA
ENDBRANCH  24  25
ENDBRANCH  20  24
ENDBRANCH   1  20
TORSDOF 7
ENDMDL
MODEL 9
REMARK VINA RESULT:      -7.2      2.751      5.753
REMARK  Name = 
REMARK  7 active torsions:
REMARK  status: ('A' for Active; 'I' for Inactive)
REMARK    1  A    between atoms: C_2  and  C_3
REMARK    2  A    between atoms: C_3  and  N_4
REMARK    3  A    between atoms: N_4  and  C_5
REMARK    4  A    between atoms: N_4  and  C_12
REMARK    5  A    between atoms: C_5  and  C_6
REMARK    6  A    between atoms: C_14  and  C_15
REMARK    7  A    between atoms: C_22  and  C_23
REMARK                            x       y       z     vdW  Elec       q    Type
REMARK                         _______ _______ _______ _____ _____    ______ ____
ROOT
ATOM      1  C   UNL     1      37.049   2.664  15.218  0.00  0.00    +0.000 A 
ATOM      2  C   UNL     1      37.970   3.263  16.075  0.00  0.00    +0.000 A 
ATOM      3  C   UNL     1      38.150   4.617  16.075  0.00  0.00    +0.000 A 
ATOM      4  C   UNL     1      37.388   5.357  15.199  0.00  0.00    +0.000 A 
ATOM      5  C   UNL     1      36.480   4.757  14.357  0.00  0.00    +0.000 A 
ATOM      6  N   UNL     1      36.342   3.431  14.396  0.00  0.00    +0.000 NA
ENDROOT
BRANCH   5   7
ATOM      7  C   UNL     1      35.666   5.559  13.419  0.00  0.00    +0.000 A 
ATOM      8  C   UNL     1      36.013   5.652  12.089  0.00  0.00    +0.000 A 
ATOM      9  C   UNL     1      35.279   6.390  11.182  0.00  0.00    +0.000 A 
ATOM     10  C   UNL     1      34.147   7.075  11.590  0.00  0.00    +0.000 A 
ATOM     11  O   UNL     1      33.406   7.820  10.673  0.00  0.00    +0.000 OA
ATOM     12  C   UNL     1      33.796   6.983  12.919  0.00  0.00    +0.000 A 
ATOM     13  C   UNL     1      34.542   6.235  13.832  0.00  0.00    +0.000 A 
ENDBRANCH   5   7
BRANCH   3  14
ATOM     14  C   UNL     1      39.116   5.250  16.969  0.00  0.00    +0.000 A 
ATOM     15  C   UNL     1      38.887   5.323  18.319  0.00  0.00    +0.000 A 
ATOM     16  C   UNL     1      39.780   5.910  19.158  0.00  0.00    +0.000 A 
ATOM     17  C   UNL     1      40.931   6.445  18.685  0.00  0.00    +0.000 A 
ATOM     18  C   UNL     1      41.201   6.394  17.337  0.00  0.00    +0.000 A 
ATOM     19  C   UNL     1      40.289   5.797  16.506  0.00  0.00    +0.000 A 
ENDBRANCH   3  14
BRANCH   1  20
ATOM     20  N   UNL     1      36.920   1.250  15.277  0.00  0.00    +0.000 N 
BRANCH  20  21
ATOM     21  C   UNL     1      35.630   0.627  15.387  0.00  0.00    +0.000 C 
BRANCH  21  23
ATOM     22  C   UNL     1      34.674  -0.698  17.237  0.00  0.00    +0.000 C 
ATOM     23  C   UNL     1      35.180   0.674  16.826  0.00  0.00    +0.000 C 
ENDBRANCH  21  23
ENDBRANCH  20  21
BRANCH  20  24
ATOM     24  C   UNL     1      38.104   0.443  15.224  0.00  0.00    +0.000 C 
BRANCH  24  25
ATOM     25  C   UNL     1      38.723   0.406  13.891  0.00  0.00    +0.000 A 
ATOM     26  C   UNL     1      39.890   1.075  13.665  0.00  0.00    +0.000 A 
ATOM     27  C   UNL     1      40.478   1.046  12.423  0.00  0.00    +0.000 A 
ATOM     28  C   UNL     1      39.883   0.335  11.395  0.00  0.00    +0.000 A 
ATOM     29  C   UNL     1      38.698  -0.320  11.703  0.00  0.00    +0.000 A 
ATOM     30  N   UNL     1      38.140  -0.283  12.915  0.00  0.00    +0.000 NA
ENDBRANCH  24  25
ENDBRANCH  20  24
ENDBRANCH   1  20
TORSDOF 7
ENDMDL
MODEL 10
REMARK VINA RESULT:      -7.2      3.596      6.875
REMARK  Name = 
REMARK  7 active torsions:
REMARK  status: ('A' for Active; 'I' for Inactive)
REMARK    1  A    between atoms: C_2  and  C_3
REMARK    2  A    between atoms: C_3  and  N_4
REMARK    3  A    between atoms: N_4  and  C_5
REMARK    4  A    between atoms: N_4  and  C_12
REMARK    5  A    between atoms: C_5  and  C_6
REMARK    6  A    between atoms: C_14  and  C_15
REMARK    7  A    between atoms: C_22  and  C_23
REMARK                            x       y       z     vdW  Elec       q    Type
REMARK                         _______ _______ _______ _____ _____    ______ ____
ROOT
ATOM      1  C   UNL     1      38.223  -1.367  16.327  0.00  0.00    +0.000 A 
ATOM      2  C   UNL     1      39.421  -1.528  15.634  0.00  0.00    +0.000 A 
ATOM      3  C   UNL     1      39.832  -0.602  14.717  0.00  0.00    +0.000 A 
ATOM      4  C   UNL     1      39.017   0.488  14.510  0.00  0.00    +0.000 A 
ATOM      5  C   UNL     1      37.835   0.639  15.199  0.00  0.00    +0.000 A 
ATOM      6  N   UNL     1      37.480  -0.294  16.084  0.00  0.00    +0.000 NA
ENDROOT
BRANCH   5   7
ATOM      7  C   UNL     1      36.964   1.812  14.969  0.00  0.00    +0.000 A 
ATOM      8  C   UNL     1      35.629   1.773  15.302  0.00  0.00    +0.000 A 
ATOM      9  C   UNL     1      34.784   2.847  15.104  0.00  0.00    +0.000 A 
ATOM     10  C   UNL     1      35.264   4.022  14.552  0.00  0.00    +0.000 A 
ATOM     11  O   UNL     1      34.409   5.106  14.352  0.00  0.00    +0.000 OA
ATOM     12  C   UNL     1      36.600   4.066  14.217  0.00  0.00    +0.000 A 
ATOM     13  C   UNL     1      37.450   2.977  14.420  0.00  0.00    +0.000 A 
ENDBRANCH   5   7
BRANCH   3  14
ATOM     14  C   UNL     1      41.086  -0.767  13.988  0.00  0.00    +0.000 A 
ATOM     15  C   UNL     1      41.309  -0.108  12.807  0.00  0.00    +0.000 A 
ATOM     16  C   UNL     1      42.473  -0.256  12.122  0.00  0.00    +0.000 A 
ATOM     17  C   UNL     1      43.456  -1.065  12.586  0.00  0.00    +0.000 A 
ATOM     18  C   UNL     1      43.274  -1.746  13.768  0.00  0.00    +0.000 A 
ATOM     19  C   UNL     1      42.093  -1.583  14.445  0.00  0.00    +0.000 A 
ENDBRANCH   3  14
BRANCH   1  20
ATOM     20  N   UNL     1      37.865  -2.374  17.263  0.00  0.00    +0.000 N 
BRANCH  20  21
ATOM     21  C   UNL     1      38.864  -3.206  17.873  0.00  0.00    +0.000 C 
BRANCH  21  23
ATOM     22  C   UNL     1      38.997  -4.677  19.851  0.00  0.00    +0.000 C 
ATOM     23  C   UNL     1      38.591  -3.301  19.354  0.00  0.00    +0.000 C 
ENDBRANCH  21  23
ENDBRANCH  20  21
BRANCH  20  24
ATOM     24  C   UNL     1      36.482  -2.552  17.595  0.00  0.00    +0.000 C 
BRANCH  24  25
ATOM     25  C   UNL     1      35.766  -3.426  16.653  0.00  0.00    +0.000 A 
ATOM     26  C   UNL     1      36.241  -4.678  16.393  0.00  0.00    +0.000 A 
ATOM     27  C   UNL     1      35.579  -5.503  15.516  0.00  0.00    +0.000 A 
ATOM     28  C   UNL     1      34.425  -5.063  14.892  0.00  0.00    +0.000 A 
ATOM     29  C   UNL     1      34.004  -3.779  15.208  0.00  0.00    +0.000 A 
ATOM     30  N   UNL     1      34.658  -2.989  16.064  0.00  0.00    +0.000 NA
ENDBRANCH  24  25
ENDBRANCH  20  24
ENDBRANCH   1  20
TORSDOF 7
ENDMDL
