MODEL 1
REMARK VINA RESULT:      -5.8      0.000      0.000
REMARK  Name = 
REMARK  4 active torsions:
REMARK  status: ('A' for Active; 'I' for Inactive)
REMARK    1  A    between atoms: C_6  and  C_7
REMARK    2  A    between atoms: C_10  and  C_11
REMARK    3  A    between atoms: C_14  and  C_15
REMARK    4  A    between atoms: C_15  and  C_16
REMARK                            x       y       z     vdW  Elec       q    Type
REMARK                         _______ _______ _______ _____ _____    ______ ____
ROOT
ATOM      1  C   UNL     1      29.044  22.924  26.905  0.00  0.00    +0.000 C 
ATOM      2  C   UNL     1      28.504  23.201  25.526  0.00  0.00    +0.000 A 
ATOM      3  S   UNL     1      26.987  22.829  24.863  0.00  0.00    +0.000 S 
ATOM      4  C   UNL     1      27.197  23.480  23.310  0.00  0.00    +0.000 A 
ATOM      5  N   UNL     1      26.260  23.496  22.207  0.00  0.00    +0.000 NA
ATOM      6  C   UNL     1      28.478  23.985  23.346  0.00  0.00    +0.000 A 
ATOM      7  C   UNL     1      29.160  23.841  24.498  0.00  0.00    +0.000 A 
ENDROOT
BRANCH   7   8
ATOM      8  C   UNL     1      30.570  24.311  24.679  0.00  0.00    +0.000 A 
ATOM      9  C   UNL     1      30.827  25.620  25.015  0.00  0.00    +0.000 A 
ATOM     10  C   UNL     1      32.147  26.071  25.158  0.00  0.00    +0.000 A 
ATOM     11  C   UNL     1      33.224  25.237  24.972  0.00  0.00    +0.000 A 
ATOM     12  C   UNL     1      32.952  23.931  24.635  0.00  0.00    +0.000 A 
ATOM     13  C   UNL     1      31.649  23.491  24.495  0.00  0.00    +0.000 A 
BRANCH  11  14
ATOM     14  C   UNL     1      34.634  25.754  25.157  0.00  0.00    +0.000 C 
BRANCH  14  15
ATOM     15  C   UNL     1      35.623  24.626  24.882  0.00  0.00    +0.000 C 
ATOM     16  C   UNL     1      36.753  25.309  24.092  0.00  0.00    +0.000 C 
ATOM     17  C   UNL     1      36.270  24.299  26.226  0.00  0.00    +0.000 C 
ENDBRANCH  14  15
ENDBRANCH  11  14
ENDBRANCH   7   8
BRANCH   6  18
ATOM     18  C   UNL     1      29.039  24.650  22.129  0.00  0.00    +0.000 C 
ATOM     19  N   UNL     1      28.915  26.059  21.930  0.00  0.00    +0.000 NA
ATOM     20  O   UNL     1      29.638  24.014  21.237  0.00  0.00    +0.000 OA
ENDBRANCH   6  18
TORSDOF 4
ENDMDL
MODEL 2
REMARK VINA RESULT:      -5.7     21.392     22.901
REMARK  Name = 
REMARK  4 active torsions:
REMARK  status: ('A' for Active; 'I' for Inactive)
REMARK    1  A    between atoms: C_6  and  C_7
REMARK    2  A    between atoms: C_10  and  C_11
REMARK    3  A    between atoms: C_14  and  C_15
REMARK    4  A    between atoms: C_15  and  C_16
REMARK                            x       y       z     vdW  Elec       q    Type
REMARK                         _______ _______ _______ _____ _____    ______ ____
ROOT
ATOM      1  C   UNL     1      35.095   2.948  38.241  0.00  0.00    +0.000 C 
ATOM      2  C   UNL     1      34.496   2.496  36.933  0.00  0.00    +0.000 A 
ATOM      3  S   UNL     1      33.907   0.970  36.484  0.00  0.00    +0.000 S 
ATOM      4  C   UNL     1      33.421   1.319  34.896  0.00  0.00    +0.000 A 
ATOM      5  N   UNL     1      32.823   0.430  33.923  0.00  0.00    +0.000 NA
ATOM      6  C   UNL     1      33.737   2.651  34.750  0.00  0.00    +0.000 A 
ATOM      7  C   UNL     1      34.297   3.266  35.809  0.00  0.00    +0.000 A 
ENDROOT
BRANCH   7   8
ATOM      8  C   UNL     1      34.723   4.701  35.791  0.00  0.00    +0.000 A 
ATOM      9  C   UNL     1      33.864   5.684  36.225  0.00  0.00    +0.000 A 
ATOM     10  C   UNL     1      34.249   7.032  36.184  0.00  0.00    +0.000 A 
ATOM     11  C   UNL     1      35.482   7.423  35.716  0.00  0.00    +0.000 A 
ATOM     12  C   UNL     1      36.330   6.428  35.285  0.00  0.00    +0.000 A 
ATOM     13  C   UNL     1      35.946   5.102  35.328  0.00  0.00    +0.000 A 
BRANCH  11  14
ATOM     14  C   UNL     1      35.870   8.885  35.707  0.00  0.00    +0.000 C 
BRANCH  14  15
ATOM     15  C   UNL     1      34.688   9.723  36.183  0.00  0.00    +0.000 C 
ATOM     16  C   UNL     1      35.211  10.411  37.457  0.00  0.00    +0.000 C 
ATOM     17  C   UNL     1      34.556  10.868  35.183  0.00  0.00    +0.000 C 
ENDBRANCH  14  15
ENDBRANCH  11  14
ENDBRANCH   7   8
BRANCH   6  18
ATOM     18  C   UNL     1      33.455   3.334  33.450  0.00  0.00    +0.000 C 
ATOM     19  N   UNL     1      32.554   4.440  33.374  0.00  0.00    +0.000 NA
ATOM     20  O   UNL     1      33.988   2.977  32.379  0.00  0.00    +0.000 OA
ENDBRANCH   6  18
TORSDOF 4
ENDMDL
MODEL 3
REMARK VINA RESULT:      -5.5      4.351      6.379
REMARK  Name = 
REMARK  4 active torsions:
REMARK  status: ('A' for Active; 'I' for Inactive)
REMARK    1  A    between atoms: C_6  and  C_7
REMARK    2  A    between atoms: C_10  and  C_11
REMARK    3  A    between atoms: C_14  and  C_15
REMARK    4  A    between atoms: C_15  and  C_16
REMARK                            x       y       z     vdW  Elec       q    Type
REMARK                         _______ _______ _______ _____ _____    ______ ____
ROOT
ATOM      1  C   UNL     1      26.386  28.066  23.629  0.00  0.00    +0.000 C 
ATOM      2  C   UNL     1      27.277  27.047  22.966  0.00  0.00    +0.000 A 
ATOM      3  S   UNL     1      28.034  27.096  21.449  0.00  0.00    +0.000 S 
ATOM      4  C   UNL     1      28.832  25.598  21.491  0.00  0.00    +0.000 A 
ATOM      5  N   UNL     1      29.674  24.999  20.478  0.00  0.00    +0.000 NA
ATOM      6  C   UNL     1      28.480  25.082  22.718  0.00  0.00    +0.000 A 
ATOM      7  C   UNL     1      27.671  25.834  23.488  0.00  0.00    +0.000 A 
ENDROOT
BRANCH   7   8
ATOM      8  C   UNL     1      27.179  25.396  24.832  0.00  0.00    +0.000 A 
ATOM      9  C   UNL     1      25.995  24.706  24.947  0.00  0.00    +0.000 A 
ATOM     10  C   UNL     1      25.518  24.317  26.207  0.00  0.00    +0.000 A 
ATOM     11  C   UNL     1      26.202  24.605  27.364  0.00  0.00    +0.000 A 
ATOM     12  C   UNL     1      27.385  25.296  27.234  0.00  0.00    +0.000 A 
ATOM     13  C   UNL     1      27.852  25.677  25.990  0.00  0.00    +0.000 A 
BRANCH  11  14
ATOM     14  C   UNL     1      25.667  24.150  28.705  0.00  0.00    +0.000 C 
BRANCH  14  15
ATOM     15  C   UNL     1      26.831  23.716  29.589  0.00  0.00    +0.000 C 
ATOM     16  C   UNL     1      26.613  24.497  30.897  0.00  0.00    +0.000 C 
ATOM     17  C   UNL     1      26.543  22.269  29.981  0.00  0.00    +0.000 C 
ENDBRANCH  14  15
ENDBRANCH  11  14
ENDBRANCH   7   8
BRANCH   6  18
ATOM     18  C   UNL     1      28.997  23.739  23.126  0.00  0.00    +0.000 C 
ATOM     19  N   UNL     1      30.320  23.580  23.642  0.00  0.00    +0.000 NA
ATOM     20  O   UNL     1      28.306  22.703  23.038  0.00  0.00    +0.000 OA
ENDBRANCH   6  18
TORSDOF 4
ENDMDL
MODEL 4
REMARK VINA RESULT:      -5.5      2.073      2.739
REMARK  Name = 
REMARK  4 active torsions:
REMARK  status: ('A' for Active; 'I' for Inactive)
REMARK    1  A    between atoms: C_6  and  C_7
REMARK    2  A    between atoms: C_10  and  C_11
REMARK    3  A    between atoms: C_14  and  C_15
REMARK    4  A    between atoms: C_15  and  C_16
REMARK                            x       y       z     vdW  Elec       q    Type
REMARK                         _______ _______ _______ _____ _____    ______ ____
ROOT
ATOM      1  C   UNL     1      29.428  24.943  21.131  0.00  0.00    +0.000 C 
ATOM      2  C   UNL     1      28.457  24.437  22.167  0.00  0.00    +0.000 A 
ATOM      3  S   UNL     1      26.813  24.048  22.009  0.00  0.00    +0.000 S 
ATOM      4  C   UNL     1      26.491  23.565  23.604  0.00  0.00    +0.000 A 
ATOM      5  N   UNL     1      25.240  23.105  24.169  0.00  0.00    +0.000 NA
ATOM      6  C   UNL     1      27.703  23.724  24.238  0.00  0.00    +0.000 A 
ATOM      7  C   UNL     1      28.728  24.178  23.492  0.00  0.00    +0.000 A 
ENDROOT
BRANCH   7   8
ATOM      8  C   UNL     1      30.096  24.428  24.046  0.00  0.00    +0.000 A 
ATOM      9  C   UNL     1      30.469  25.695  24.428  0.00  0.00    +0.000 A 
ATOM     10  C   UNL     1      31.758  25.939  24.921  0.00  0.00    +0.000 A 
ATOM     11  C   UNL     1      32.691  24.936  25.043  0.00  0.00    +0.000 A 
ATOM     12  C   UNL     1      32.305  23.673  24.657  0.00  0.00    +0.000 A 
ATOM     13  C   UNL     1      31.032  23.438  24.172  0.00  0.00    +0.000 A 
BRANCH  11  14
ATOM     14  C   UNL     1      34.067  25.232  25.601  0.00  0.00    +0.000 C 
BRANCH  14  15
ATOM     15  C   UNL     1      35.072  25.291  24.456  0.00  0.00    +0.000 C 
ATOM     16  C   UNL     1      35.955  26.503  24.801  0.00  0.00    +0.000 C 
ATOM     17  C   UNL     1      36.003  24.098  24.653  0.00  0.00    +0.000 C 
ENDBRANCH  14  15
ENDBRANCH  11  14
ENDBRANCH   7   8
BRANCH   6  18
ATOM     18  C   UNL     1      27.819  23.396  25.693  0.00  0.00    +0.000 C 
ATOM     19  N   UNL     1      27.583  24.386  26.697  0.00  0.00    +0.000 NA
ATOM     20  O   UNL     1      28.123  22.256  26.098  0.00  0.00    +0.000 OA
ENDBRANCH   6  18
TORSDOF 4
ENDMDL
MODEL 5
REMARK VINA RESULT:      -5.4      3.200      5.311
REMARK  Name = 
REMARK  4 active torsions:
REMARK  status: ('A' for Active; 'I' for Inactive)
REMARK    1  A    between atoms: C_6  and  C_7
REMARK    2  A    between atoms: C_10  and  C_11
REMARK    3  A    between atoms: C_14  and  C_15
REMARK    4  A    between atoms: C_15  and  C_16
REMARK                            x       y       z     vdW  Elec       q    Type
REMARK                         _______ _______ _______ _____ _____    ______ ____
ROOT
ATOM      1  C   UNL     1      26.202  24.104  23.715  0.00  0.00    +0.000 C 
ATOM      2  C   UNL     1      27.472  23.721  24.430  0.00  0.00    +0.000 A 
ATOM      3  S   UNL     1      27.697  22.690  25.759  0.00  0.00    +0.000 S 
ATOM      4  C   UNL     1      29.383  22.806  25.914  0.00  0.00    +0.000 A 
ATOM      5  N   UNL     1      30.242  22.161  26.884  0.00  0.00    +0.000 NA
ATOM      6  C   UNL     1      29.740  23.667  24.901  0.00  0.00    +0.000 A 
ATOM      7  C   UNL     1      28.747  24.145  24.126  0.00  0.00    +0.000 A 
ENDROOT
BRANCH   7   8
ATOM      8  C   UNL     1      28.975  25.111  23.007  0.00  0.00    +0.000 A 
ATOM      9  C   UNL     1      28.907  26.466  23.234  0.00  0.00    +0.000 A 
ATOM     10  C   UNL     1      29.092  27.374  22.182  0.00  0.00    +0.000 A 
ATOM     11  C   UNL     1      29.347  26.955  20.897  0.00  0.00    +0.000 A 
ATOM     12  C   UNL     1      29.412  25.597  20.684  0.00  0.00    +0.000 A 
ATOM     13  C   UNL     1      29.229  24.706  21.724  0.00  0.00    +0.000 A 
BRANCH  11  14
ATOM     14  C   UNL     1      29.564  27.965  19.790  0.00  0.00    +0.000 C 
BRANCH  14  15
ATOM     15  C   UNL     1      30.570  27.406  18.790  0.00  0.00    +0.000 C 
ATOM     16  C   UNL     1      29.779  27.333  17.472  0.00  0.00    +0.000 C 
ATOM     17  C   UNL     1      31.581  28.523  18.543  0.00  0.00    +0.000 C 
ENDBRANCH  14  15
ENDBRANCH  11  14
ENDBRANCH   7   8
BRANCH   6  18
ATOM     18  C   UNL     1      31.180  24.026  24.716  0.00  0.00    +0.000 C 
ATOM     19  N   UNL     1      31.730  25.209  25.300  0.00  0.00    +0.000 NA
ATOM     20  O   UNL     1      31.964  23.319  24.050  0.00  0.00    +0.000 OA
ENDBRANCH   6  18
TORSDOF 4
ENDMDL
MODEL 6
REMARK VINA RESULT:      -5.3     20.676     22.993
REMARK  Name = 
REMARK  4 active torsions:
REMARK  status: ('A' for Active; 'I' for Inactive)
REMARK    1  A    between atoms: C_6  and  C_7
REMARK    2  A    between atoms: C_10  and  C_11
REMARK    3  A    between atoms: C_14  and  C_15
REMARK    4  A    between atoms: C_15  and  C_16
REMARK                            x       y       z     vdW  Elec       q    Type
REMARK                         _______ _______ _______ _____ _____    ______ ____
ROOT
ATOM      1  C   UNL     1      27.946   1.598  16.235  0.00  0.00    +0.000 C 
ATOM      2  C   UNL     1      28.404   3.032  16.315  0.00  0.00    +0.000 A 
ATOM      3  S   UNL     1      29.930   3.699  15.995  0.00  0.00    +0.000 S 
ATOM      4  C   UNL     1      29.589   5.332  16.311  0.00  0.00    +0.000 A 
ATOM      5  N   UNL     1      30.481   6.468  16.233  0.00  0.00    +0.000 NA
ATOM      6  C   UNL     1      28.259   5.317  16.666  0.00  0.00    +0.000 A 
ATOM      7  C   UNL     1      27.639   4.121  16.669  0.00  0.00    +0.000 A 
ENDROOT
BRANCH   7   8
ATOM      8  C   UNL     1      26.206   3.943  17.061  0.00  0.00    +0.000 A 
ATOM      9  C   UNL     1      25.862   3.789  18.384  0.00  0.00    +0.000 A 
ATOM     10  C   UNL     1      24.524   3.593  18.753  0.00  0.00    +0.000 A 
ATOM     11  C   UNL     1      23.512   3.548  17.822  0.00  0.00    +0.000 A 
ATOM     12  C   UNL     1      23.871   3.703  16.502  0.00  0.00    +0.000 A 
ATOM     13  C   UNL     1      25.192   3.895  16.144  0.00  0.00    +0.000 A 
BRANCH  11  14
ATOM     14  C   UNL     1      22.076   3.357  18.259  0.00  0.00    +0.000 C 
BRANCH  14  15
ATOM     15  C   UNL     1      21.404   2.337  17.347  0.00  0.00    +0.000 C 
ATOM     16  C   UNL     1      21.906   0.982  17.876  0.00  0.00    +0.000 C 
ATOM     17  C   UNL     1      19.925   2.346  17.724  0.00  0.00    +0.000 C 
ENDBRANCH  14  15
ENDBRANCH  11  14
ENDBRANCH   7   8
BRANCH   6  18
ATOM     18  C   UNL     1      27.582   6.601  17.029  0.00  0.00    +0.000 C 
ATOM     19  N   UNL     1      27.622   7.108  18.364  0.00  0.00    +0.000 NA
ATOM     20  O   UNL     1      26.956   7.284  16.194  0.00  0.00    +0.000 OA
ENDBRANCH   6  18
TORSDOF 4
ENDMDL
MODEL 7
REMARK VINA RESULT:      -5.2      4.613      5.857
REMARK  Name = 
REMARK  4 active torsions:
REMARK  status: ('A' for Active; 'I' for Inactive)
REMARK    1  A    between atoms: C_6  and  C_7
REMARK    2  A    between atoms: C_10  and  C_11
REMARK    3  A    between atoms: C_14  and  C_15
REMARK    4  A    between atoms: C_15  and  C_16
REMARK                            x       y       z     vdW  Elec       q    Type
REMARK                         _______ _______ _______ _____ _____    ______ ____
ROOT
ATOM      1  C   UNL     1      27.242  28.293  24.652  0.00  0.00    +0.000 C 
ATOM      2  C   UNL     1      26.939  26.824  24.507  0.00  0.00    +0.000 A 
ATOM      3  S   UNL     1      26.247  25.747  25.621  0.00  0.00    +0.000 S 
ATOM      4  C   UNL     1      26.256  24.334  24.680  0.00  0.00    +0.000 A 
ATOM      5  N   UNL     1      25.796  23.011  25.042  0.00  0.00    +0.000 NA
ATOM      6  C   UNL     1      26.813  24.746  23.490  0.00  0.00    +0.000 A 
ATOM      7  C   UNL     1      27.170  26.041  23.397  0.00  0.00    +0.000 A 
ENDROOT
BRANCH   7   8
ATOM      8  C   UNL     1      27.814  26.628  22.180  0.00  0.00    +0.000 A 
ATOM      9  C   UNL     1      27.067  27.357  21.284  0.00  0.00    +0.000 A 
ATOM     10  C   UNL     1      27.661  27.885  20.128  0.00  0.00    +0.000 A 
ATOM     11  C   UNL     1      28.994  27.700  19.846  0.00  0.00    +0.000 A 
ATOM     12  C   UNL     1      29.728  26.969  20.752  0.00  0.00    +0.000 A 
ATOM     13  C   UNL     1      29.139  26.451  21.889  0.00  0.00    +0.000 A 
BRANCH  11  14
ATOM     14  C   UNL     1      29.605  28.304  18.600  0.00  0.00    +0.000 C 
BRANCH  14  15
ATOM     15  C   UNL     1      30.503  27.270  17.930  0.00  0.00    +0.000 C 
ATOM     16  C   UNL     1      30.003  27.235  16.474  0.00  0.00    +0.000 C 
ATOM     17  C   UNL     1      31.881  27.918  17.821  0.00  0.00    +0.000 C 
ENDBRANCH  14  15
ENDBRANCH  11  14
ENDBRANCH   7   8
BRANCH   6  18
ATOM     18  C   UNL     1      26.996  23.756  22.384  0.00  0.00    +0.000 C 
ATOM     19  N   UNL     1      25.955  23.498  21.440  0.00  0.00    +0.000 NA
ATOM     20  O   UNL     1      28.056  23.115  22.231  0.00  0.00    +0.000 OA
ENDBRANCH   6  18
TORSDOF 4
ENDMDL
MODEL 8
REMARK VINA RESULT:      -5.0     34.168     36.579
REMARK  Name = 
REMARK  4 active torsions:
REMARK  status: ('A' for Active; 'I' for Inactive)
REMARK    1  A    between atoms: C_6  and  C_7
REMARK    2  A    between atoms: C_10  and  C_11
REMARK    3  A    between atoms: C_14  and  C_15
REMARK    4  A    between atoms: C_15  and  C_16
REMARK                            x       y       z     vdW  Elec       q    Type
REMARK                         _______ _______ _______ _____ _____    ______ ____
ROOT
ATOM      1  C   UNL     1      21.024 -11.016  27.465  0.00  0.00    +0.000 C 
ATOM      2  C   UNL     1      20.579  -9.672  26.948  0.00  0.00    +0.000 A 
ATOM      3  S   UNL     1      21.323  -8.647  25.819  0.00  0.00    +0.000 S 
ATOM      4  C   UNL     1      20.189  -7.384  25.806  0.00  0.00    +0.000 A 
ATOM      5  N   UNL     1      20.221  -6.156  25.040  0.00  0.00    +0.000 NA
ATOM      6  C   UNL     1      19.233  -7.802  26.705  0.00  0.00    +0.000 A 
ATOM      7  C   UNL     1      19.434  -8.993  27.301  0.00  0.00    +0.000 A 
ENDROOT
BRANCH   7   8
ATOM      8  C   UNL     1      18.500  -9.565  28.320  0.00  0.00    +0.000 A 
ATOM      9  C   UNL     1      17.410 -10.305  27.925  0.00  0.00    +0.000 A 
ATOM     10  C   UNL     1      16.517 -10.820  28.875  0.00  0.00    +0.000 A 
ATOM     11  C   UNL     1      16.690 -10.610  30.223  0.00  0.00    +0.000 A 
ATOM     12  C   UNL     1      17.784  -9.867  30.605  0.00  0.00    +0.000 A 
ATOM     13  C   UNL     1      18.661  -9.363  29.664  0.00  0.00    +0.000 A 
BRANCH  11  14
ATOM     14  C   UNL     1      15.718 -11.200  31.222  0.00  0.00    +0.000 C 
BRANCH  14  15
ATOM     15  C   UNL     1      15.660 -10.306  32.456  0.00  0.00    +0.000 C 
ATOM     16  C   UNL     1      14.153 -10.100  32.692  0.00  0.00    +0.000 C 
ATOM     17  C   UNL     1      16.092 -11.182  33.629  0.00  0.00    +0.000 C 
ENDBRANCH  14  15
ENDBRANCH  11  14
ENDBRANCH   7   8
BRANCH   6  18
ATOM     18  C   UNL     1      18.048  -6.930  26.974  0.00  0.00    +0.000 C 
ATOM     19  N   UNL     1      16.805  -7.141  26.301  0.00  0.00    +0.000 NA
ATOM     20  O   UNL     1      18.084  -5.988  27.791  0.00  0.00    +0.000 OA
ENDBRANCH   6  18
TORSDOF 4
ENDMDL
MODEL 9
REMARK VINA RESULT:      -5.0     22.823     24.770
REMARK  Name = 
REMARK  4 active torsions:
REMARK  status: ('A' for Active; 'I' for Inactive)
REMARK    1  A    between atoms: C_6  and  C_7
REMARK    2  A    between atoms: C_10  and  C_11
REMARK    3  A    between atoms: C_14  and  C_15
REMARK    4  A    between atoms: C_15  and  C_16
REMARK                            x       y       z     vdW  Elec       q    Type
REMARK                         _______ _______ _______ _____ _____    ______ ____
ROOT
ATOM      1  C   UNL     1      24.413  -0.631  15.401  0.00  0.00    +0.000 C 
ATOM      2  C   UNL     1      22.944  -0.296  15.384  0.00  0.00    +0.000 A 
ATOM      3  S   UNL     1      21.648  -1.151  14.700  0.00  0.00    +0.000 S 
ATOM      4  C   UNL     1      20.376  -0.112  15.130  0.00  0.00    +0.000 A 
ATOM      5  N   UNL     1      18.965  -0.252  14.841  0.00  0.00    +0.000 NA
ATOM      6  C   UNL     1      21.008   0.902  15.813  0.00  0.00    +0.000 A 
ATOM      7  C   UNL     1      22.345   0.809  15.947  0.00  0.00    +0.000 A 
ENDROOT
BRANCH   7   8
ATOM      8  C   UNL     1      23.173   1.847  16.637  0.00  0.00    +0.000 A 
ATOM      9  C   UNL     1      23.463   1.726  17.976  0.00  0.00    +0.000 A 
ATOM     10  C   UNL     1      24.215   2.710  18.633  0.00  0.00    +0.000 A 
ATOM     11  C   UNL     1      24.688   3.822  17.977  0.00  0.00    +0.000 A 
ATOM     12  C   UNL     1      24.389   3.931  16.638  0.00  0.00    +0.000 A 
ATOM     13  C   UNL     1      23.648   2.958  15.995  0.00  0.00    +0.000 A 
BRANCH  11  14
ATOM     14  C   UNL     1      25.515   4.853  18.713  0.00  0.00    +0.000 C 
BRANCH  14  15
ATOM     15  C   UNL     1      26.561   5.429  17.765  0.00  0.00    +0.000 C 
ATOM     16  C   UNL     1      26.021   6.829  17.424  0.00  0.00    +0.000 C 
ATOM     17  C   UNL     1      27.791   5.717  18.622  0.00  0.00    +0.000 C 
ENDBRANCH  14  15
ENDBRANCH  11  14
ENDBRANCH   7   8
BRANCH   6  18
ATOM     18  C   UNL     1      20.199   2.036  16.358  0.00  0.00    +0.000 C 
ATOM     19  N   UNL     1      19.769   2.052  17.721  0.00  0.00    +0.000 NA
ATOM     20  O   UNL     1      19.864   3.013  15.658  0.00  0.00    +0.000 OA
ENDBRANCH   6  18
TORSDOF 4
ENDMDL
MODEL 10
REMARK VINA RESULT:      -4.9     19.706     23.113
REMARK  Name = 
REMARK  4 active torsions:
REMARK  status: ('A' for Active; 'I' for Inactive)
REMARK    1  A    between atoms: C_6  and  C_7
REMARK    2  A    between atoms: C_10  and  C_11
REMARK    3  A    between atoms: C_14  and  C_15
REMARK    4  A    between atoms: C_15  and  C_16
REMARK                            x       y       z     vdW  Elec       q    Type
REMARK                         _______ _______ _______ _____ _____    ______ ____
ROOT
ATOM      1  C   UNL     1      22.747   9.221  36.648  0.00  0.00    +0.000 C 
ATOM      2  C   UNL     1      23.130  10.579  37.179  0.00  0.00    +0.000 A 
ATOM      3  S   UNL     1      24.555  11.469  36.944  0.00  0.00    +0.000 S 
ATOM      4  C   UNL     1      24.171  12.848  37.856  0.00  0.00    +0.000 A 
ATOM      5  N   UNL     1      24.978  14.027  38.085  0.00  0.00    +0.000 NA
ATOM      6  C   UNL     1      22.909  12.575  38.333  0.00  0.00    +0.000 A 
ATOM      7  C   UNL     1      22.364  11.394  37.983  0.00  0.00    +0.000 A 
ENDROOT
BRANCH   7   8
ATOM      8  C   UNL     1      21.015  10.944  38.447  0.00  0.00    +0.000 A 
ATOM      9  C   UNL     1      20.879  10.280  39.644  0.00  0.00    +0.000 A 
ATOM     10  C   UNL     1      19.620   9.832  40.070  0.00  0.00    +0.000 A 
ATOM     11  C   UNL     1      18.485  10.036  39.321  0.00  0.00    +0.000 A 
ATOM     12  C   UNL     1      18.636  10.701  38.126  0.00  0.00    +0.000 A 
ATOM     13  C   UNL     1      19.878  11.140  37.711  0.00  0.00    +0.000 A 
BRANCH  11  14
ATOM     14  C   UNL     1      17.139   9.558  39.823  0.00  0.00    +0.000 C 
BRANCH  14  15
ATOM     15  C   UNL     1      17.323   8.861  41.166  0.00  0.00    +0.000 C 
ATOM     16  C   UNL     1      16.305   9.558  42.087  0.00  0.00    +0.000 C 
ATOM     17  C   UNL     1      16.749   7.457  40.992  0.00  0.00    +0.000 C 
ENDBRANCH  14  15
ENDBRANCH  11  14
ENDBRANCH   7   8
BRANCH   6  18
ATOM     18  C   UNL     1      22.220  13.577  39.204  0.00  0.00    +0.000 C 
ATOM     19  N   UNL     1      22.375  13.556  40.624  0.00  0.00    +0.000 NA
ATOM     20  O   UNL     1      21.485  14.472  38.738  0.00  0.00    +0.000 OA
ENDBRANCH   6  18
TORSDOF 4
ENDMDL
