MODEL 1
REMARK VINA RESULT:      -6.8      0.000      0.000
REMARK  Name = 
REMARK  1 active torsions:
REMARK  status: ('A' for Active; 'I' for Inactive)
REMARK    1  A    between atoms: C_10  and  C_11
REMARK                            x       y       z     vdW  Elec       q    Type
REMARK                         _______ _______ _______ _____ _____    ______ ____
ROOT
ATOM      1  C   UNL     1      14.080  13.278  34.727  0.00  0.00    +0.000 C 
ATOM      2  C   UNL     1      14.053  12.586  36.019  0.00  0.00    +0.000 C 
ATOM      3  C   UNL     1      12.858  12.492  36.869  0.00  0.00    +0.000 C 
ATOM      4  C   UNL     1      15.171  12.009  36.450  0.00  0.00    +0.000 A 
ATOM      5  N   UNL     1      15.397  11.339  37.561  0.00  0.00    +0.000 NA
ATOM      6  N   UNL     1      16.556  10.850  37.806  0.00  0.00    +0.000 N 
ATOM      7  C   UNL     1      16.929  10.133  38.916  0.00  0.00    +0.000 A 
ATOM      8  N   UNL     1      16.103   9.876  39.859  0.00  0.00    +0.000 NA
ATOM      9  C   UNL     1      18.205   9.691  39.009  0.00  0.00    +0.000 A 
ATOM     10  C   UNL     1      18.574   8.992  40.091  0.00  0.00    +0.000 C 
ATOM     11  C   UNL     1      19.212   9.884  38.083  0.00  0.00    +0.000 A 
ATOM     12  O   UNL     1      20.371   9.466  38.198  0.00  0.00    +0.000 OA
ATOM     13  N   UNL     1      18.843  10.595  36.981  0.00  0.00    +0.000 NA
ATOM     14  C   UNL     1      17.565  11.063  36.841  0.00  0.00    +0.000 A 
ATOM     15  S   UNL     1      16.687  11.967  35.669  0.00  0.00    +0.000 S 
ENDROOT
BRANCH  10  16
ATOM     16  C   UNL     1      17.675   8.682  41.172  0.00  0.00    +0.000 A 
ATOM     17  C   UNL     1      17.490   9.530  42.235  0.00  0.00    +0.000 A 
ATOM     18  C   UNL     1      16.626   9.237  43.276  0.00  0.00    +0.000 A 
ATOM     19  C   UNL     1      15.933   8.048  43.235  0.00  0.00    +0.000 A 
ATOM     20  C   UNL     1      16.089   7.177  42.194  0.00  0.00    +0.000 A 
ATOM     21  C   UNL     1      16.969   7.503  41.157  0.00  0.00    +0.000 A 
ENDBRANCH  10  16
TORSDOF 1
ENDMDL
MODEL 2
REMARK VINA RESULT:      -6.4     23.425     25.436
REMARK  Name = 
REMARK  1 active torsions:
REMARK  status: ('A' for Active; 'I' for Inactive)
REMARK    1  A    between atoms: C_10  and  C_11
REMARK                            x       y       z     vdW  Elec       q    Type
REMARK                         _______ _______ _______ _____ _____    ______ ____
ROOT
ATOM      1  C   UNL     1      27.149  -2.677  16.634  0.00  0.00    +0.000 C 
ATOM      2  C   UNL     1      27.598  -1.285  16.540  0.00  0.00    +0.000 C 
ATOM      3  C   UNL     1      28.938  -0.888  16.085  0.00  0.00    +0.000 C 
ATOM      4  C   UNL     1      26.747  -0.322  16.886  0.00  0.00    +0.000 A 
ATOM      5  N   UNL     1      26.912   0.985  16.889  0.00  0.00    +0.000 NA
ATOM      6  N   UNL     1      25.964   1.763  17.260  0.00  0.00    +0.000 N 
ATOM      7  C   UNL     1      25.997   3.135  17.311  0.00  0.00    +0.000 A 
ATOM      8  N   UNL     1      27.040   3.795  16.974  0.00  0.00    +0.000 NA
ATOM      9  C   UNL     1      24.896   3.799  17.732  0.00  0.00    +0.000 A 
ATOM     10  C   UNL     1      24.924   5.138  17.785  0.00  0.00    +0.000 C 
ATOM     11  C   UNL     1      23.698   3.237  18.129  0.00  0.00    +0.000 A 
ATOM     12  O   UNL     1      22.707   3.874  18.508  0.00  0.00    +0.000 OA
ATOM     13  N   UNL     1      23.663   1.877  18.077  0.00  0.00    +0.000 NA
ATOM     14  C   UNL     1      24.752   1.160  17.660  0.00  0.00    +0.000 A 
ATOM     15  S   UNL     1      25.145  -0.501  17.443  0.00  0.00    +0.000 S 
ENDROOT
BRANCH  10  16
ATOM     16  C   UNL     1      26.077   5.916  17.413  0.00  0.00    +0.000 A 
ATOM     17  C   UNL     1      27.063   6.236  18.312  0.00  0.00    +0.000 A 
ATOM     18  C   UNL     1      28.175   6.983  17.961  0.00  0.00    +0.000 A 
ATOM     19  C   UNL     1      28.284   7.417  16.658  0.00  0.00    +0.000 A 
ATOM     20  C   UNL     1      27.325   7.118  15.732  0.00  0.00    +0.000 A 
ATOM     21  C   UNL     1      26.214   6.361  16.121  0.00  0.00    +0.000 A 
ENDBRANCH  10  16
TORSDOF 1
ENDMDL
MODEL 3
REMARK VINA RESULT:      -6.4      2.802      5.227
REMARK  Name = 
REMARK  1 active torsions:
REMARK  status: ('A' for Active; 'I' for Inactive)
REMARK    1  A    between atoms: C_10  and  C_11
REMARK                            x       y       z     vdW  Elec       q    Type
REMARK                         _______ _______ _______ _____ _____    ______ ____
ROOT
ATOM      1  C   UNL     1      24.335   9.366  37.447  0.00  0.00    +0.000 C 
ATOM      2  C   UNL     1      23.421   9.054  38.550  0.00  0.00    +0.000 C 
ATOM      3  C   UNL     1      23.849   8.452  39.820  0.00  0.00    +0.000 C 
ATOM      4  C   UNL     1      22.128   9.330  38.397  0.00  0.00    +0.000 A 
ATOM      5  N   UNL     1      21.125   9.146  39.229  0.00  0.00    +0.000 NA
ATOM      6  N   UNL     1      19.932   9.480  38.899  0.00  0.00    +0.000 N 
ATOM      7  C   UNL     1      18.799   9.346  39.664  0.00  0.00    +0.000 A 
ATOM      8  N   UNL     1      18.837   8.847  40.842  0.00  0.00    +0.000 NA
ATOM      9  C   UNL     1      17.614   9.754  39.152  0.00  0.00    +0.000 A 
ATOM     10  C   UNL     1      16.506   9.625  39.894  0.00  0.00    +0.000 C 
ATOM     11  C   UNL     1      17.405  10.310  37.905  0.00  0.00    +0.000 A 
ATOM     12  O   UNL     1      16.307  10.674  37.466  0.00  0.00    +0.000 OA
ATOM     13  N   UNL     1      18.528  10.444  37.146  0.00  0.00    +0.000 NA
ATOM     14  C   UNL     1      19.749  10.046  37.619  0.00  0.00    +0.000 A 
ATOM     15  S   UNL     1      21.368  10.024  37.036  0.00  0.00    +0.000 S 
ENDROOT
BRANCH  10  16
ATOM     16  C   UNL     1      16.508   9.069  41.222  0.00  0.00    +0.000 A 
ATOM     17  C   UNL     1      16.688   9.846  42.339  0.00  0.00    +0.000 A 
ATOM     18  C   UNL     1      16.691   9.317  43.619  0.00  0.00    +0.000 A 
ATOM     19  C   UNL     1      16.507   7.960  43.765  0.00  0.00    +0.000 A 
ATOM     20  C   UNL     1      16.323   7.152  42.678  0.00  0.00    +0.000 A 
ATOM     21  C   UNL     1      16.325   7.719  41.398  0.00  0.00    +0.000 A 
ENDBRANCH  10  16
TORSDOF 1
ENDMDL
MODEL 4
REMARK VINA RESULT:      -6.3     22.192     23.819
REMARK  Name = 
REMARK  1 active torsions:
REMARK  status: ('A' for Active; 'I' for Inactive)
REMARK    1  A    between atoms: C_10  and  C_11
REMARK                            x       y       z     vdW  Elec       q    Type
REMARK                         _______ _______ _______ _____ _____    ______ ____
ROOT
ATOM      1  C   UNL     1      18.254 -12.088  29.180  0.00  0.00    +0.000 C 
ATOM      2  C   UNL     1      19.351 -11.738  28.274  0.00  0.00    +0.000 C 
ATOM      3  C   UNL     1      20.409 -12.675  27.871  0.00  0.00    +0.000 C 
ATOM      4  C   UNL     1      19.396 -10.501  27.785  0.00  0.00    +0.000 A 
ATOM      5  N   UNL     1      20.269  -9.952  26.965  0.00  0.00    +0.000 NA
ATOM      6  N   UNL     1      20.145  -8.730  26.600  0.00  0.00    +0.000 N 
ATOM      7  C   UNL     1      20.974  -8.035  25.755  0.00  0.00    +0.000 A 
ATOM      8  N   UNL     1      22.005  -8.579  25.227  0.00  0.00    +0.000 NA
ATOM      9  C   UNL     1      20.689  -6.741  25.479  0.00  0.00    +0.000 A 
ATOM     10  C   UNL     1      21.497  -6.058  24.656  0.00  0.00    +0.000 C 
ATOM     11  C   UNL     1      19.622  -6.012  25.966  0.00  0.00    +0.000 A 
ATOM     12  O   UNL     1      19.388  -4.827  25.693  0.00  0.00    +0.000 OA
ATOM     13  N   UNL     1      18.798  -6.701  26.804  0.00  0.00    +0.000 NA
ATOM     14  C   UNL     1      19.044  -8.010  27.114  0.00  0.00    +0.000 A 
ATOM     15  S   UNL     1      18.306  -9.225  28.085  0.00  0.00    +0.000 S 
ENDROOT
BRANCH  10  16
ATOM     16  C   UNL     1      22.665  -6.635  24.042  0.00  0.00    +0.000 A 
ATOM     17  C   UNL     1      23.924  -6.455  24.555  0.00  0.00    +0.000 A 
ATOM     18  C   UNL     1      25.051  -7.007  23.969  0.00  0.00    +0.000 A 
ATOM     19  C   UNL     1      24.890  -7.763  22.830  0.00  0.00    +0.000 A 
ATOM     20  C   UNL     1      23.652  -7.968  22.288  0.00  0.00    +0.000 A 
ATOM     21  C   UNL     1      22.534  -7.395  22.905  0.00  0.00    +0.000 A 
ENDBRANCH  10  16
TORSDOF 1
ENDMDL
MODEL 5
REMARK VINA RESULT:      -6.3     23.310     25.318
REMARK  Name = 
REMARK  1 active torsions:
REMARK  status: ('A' for Active; 'I' for Inactive)
REMARK    1  A    between atoms: C_10  and  C_11
REMARK                            x       y       z     vdW  Elec       q    Type
REMARK                         _______ _______ _______ _____ _____    ______ ____
ROOT
ATOM      1  C   UNL     1      28.927   7.407  11.485  0.00  0.00    +0.000 C 
ATOM      2  C   UNL     1      27.955   6.530  12.144  0.00  0.00    +0.000 C 
ATOM      3  C   UNL     1      27.015   5.664  11.419  0.00  0.00    +0.000 C 
ATOM      4  C   UNL     1      27.919   6.513  13.473  0.00  0.00    +0.000 A 
ATOM      5  N   UNL     1      27.147   5.820  14.285  0.00  0.00    +0.000 NA
ATOM      6  N   UNL     1      27.261   5.939  15.556  0.00  0.00    +0.000 N 
ATOM      7  C   UNL     1      26.527   5.282  16.513  0.00  0.00    +0.000 A 
ATOM      8  N   UNL     1      25.611   4.444  16.201  0.00  0.00    +0.000 NA
ATOM      9  C   UNL     1      26.784   5.532  17.818  0.00  0.00    +0.000 A 
ATOM     10  C   UNL     1      26.070   4.894  18.756  0.00  0.00    +0.000 C 
ATOM     11  C   UNL     1      27.733   6.403  18.318  0.00  0.00    +0.000 A 
ATOM     12  O   UNL     1      27.943   6.610  19.520  0.00  0.00    +0.000 OA
ATOM     13  N   UNL     1      28.461   7.055  17.369  0.00  0.00    +0.000 NA
ATOM     14  C   UNL     1      28.239   6.836  16.037  0.00  0.00    +0.000 A 
ATOM     15  S   UNL     1      28.890   7.411  14.551  0.00  0.00    +0.000 S 
ENDROOT
BRANCH  10  16
ATOM     16  C   UNL     1      25.033   3.945  18.444  0.00  0.00    +0.000 A 
ATOM     17  C   UNL     1      25.304   2.625  18.184  0.00  0.00    +0.000 A 
ATOM     18  C   UNL     1      24.311   1.708  17.885  0.00  0.00    +0.000 A 
ATOM     19  C   UNL     1      23.006   2.147  17.848  0.00  0.00    +0.000 A 
ATOM     20  C   UNL     1      22.694   3.453  18.103  0.00  0.00    +0.000 A 
ATOM     21  C   UNL     1      23.722   4.354  18.402  0.00  0.00    +0.000 A 
ENDBRANCH  10  16
TORSDOF 1
ENDMDL
MODEL 6
REMARK VINA RESULT:      -6.1     32.829     35.222
REMARK  Name = 
REMARK  1 active torsions:
REMARK  status: ('A' for Active; 'I' for Inactive)
REMARK    1  A    between atoms: C_10  and  C_11
REMARK                            x       y       z     vdW  Elec       q    Type
REMARK                         _______ _______ _______ _____ _____    ______ ____
ROOT
ATOM      1  C   UNL     1      38.172  25.421   8.645  0.00  0.00    +0.000 C 
ATOM      2  C   UNL     1      36.747  25.217   8.920  0.00  0.00    +0.000 C 
ATOM      3  C   UNL     1      35.696  26.165   8.525  0.00  0.00    +0.000 C 
ATOM      4  C   UNL     1      36.379  24.112   9.563  0.00  0.00    +0.000 A 
ATOM      5  N   UNL     1      35.178  23.708   9.921  0.00  0.00    +0.000 NA
ATOM      6  N   UNL     1      35.020  22.598  10.543  0.00  0.00    +0.000 N 
ATOM      7  C   UNL     1      33.833  22.058  10.972  0.00  0.00    +0.000 A 
ATOM      8  N   UNL     1      32.715  22.650  10.779  0.00  0.00    +0.000 NA
ATOM      9  C   UNL     1      33.853  20.868  11.618  0.00  0.00    +0.000 A 
ATOM     10  C   UNL     1      32.697  20.337  12.040  0.00  0.00    +0.000 C 
ATOM     11  C   UNL     1      34.969  20.106  11.904  0.00  0.00    +0.000 A 
ATOM     12  O   UNL     1      34.954  19.020  12.496  0.00  0.00    +0.000 OA
ATOM     13  N   UNL     1      36.147  20.641  11.477  0.00  0.00    +0.000 NA
ATOM     14  C   UNL     1      36.179  21.842  10.821  0.00  0.00    +0.000 A 
ATOM     15  S   UNL     1      37.385  22.857  10.130  0.00  0.00    +0.000 S 
ENDROOT
BRANCH  10  16
ATOM     16  C   UNL     1      31.420  20.972  11.841  0.00  0.00    +0.000 A 
ATOM     17  C   UNL     1      30.645  20.725  10.736  0.00  0.00    +0.000 A 
ATOM     18  C   UNL     1      29.417  21.332  10.539  0.00  0.00    +0.000 A 
ATOM     19  C   UNL     1      28.966  22.216  11.494  0.00  0.00    +0.000 A 
ATOM     20  C   UNL     1      29.707  22.489  12.609  0.00  0.00    +0.000 A 
ATOM     21  C   UNL     1      30.944  21.858  12.777  0.00  0.00    +0.000 A 
ENDBRANCH  10  16
TORSDOF 1
ENDMDL
MODEL 7
REMARK VINA RESULT:      -6.0     20.905     22.192
REMARK  Name = 
REMARK  1 active torsions:
REMARK  status: ('A' for Active; 'I' for Inactive)
REMARK    1  A    between atoms: C_10  and  C_11
REMARK                            x       y       z     vdW  Elec       q    Type
REMARK                         _______ _______ _______ _____ _____    ______ ____
ROOT
ATOM      1  C   UNL     1      22.739  26.506  27.382  0.00  0.00    +0.000 C 
ATOM      2  C   UNL     1      24.072  26.068  27.806  0.00  0.00    +0.000 C 
ATOM      3  C   UNL     1      24.582  26.215  29.176  0.00  0.00    +0.000 C 
ATOM      4  C   UNL     1      24.869  25.505  26.901  0.00  0.00    +0.000 A 
ATOM      5  N   UNL     1      26.093  25.037  27.035  0.00  0.00    +0.000 NA
ATOM      6  N   UNL     1      26.709  24.524  26.035  0.00  0.00    +0.000 N 
ATOM      7  C   UNL     1      27.978  24.000  26.031  0.00  0.00    +0.000 A 
ATOM      8  N   UNL     1      28.700  23.979  27.088  0.00  0.00    +0.000 NA
ATOM      9  C   UNL     1      28.473  23.496  24.876  0.00  0.00    +0.000 A 
ATOM     10  C   UNL     1      29.712  22.985  24.868  0.00  0.00    +0.000 C 
ATOM     11  C   UNL     1      27.826  23.445  23.657  0.00  0.00    +0.000 A 
ATOM     12  O   UNL     1      28.307  22.977  22.618  0.00  0.00    +0.000 OA
ATOM     13  N   UNL     1      26.566  23.964  23.660  0.00  0.00    +0.000 NA
ATOM     14  C   UNL     1      26.022  24.485  24.802  0.00  0.00    +0.000 A 
ATOM     15  S   UNL     1      24.531  25.216  25.255  0.00  0.00    +0.000 S 
ENDROOT
BRANCH  10  16
ATOM     16  C   UNL     1      30.554  22.943  26.035  0.00  0.00    +0.000 A 
ATOM     17  C   UNL     1      30.483  21.923  26.951  0.00  0.00    +0.000 A 
ATOM     18  C   UNL     1      31.290  21.877  28.074  0.00  0.00    +0.000 A 
ATOM     19  C   UNL     1      32.194  22.897  28.272  0.00  0.00    +0.000 A 
ATOM     20  C   UNL     1      32.296  23.930  27.383  0.00  0.00    +0.000 A 
ATOM     21  C   UNL     1      31.466  23.946  26.257  0.00  0.00    +0.000 A 
ENDBRANCH  10  16
TORSDOF 1
ENDMDL
MODEL 8
REMARK VINA RESULT:      -6.0     18.715     21.229
REMARK  Name = 
REMARK  1 active torsions:
REMARK  status: ('A' for Active; 'I' for Inactive)
REMARK    1  A    between atoms: C_10  and  C_11
REMARK                            x       y       z     vdW  Elec       q    Type
REMARK                         _______ _______ _______ _____ _____    ______ ____
ROOT
ATOM      1  C   UNL     1      25.701  29.189  31.424  0.00  0.00    +0.000 C 
ATOM      2  C   UNL     1      26.429  28.555  30.321  0.00  0.00    +0.000 C 
ATOM      3  C   UNL     1      27.143  29.303  29.278  0.00  0.00    +0.000 C 
ATOM      4  C   UNL     1      26.446  27.226  30.258  0.00  0.00    +0.000 A 
ATOM      5  N   UNL     1      27.022  26.434  29.377  0.00  0.00    +0.000 NA
ATOM      6  N   UNL     1      26.928  25.160  29.483  0.00  0.00    +0.000 N 
ATOM      7  C   UNL     1      27.475  24.222  28.643  0.00  0.00    +0.000 A 
ATOM      8  N   UNL     1      28.167  24.557  27.619  0.00  0.00    +0.000 NA
ATOM      9  C   UNL     1      27.271  22.911  28.908  0.00  0.00    +0.000 A 
ATOM     10  C   UNL     1      27.802  21.991  28.090  0.00  0.00    +0.000 C 
ATOM     11  C   UNL     1      26.552  22.387  29.965  0.00  0.00    +0.000 A 
ATOM     12  O   UNL     1      26.385  21.180  30.181  0.00  0.00    +0.000 OA
ATOM     13  N   UNL     1      26.010  23.317  30.800  0.00  0.00    +0.000 NA
ATOM     14  C   UNL     1      26.187  24.655  30.573  0.00  0.00    +0.000 A 
ATOM     15  S   UNL     1      25.707  26.125  31.330  0.00  0.00    +0.000 S 
ENDROOT
BRANCH  10  16
ATOM     16  C   UNL     1      28.587  22.328  26.931  0.00  0.00    +0.000 A 
ATOM     17  C   UNL     1      28.011  22.655  25.729  0.00  0.00    +0.000 A 
ATOM     18  C   UNL     1      28.760  22.980  24.611  0.00  0.00    +0.000 A 
ATOM     19  C   UNL     1      30.133  22.972  24.720  0.00  0.00    +0.000 A 
ATOM     20  C   UNL     1      30.745  22.654  25.900  0.00  0.00    +0.000 A 
ATOM     21  C   UNL     1      29.958  22.329  27.011  0.00  0.00    +0.000 A 
ENDBRANCH  10  16
TORSDOF 1
ENDMDL
MODEL 9
REMARK VINA RESULT:      -5.9     19.757     22.652
REMARK  Name = 
REMARK  1 active torsions:
REMARK  status: ('A' for Active; 'I' for Inactive)
REMARK    1  A    between atoms: C_10  and  C_11
REMARK                            x       y       z     vdW  Elec       q    Type
REMARK                         _______ _______ _______ _____ _____    ______ ____
ROOT
ATOM      1  C   UNL     1      30.655  22.020  31.657  0.00  0.00    +0.000 C 
ATOM      2  C   UNL     1      30.753  22.352  30.233  0.00  0.00    +0.000 C 
ATOM      3  C   UNL     1      31.992  22.235  29.451  0.00  0.00    +0.000 C 
ATOM      4  C   UNL     1      29.661  22.785  29.609  0.00  0.00    +0.000 A 
ATOM      5  N   UNL     1      29.497  23.142  28.352  0.00  0.00    +0.000 NA
ATOM      6  N   UNL     1      28.354  23.537  27.928  0.00  0.00    +0.000 N 
ATOM      7  C   UNL     1      28.042  23.935  26.651  0.00  0.00    +0.000 A 
ATOM      8  N   UNL     1      28.918  23.948  25.718  0.00  0.00    +0.000 NA
ATOM      9  C   UNL     1      26.774  24.324  26.380  0.00  0.00    +0.000 A 
ATOM     10  C   UNL     1      26.466  24.715  25.136  0.00  0.00    +0.000 C 
ATOM     11  C   UNL     1      25.719  24.368  27.270  0.00  0.00    +0.000 A 
ATOM     12  O   UNL     1      24.569  24.729  26.990  0.00  0.00    +0.000 OA
ATOM     13  N   UNL     1      26.027  23.972  28.537  0.00  0.00    +0.000 NA
ATOM     14  C   UNL     1      27.294  23.571  28.860  0.00  0.00    +0.000 A 
ATOM     15  S   UNL     1      28.106  23.012  30.272  0.00  0.00    +0.000 S 
ENDROOT
BRANCH  10  16
ATOM     16  C   UNL     1      27.422  24.743  24.060  0.00  0.00    +0.000 A 
ATOM     17  C   UNL     1      28.210  25.838  23.810  0.00  0.00    +0.000 A 
ATOM     18  C   UNL     1      29.132  25.870  22.777  0.00  0.00    +0.000 A 
ATOM     19  C   UNL     1      29.254  24.757  21.977  0.00  0.00    +0.000 A 
ATOM     20  C   UNL     1      28.489  23.645  22.193  0.00  0.00    +0.000 A 
ATOM     21  C   UNL     1      27.566  23.646  23.245  0.00  0.00    +0.000 A 
ENDBRANCH  10  16
TORSDOF 1
ENDMDL
MODEL 10
REMARK VINA RESULT:      -5.8     19.818     22.535
REMARK  Name = 
REMARK  1 active torsions:
REMARK  status: ('A' for Active; 'I' for Inactive)
REMARK    1  A    between atoms: C_10  and  C_11
REMARK                            x       y       z     vdW  Elec       q    Type
REMARK                         _______ _______ _______ _____ _____    ______ ____
ROOT
ATOM      1  C   UNL     1      24.944  25.713  31.146  0.00  0.00    +0.000 C 
ATOM      2  C   UNL     1      25.257  25.770  29.715  0.00  0.00    +0.000 C 
ATOM      3  C   UNL     1      24.483  26.553  28.741  0.00  0.00    +0.000 C 
ATOM      4  C   UNL     1      26.299  25.075  29.268  0.00  0.00    +0.000 A 
ATOM      5  N   UNL     1      26.776  24.966  28.045  0.00  0.00    +0.000 NA
ATOM      6  N   UNL     1      27.804  24.240  27.806  0.00  0.00    +0.000 N 
ATOM      7  C   UNL     1      28.404  24.038  26.587  0.00  0.00    +0.000 A 
ATOM      8  N   UNL     1      27.962  24.590  25.520  0.00  0.00    +0.000 NA
ATOM      9  C   UNL     1      29.490  23.233  26.520  0.00  0.00    +0.000 A 
ATOM     10  C   UNL     1      30.078  23.032  25.332  0.00  0.00    +0.000 C 
ATOM     11  C   UNL     1      30.087  22.567  27.572  0.00  0.00    +0.000 A 
ATOM     12  O   UNL     1      31.082  21.837  27.477  0.00  0.00    +0.000 OA
ATOM     13  N   UNL     1      29.493  22.767  28.782  0.00  0.00    +0.000 NA
ATOM     14  C   UNL     1      28.393  23.572  28.901  0.00  0.00    +0.000 A 
ATOM     15  S   UNL     1      27.358  24.092  30.175  0.00  0.00    +0.000 S 
ENDROOT
BRANCH  10  16
ATOM     16  C   UNL     1      29.611  23.635  24.111  0.00  0.00    +0.000 A 
ATOM     17  C   UNL     1      28.658  23.042  23.321  0.00  0.00    +0.000 A 
ATOM     18  C   UNL     1      28.205  23.617  22.146  0.00  0.00    +0.000 A 
ATOM     19  C   UNL     1      28.736  24.829  21.765  0.00  0.00    +0.000 A 
ATOM     20  C   UNL     1      29.686  25.453  22.524  0.00  0.00    +0.000 A 
ATOM     21  C   UNL     1      30.122  24.844  23.706  0.00  0.00    +0.000 A 
ENDBRANCH  10  16
TORSDOF 1
ENDMDL
