MODEL 1
REMARK VINA RESULT:      -5.9      0.000      0.000
REMARK  Name = 
REMARK  2 active torsions:
REMARK  status: ('A' for Active; 'I' for Inactive)
REMARK    1  A    between atoms: S_2  and  C_3
REMARK    2  A    between atoms: C_5  and  C_7
REMARK                            x       y       z     vdW  Elec       q    Type
REMARK                         _______ _______ _______ _____ _____    ______ ____
ROOT
ATOM      1  C   UNL     1      33.520  19.869   8.752  0.00  0.00    +0.000 C 
ATOM      2  N   UNL     1      32.931  20.876   9.256  0.00  0.00    +0.000 NA
ATOM      3  C   UNL     1      33.211  21.507  10.526  0.00  0.00    +0.000 C 
ATOM      4  C   UNL     1      33.990  22.803  10.295  0.00  0.00    +0.000 C 
ATOM      5  C   UNL     1      34.059  20.581  11.397  0.00  0.00    +0.000 C 
ATOM      6  C   UNL     1      35.189  20.094  10.515  0.00  0.00    +0.000 C 
ATOM      7  C   UNL     1      35.778  21.310   9.826  0.00  0.00    +0.000 C 
ATOM      8  C   UNL     1      36.232  19.337  11.298  0.00  0.00    +0.000 C 
ATOM      9  N   UNL     1      34.576  19.271   9.491  0.00  0.00    +0.000 NA
ENDROOT
BRANCH   3  10
ATOM     10  C   UNL     1      31.935  21.836  11.167  0.00  0.00    +0.000 A 
ATOM     11  C   UNL     1      31.715  21.542  12.479  0.00  0.00    +0.000 A 
ATOM     12  C   UNL     1      30.520  21.842  13.108  0.00  0.00    +0.000 A 
ATOM     13  C   UNL     1      29.489  22.459  12.422  0.00  0.00    +0.000 A 
ATOM     14  O   UNL     1      28.284  22.767  13.039  0.00  0.00    +0.000 OA
ATOM     15  C   UNL     1      29.726  22.753  11.092  0.00  0.00    +0.000 A 
ATOM     16  C   UNL     1      30.911  22.456  10.465  0.00  0.00    +0.000 A 
ATOM     17  O   UNL     1      31.163  22.744   9.133  0.00  0.00    +0.000 OA
ENDBRANCH   3  10
BRANCH   1  19
ATOM     18  C   UNL     1      31.330  19.582   6.817  0.00  0.00    +0.000 C 
ATOM     19  S   UNL     1      33.055  19.190   7.144  0.00  0.00    +0.000 S 
ENDBRANCH   1  19
TORSDOF 2
ENDMDL
MODEL 2
REMARK VINA RESULT:      -5.7     14.216     16.891
REMARK  Name = 
REMARK  2 active torsions:
REMARK  status: ('A' for Active; 'I' for Inactive)
REMARK    1  A    between atoms: S_2  and  C_3
REMARK    2  A    between atoms: C_5  and  C_7
REMARK                            x       y       z     vdW  Elec       q    Type
REMARK                         _______ _______ _______ _____ _____    ______ ____
ROOT
ATOM      1  C   UNL     1      25.026  25.736  26.027  0.00  0.00    +0.000 C 
ATOM      2  N   UNL     1      25.624  24.970  25.210  0.00  0.00    +0.000 NA
ATOM      3  C   UNL     1      26.909  24.331  25.390  0.00  0.00    +0.000 C 
ATOM      4  C   UNL     1      26.704  22.854  25.733  0.00  0.00    +0.000 C 
ATOM      5  C   UNL     1      27.669  24.994  26.538  0.00  0.00    +0.000 C 
ATOM      6  C   UNL     1      26.689  25.091  27.689  0.00  0.00    +0.000 C 
ATOM      7  C   UNL     1      26.036  23.730  27.838  0.00  0.00    +0.000 C 
ATOM      8  C   UNL     1      27.359  25.530  28.966  0.00  0.00    +0.000 C 
ATOM      9  N   UNL     1      25.661  26.020  27.267  0.00  0.00    +0.000 NA
ENDROOT
BRANCH   3  10
ATOM     10  C   UNL     1      27.648  24.421  24.127  0.00  0.00    +0.000 A 
ATOM     11  C   UNL     1      28.804  25.136  24.044  0.00  0.00    +0.000 A 
ATOM     12  C   UNL     1      29.521  25.236  22.865  0.00  0.00    +0.000 A 
ATOM     13  C   UNL     1      29.087  24.608  21.711  0.00  0.00    +0.000 A 
ATOM     14  O   UNL     1      29.795  24.698  20.521  0.00  0.00    +0.000 OA
ATOM     15  C   UNL     1      27.913  23.885  21.810  0.00  0.00    +0.000 A 
ATOM     16  C   UNL     1      27.199  23.783  22.979  0.00  0.00    +0.000 A 
ATOM     17  O   UNL     1      26.021  23.063  23.095  0.00  0.00    +0.000 OA
ENDBRANCH   3  10
BRANCH   1  19
ATOM     18  C   UNL     1      22.493  26.659  27.192  0.00  0.00    +0.000 C 
ATOM     19  S   UNL     1      23.415  26.464  25.659  0.00  0.00    +0.000 S 
ENDBRANCH   1  19
TORSDOF 2
ENDMDL
MODEL 3
REMARK VINA RESULT:      -5.7     14.457     16.880
REMARK  Name = 
REMARK  2 active torsions:
REMARK  status: ('A' for Active; 'I' for Inactive)
REMARK    1  A    between atoms: S_2  and  C_3
REMARK    2  A    between atoms: C_5  and  C_7
REMARK                            x       y       z     vdW  Elec       q    Type
REMARK                         _______ _______ _______ _____ _____    ______ ____
ROOT
ATOM      1  C   UNL     1      27.969  25.853  24.391  0.00  0.00    +0.000 C 
ATOM      2  N   UNL     1      28.188  25.053  25.354  0.00  0.00    +0.000 NA
ATOM      3  C   UNL     1      27.757  23.678  25.464  0.00  0.00    +0.000 C 
ATOM      4  C   UNL     1      28.937  22.746  25.180  0.00  0.00    +0.000 C 
ATOM      5  C   UNL     1      26.655  23.390  24.445  0.00  0.00    +0.000 C 
ATOM      6  C   UNL     1      27.153  23.937  23.124  0.00  0.00    +0.000 C 
ATOM      7  C   UNL     1      28.572  23.435  22.936  0.00  0.00    +0.000 C 
ATOM      8  C   UNL     1      26.263  23.535  21.975  0.00  0.00    +0.000 C 
ATOM      9  N   UNL     1      27.220  25.375  23.282  0.00  0.00    +0.000 NA
ENDROOT
BRANCH   3  10
ATOM     10  C   UNL     1      27.300  23.448  26.837  0.00  0.00    +0.000 A 
ATOM     11  C   UNL     1      27.943  22.563  27.650  0.00  0.00    +0.000 A 
ATOM     12  C   UNL     1      27.533  22.328  28.949  0.00  0.00    +0.000 A 
ATOM     13  C   UNL     1      26.439  22.988  29.482  0.00  0.00    +0.000 A 
ATOM     14  O   UNL     1      26.015  22.763  30.784  0.00  0.00    +0.000 OA
ATOM     15  C   UNL     1      25.796  23.883  28.647  0.00  0.00    +0.000 A 
ATOM     16  C   UNL     1      26.202  24.119  27.357  0.00  0.00    +0.000 A 
ATOM     17  O   UNL     1      25.567  25.012  26.507  0.00  0.00    +0.000 OA
ENDBRANCH   3  10
BRANCH   1  19
ATOM     18  C   UNL     1      29.072  28.007  22.728  0.00  0.00    +0.000 C 
ATOM     19  S   UNL     1      28.577  27.554  24.398  0.00  0.00    +0.000 S 
ENDBRANCH   1  19
TORSDOF 2
ENDMDL
MODEL 4
REMARK VINA RESULT:      -5.5     35.141     36.409
REMARK  Name = 
REMARK  2 active torsions:
REMARK  status: ('A' for Active; 'I' for Inactive)
REMARK    1  A    between atoms: S_2  and  C_3
REMARK    2  A    between atoms: C_5  and  C_7
REMARK                            x       y       z     vdW  Elec       q    Type
REMARK                         _______ _______ _______ _____ _____    ______ ____
ROOT
ATOM      1  C   UNL     1      18.476  -8.930  28.238  0.00  0.00    +0.000 C 
ATOM      2  N   UNL     1      19.349  -8.202  27.671  0.00  0.00    +0.000 NA
ATOM      3  C   UNL     1      19.294  -7.650  26.336  0.00  0.00    +0.000 C 
ATOM      4  C   UNL     1      18.937  -6.164  26.409  0.00  0.00    +0.000 C 
ATOM      5  C   UNL     1      18.221  -8.366  25.515  0.00  0.00    +0.000 C 
ATOM      6  C   UNL     1      16.983  -8.402  26.385  0.00  0.00    +0.000 C 
ATOM      7  C   UNL     1      16.776  -7.001  26.930  0.00  0.00    +0.000 C 
ATOM      8  C   UNL     1      15.773  -8.889  25.628  0.00  0.00    +0.000 C 
ATOM      9  N   UNL     1      17.301  -9.259  27.509  0.00  0.00    +0.000 NA
ENDROOT
BRANCH   3  10
ATOM     10  C   UNL     1      20.621  -7.784  25.727  0.00  0.00    +0.000 A 
ATOM     11  C   UNL     1      21.304  -6.688  25.294  0.00  0.00    +0.000 A 
ATOM     12  C   UNL     1      22.558  -6.787  24.718  0.00  0.00    +0.000 A 
ATOM     13  C   UNL     1      23.173  -8.015  24.555  0.00  0.00    +0.000 A 
ATOM     14  O   UNL     1      24.431  -8.130  23.978  0.00  0.00    +0.000 OA
ATOM     15  C   UNL     1      22.468  -9.118  24.999  0.00  0.00    +0.000 A 
ATOM     16  C   UNL     1      21.225  -9.024  25.572  0.00  0.00    +0.000 A 
ATOM     17  O   UNL     1      20.505 -10.120  26.023  0.00  0.00    +0.000 OA
ENDBRANCH   3  10
BRANCH   1  19
ATOM     18  C   UNL     1      17.134 -10.256  30.488  0.00  0.00    +0.000 C 
ATOM     19  S   UNL     1      18.688  -9.548  29.922  0.00  0.00    +0.000 S 
ENDBRANCH   1  19
TORSDOF 2
ENDMDL
MODEL 5
REMARK VINA RESULT:      -5.5     14.766     17.178
REMARK  Name = 
REMARK  2 active torsions:
REMARK  status: ('A' for Active; 'I' for Inactive)
REMARK    1  A    between atoms: S_2  and  C_3
REMARK    2  A    between atoms: C_5  and  C_7
REMARK                            x       y       z     vdW  Elec       q    Type
REMARK                         _______ _______ _______ _____ _____    ______ ____
ROOT
ATOM      1  C   UNL     1      29.249  23.820  24.631  0.00  0.00    +0.000 C 
ATOM      2  N   UNL     1      28.370  23.380  25.436  0.00  0.00    +0.000 NA
ATOM      3  C   UNL     1      27.015  23.859  25.599  0.00  0.00    +0.000 C 
ATOM      4  C   UNL     1      26.044  22.893  24.917  0.00  0.00    +0.000 C 
ATOM      5  C   UNL     1      26.863  25.236  24.952  0.00  0.00    +0.000 C 
ATOM      6  C   UNL     1      27.479  25.121  23.573  0.00  0.00    +0.000 C 
ATOM      7  C   UNL     1      26.916  23.866  22.933  0.00  0.00    +0.000 C 
ATOM      8  C   UNL     1      27.212  26.343  22.731  0.00  0.00    +0.000 C 
ATOM      9  N   UNL     1      28.896  24.902  23.780  0.00  0.00    +0.000 NA
ENDROOT
BRANCH   3  10
ATOM     10  C   UNL     1      26.710  23.897  27.032  0.00  0.00    +0.000 A 
ATOM     11  C   UNL     1      25.923  24.880  27.553  0.00  0.00    +0.000 A 
ATOM     12  C   UNL     1      25.619  24.937  28.901  0.00  0.00    +0.000 A 
ATOM     13  C   UNL     1      26.108  23.991  29.784  0.00  0.00    +0.000 A 
ATOM     14  O   UNL     1      25.812  24.035  31.139  0.00  0.00    +0.000 OA
ATOM     15  C   UNL     1      26.904  22.999  29.241  0.00  0.00    +0.000 A 
ATOM     16  C   UNL     1      27.207  22.938  27.904  0.00  0.00    +0.000 A 
ATOM     17  O   UNL     1      28.004  21.951  27.345  0.00  0.00    +0.000 OA
ENDBRANCH   3  10
BRANCH   1  19
ATOM     18  C   UNL     1      31.986  24.002  25.677  0.00  0.00    +0.000 C 
ATOM     19  S   UNL     1      30.909  23.114  24.543  0.00  0.00    +0.000 S 
ENDBRANCH   1  19
TORSDOF 2
ENDMDL
MODEL 6
REMARK VINA RESULT:      -5.5      1.762      3.524
REMARK  Name = 
REMARK  2 active torsions:
REMARK  status: ('A' for Active; 'I' for Inactive)
REMARK    1  A    between atoms: S_2  and  C_3
REMARK    2  A    between atoms: C_5  and  C_7
REMARK                            x       y       z     vdW  Elec       q    Type
REMARK                         _______ _______ _______ _____ _____    ______ ____
ROOT
ATOM      1  C   UNL     1      33.432  20.596   9.093  0.00  0.00    +0.000 C 
ATOM      2  N   UNL     1      32.297  20.589   9.663  0.00  0.00    +0.000 NA
ATOM      3  C   UNL     1      31.091  21.250   9.219  0.00  0.00    +0.000 C 
ATOM      4  C   UNL     1      30.142  20.224   8.597  0.00  0.00    +0.000 C 
ATOM      5  C   UNL     1      31.427  22.302   8.162  0.00  0.00    +0.000 C 
ATOM      6  C   UNL     1      32.341  21.619   7.167  0.00  0.00    +0.000 C 
ATOM      7  C   UNL     1      31.700  20.292   6.805  0.00  0.00    +0.000 C 
ATOM      8  C   UNL     1      32.587  22.471   5.947  0.00  0.00    +0.000 C 
ATOM      9  N   UNL     1      33.568  21.325   7.880  0.00  0.00    +0.000 NA
ENDROOT
BRANCH   3  10
ATOM     10  C   UNL     1      30.435  21.845  10.387  0.00  0.00    +0.000 A 
ATOM     11  C   UNL     1      29.102  21.670  10.606  0.00  0.00    +0.000 A 
ATOM     12  C   UNL     1      28.460  22.220  11.700  0.00  0.00    +0.000 A 
ATOM     13  C   UNL     1      29.153  22.980  12.626  0.00  0.00    +0.000 A 
ATOM     14  O   UNL     1      28.523  23.538  13.730  0.00  0.00    +0.000 OA
ATOM     15  C   UNL     1      30.505  23.149  12.392  0.00  0.00    +0.000 A 
ATOM     16  C   UNL     1      31.145  22.604  11.307  0.00  0.00    +0.000 A 
ATOM     17  O   UNL     1      32.500  22.764  11.059  0.00  0.00    +0.000 OA
ENDBRANCH   3  10
BRANCH   1  19
ATOM     18  C   UNL     1      34.900  19.961  11.555  0.00  0.00    +0.000 C 
ATOM     19  S   UNL     1      34.855  19.716   9.773  0.00  0.00    +0.000 S 
ENDBRANCH   1  19
TORSDOF 2
ENDMDL
MODEL 7
REMARK VINA RESULT:      -5.4     14.232     15.791
REMARK  Name = 
REMARK  2 active torsions:
REMARK  status: ('A' for Active; 'I' for Inactive)
REMARK    1  A    between atoms: S_2  and  C_3
REMARK    2  A    between atoms: C_5  and  C_7
REMARK                            x       y       z     vdW  Elec       q    Type
REMARK                         _______ _______ _______ _____ _____    ______ ____
ROOT
ATOM      1  C   UNL     1      30.352  24.539  27.368  0.00  0.00    +0.000 C 
ATOM      2  N   UNL     1      29.914  23.797  26.434  0.00  0.00    +0.000 NA
ATOM      3  C   UNL     1      30.143  23.951  25.015  0.00  0.00    +0.000 C 
ATOM      4  C   UNL     1      31.189  22.936  24.550  0.00  0.00    +0.000 C 
ATOM      5  C   UNL     1      30.666  25.356  24.717  0.00  0.00    +0.000 C 
ATOM      6  C   UNL     1      31.783  25.607  25.708  0.00  0.00    +0.000 C 
ATOM      7  C   UNL     1      32.689  24.390  25.681  0.00  0.00    +0.000 C 
ATOM      8  C   UNL     1      32.541  26.873  25.398  0.00  0.00    +0.000 C 
ATOM      9  N   UNL     1      31.160  25.654  27.016  0.00  0.00    +0.000 NA
ENDROOT
BRANCH   3  10
ATOM     10  C   UNL     1      28.885  23.681  24.315  0.00  0.00    +0.000 A 
ATOM     11  C   UNL     1      27.770  23.303  25.001  0.00  0.00    +0.000 A 
ATOM     12  C   UNL     1      26.570  23.043  24.364  0.00  0.00    +0.000 A 
ATOM     13  C   UNL     1      26.453  23.155  22.990  0.00  0.00    +0.000 A 
ATOM     14  O   UNL     1      25.255  22.898  22.337  0.00  0.00    +0.000 OA
ATOM     15  C   UNL     1      27.591  23.540  22.306  0.00  0.00    +0.000 A 
ATOM     16  C   UNL     1      28.783  23.800  22.935  0.00  0.00    +0.000 A 
ATOM     17  O   UNL     1      29.933  24.185  22.264  0.00  0.00    +0.000 OA
ENDBRANCH   3  10
BRANCH   1  19
ATOM     18  C   UNL     1      28.795  22.866  29.212  0.00  0.00    +0.000 C 
ATOM     19  S   UNL     1      29.979  24.216  29.106  0.00  0.00    +0.000 S 
ENDBRANCH   1  19
TORSDOF 2
ENDMDL
MODEL 8
REMARK VINA RESULT:      -5.4     19.117     20.019
REMARK  Name = 
REMARK  2 active torsions:
REMARK  status: ('A' for Active; 'I' for Inactive)
REMARK    1  A    between atoms: S_2  and  C_3
REMARK    2  A    between atoms: C_5  and  C_7
REMARK                            x       y       z     vdW  Elec       q    Type
REMARK                         _______ _______ _______ _____ _____    ______ ____
ROOT
ATOM      1  C   UNL     1      28.888   4.483  16.717  0.00  0.00    +0.000 C 
ATOM      2  N   UNL     1      27.759   3.977  16.427  0.00  0.00    +0.000 NA
ATOM      3  C   UNL     1      26.477   4.309  17.009  0.00  0.00    +0.000 C 
ATOM      4  C   UNL     1      25.686   5.189  16.039  0.00  0.00    +0.000 C 
ATOM      5  C   UNL     1      26.675   5.081  18.313  0.00  0.00    +0.000 C 
ATOM      6  C   UNL     1      27.685   6.166  18.007  0.00  0.00    +0.000 C 
ATOM      7  C   UNL     1      27.237   6.850  16.729  0.00  0.00    +0.000 C 
ATOM      8  C   UNL     1      27.823   7.147  19.145  0.00  0.00    +0.000 C 
ATOM      9  N   UNL     1      28.933   5.489  17.721  0.00  0.00    +0.000 NA
ENDROOT
BRANCH   3  10
ATOM     10  C   UNL     1      25.734   3.063  17.223  0.00  0.00    +0.000 A 
ATOM     11  C   UNL     1      26.248   1.866  16.825  0.00  0.00    +0.000 A 
ATOM     12  C   UNL     1      25.568   0.677  17.016  0.00  0.00    +0.000 A 
ATOM     13  C   UNL     1      24.326   0.655  17.624  0.00  0.00    +0.000 A 
ATOM     14  O   UNL     1      23.631  -0.530  17.823  0.00  0.00    +0.000 OA
ATOM     15  C   UNL     1      23.817   1.877  18.024  0.00  0.00    +0.000 A 
ATOM     16  C   UNL     1      24.489   3.059  17.836  0.00  0.00    +0.000 A 
ATOM     17  O   UNL     1      23.992   4.292  18.230  0.00  0.00    +0.000 OA
ENDBRANCH   3  10
BRANCH   1  19
ATOM     18  C   UNL     1      31.809   4.331  16.972  0.00  0.00    +0.000 C 
ATOM     19  S   UNL     1      30.412   3.964  15.900  0.00  0.00    +0.000 S 
ENDBRANCH   1  19
TORSDOF 2
ENDMDL
MODEL 9
REMARK VINA RESULT:      -5.3     14.545     16.680
REMARK  Name = 
REMARK  2 active torsions:
REMARK  status: ('A' for Active; 'I' for Inactive)
REMARK    1  A    between atoms: S_2  and  C_3
REMARK    2  A    between atoms: C_5  and  C_7
REMARK                            x       y       z     vdW  Elec       q    Type
REMARK                         _______ _______ _______ _____ _____    ______ ____
ROOT
ATOM      1  C   UNL     1      28.617  23.725  23.894  0.00  0.00    +0.000 C 
ATOM      2  N   UNL     1      28.195  24.128  25.023  0.00  0.00    +0.000 NA
ATOM      3  C   UNL     1      28.969  24.316  26.229  0.00  0.00    +0.000 C 
ATOM      4  C   UNL     1      29.233  25.808  26.442  0.00  0.00    +0.000 C 
ATOM      5  C   UNL     1      30.313  23.599  26.108  0.00  0.00    +0.000 C 
ATOM      6  C   UNL     1      30.879  23.994  24.761  0.00  0.00    +0.000 C 
ATOM      7  C   UNL     1      30.761  25.502  24.648  0.00  0.00    +0.000 C 
ATOM      8  C   UNL     1      32.305  23.532  24.589  0.00  0.00    +0.000 C 
ATOM      9  N   UNL     1      29.998  23.416  23.766  0.00  0.00    +0.000 NA
ENDROOT
BRANCH   3  10
ATOM     10  C   UNL     1      28.186  23.813  27.361  0.00  0.00    +0.000 A 
ATOM     11  C   UNL     1      28.764  23.040  28.323  0.00  0.00    +0.000 A 
ATOM     12  C   UNL     1      28.048  22.554  29.401  0.00  0.00    +0.000 A 
ATOM     13  C   UNL     1      26.701  22.834  29.547  0.00  0.00    +0.000 A 
ATOM     14  O   UNL     1      25.968  22.354  30.624  0.00  0.00    +0.000 OA
ATOM     15  C   UNL     1      26.127  23.620  28.565  0.00  0.00    +0.000 A 
ATOM     16  C   UNL     1      26.836  24.105  27.494  0.00  0.00    +0.000 A 
ATOM     17  O   UNL     1      26.275  24.894  26.501  0.00  0.00    +0.000 OA
ENDBRANCH   3  10
BRANCH   1  19
ATOM     18  C   UNL     1      25.831  23.336  23.051  0.00  0.00    +0.000 C 
ATOM     19  S   UNL     1      27.522  23.538  22.470  0.00  0.00    +0.000 S 
ENDBRANCH   1  19
TORSDOF 2
ENDMDL
MODEL 10
REMARK VINA RESULT:      -5.3     14.930     17.009
REMARK  Name = 
REMARK  2 active torsions:
REMARK  status: ('A' for Active; 'I' for Inactive)
REMARK    1  A    between atoms: S_2  and  C_3
REMARK    2  A    between atoms: C_5  and  C_7
REMARK                            x       y       z     vdW  Elec       q    Type
REMARK                         _______ _______ _______ _____ _____    ______ ____
ROOT
ATOM      1  C   UNL     1      29.570  25.328  27.651  0.00  0.00    +0.000 C 
ATOM      2  N   UNL     1      28.512  24.826  27.156  0.00  0.00    +0.000 NA
ATOM      3  C   UNL     1      28.253  23.431  26.880  0.00  0.00    +0.000 C 
ATOM      4  C   UNL     1      27.332  22.857  27.958  0.00  0.00    +0.000 C 
ATOM      5  C   UNL     1      29.561  22.641  26.889  0.00  0.00    +0.000 C 
ATOM      6  C   UNL     1      30.290  23.053  28.150  0.00  0.00    +0.000 C 
ATOM      7  C   UNL     1      29.295  22.971  29.292  0.00  0.00    +0.000 C 
ATOM      8  C   UNL     1      31.504  22.196  28.407  0.00  0.00    +0.000 C 
ATOM      9  N   UNL     1      30.638  24.449  27.980  0.00  0.00    +0.000 NA
ENDROOT
BRANCH   3  10
ATOM     10  C   UNL     1      27.572  23.339  25.585  0.00  0.00    +0.000 A 
ATOM     11  C   UNL     1      26.230  23.113  25.515  0.00  0.00    +0.000 A 
ATOM     12  C   UNL     1      25.564  23.022  24.307  0.00  0.00    +0.000 A 
ATOM     13  C   UNL     1      26.241  23.156  23.108  0.00  0.00    +0.000 A 
ATOM     14  O   UNL     1      25.586  23.067  21.886  0.00  0.00    +0.000 OA
ATOM     15  C   UNL     1      27.601  23.385  23.193  0.00  0.00    +0.000 A 
ATOM     16  C   UNL     1      28.266  23.476  24.391  0.00  0.00    +0.000 A 
ATOM     17  O   UNL     1      29.629  23.705  24.493  0.00  0.00    +0.000 OA
ENDBRANCH   3  10
BRANCH   1  19
ATOM     18  C   UNL     1      30.385  27.880  26.448  0.00  0.00    +0.000 C 
ATOM     19  S   UNL     1      29.748  27.102  27.940  0.00  0.00    +0.000 S 
ENDBRANCH   1  19
TORSDOF 2
ENDMDL
