MODEL 1
REMARK VINA RESULT:      -6.6      0.000      0.000
REMARK  Name = 
REMARK  11 active torsions:
REMARK  status: ('A' for Active; 'I' for Inactive)
REMARK    1  A    between atoms: C_2  and  O_3
REMARK    2  A    between atoms: O_3  and  C_4
REMARK    3  A    between atoms: C_4  and  C_6
REMARK    4  A    between atoms: C_6  and  S_8
REMARK    5  A    between atoms: S_8  and  C_9
REMARK    6  A    between atoms: C_12  and  C_13
REMARK    7  A    between atoms: N_15  and  C_16
REMARK    8  A    between atoms: C_16  and  C_17
REMARK    9  A    between atoms: C_17  and  C_18
REMARK   10  A    between atoms: C_18  and  C_19
REMARK   11  A    between atoms: C_18  and  C_25
REMARK                            x       y       z     vdW  Elec       q    Type
REMARK                         _______ _______ _______ _____ _____    ______ ____
ROOT
ATOM      1  C   UNL     1      38.591   0.786  13.998  0.00  0.00    +0.000 A 
ATOM      2  N   UNL     1      39.823   1.306  14.308  0.00  0.00    +0.000 NA
ATOM      3  C   UNL     1      40.736   0.328  14.320  0.00  0.00    +0.000 A 
ATOM      4  C   UNL     1      40.092  -0.846  14.015  0.00  0.00    +0.000 A 
ATOM      5  N   UNL     1      38.792  -0.527  13.827  0.00  0.00    +0.000 N 
ENDROOT
BRANCH   4   6
ATOM      6  C   UNL     1      40.693  -2.194  13.912  0.00  0.00    +0.000 C 
ATOM      7  O   UNL     1      40.661  -2.895  15.094  0.00  0.00    +0.000 OA
ENDBRANCH   4   6
BRANCH   1   8
ATOM      8  S   UNL     1      37.102   1.760  13.855  0.00  0.00    +0.000 S 
BRANCH   8   9
ATOM      9  C   UNL     1      36.438   2.110  15.596  0.00  0.00    +0.000 C 
ATOM     10  C   UNL     1      34.992   2.563  15.186  0.00  0.00    +0.000 C 
BRANCH   9  11
ATOM     11  C   UNL     1      37.080   3.506  15.785  0.00  0.00    +0.000 C 
ATOM     12  O   UNL     1      36.708   4.513  15.187  0.00  0.00    +0.000 OA
BRANCH  11  13
ATOM     13  O   UNL     1      38.149   3.539  16.718  0.00  0.00    +0.000 OA
BRANCH  13  15
ATOM     14  C   UNL     1      38.915   4.989  18.411  0.00  0.00    +0.000 C 
ATOM     15  C   UNL     1      38.727   4.837  16.896  0.00  0.00    +0.000 C 
ENDBRANCH  13  15
ENDBRANCH  11  13
ENDBRANCH   9  11
ENDBRANCH   8   9
ENDBRANCH   1   8
BRANCH   5  16
ATOM     16  C   UNL     1      37.805  -1.501  13.473  0.00  0.00    +0.000 C 
BRANCH  16  17
ATOM     17  C   UNL     1      36.821  -1.881  14.487  0.00  0.00    +0.000 C 
BRANCH  17  18
ATOM     18  C   UNL     1      37.103  -2.943  15.458  0.00  0.00    +0.000 C 
BRANCH  18  19
ATOM     19  C   UNL     1      37.209  -2.539  16.876  0.00  0.00    +0.000 A 
ATOM     20  C   UNL     1      38.265  -2.930  17.672  0.00  0.00    +0.000 A 
ATOM     21  C   UNL     1      38.424  -2.584  18.979  0.00  0.00    +0.000 A 
ATOM     22  C   UNL     1      37.477  -1.785  19.581  0.00  0.00    +0.000 A 
ATOM     23  C   UNL     1      36.392  -1.369  18.809  0.00  0.00    +0.000 A 
ATOM     24  C   UNL     1      36.252  -1.732  17.488  0.00  0.00    +0.000 A 
ENDBRANCH  18  19
BRANCH  18  25
ATOM     25  C   UNL     1      36.026  -3.987  15.394  0.00  0.00    +0.000 A 
ATOM     26  C   UNL     1      36.145  -5.189  16.060  0.00  0.00    +0.000 A 
ATOM     27  C   UNL     1      35.165  -6.158  16.010  0.00  0.00    +0.000 A 
ATOM     28  C   UNL     1      34.024  -5.908  15.264  0.00  0.00    +0.000 A 
ATOM     29  C   UNL     1      33.874  -4.720  14.587  0.00  0.00    +0.000 A 
ATOM     30  C   UNL     1      34.875  -3.789  14.667  0.00  0.00    +0.000 A 
ENDBRANCH  18  25
ENDBRANCH  17  18
ENDBRANCH  16  17
ENDBRANCH   5  16
TORSDOF 11
ENDMDL
MODEL 2
REMARK VINA RESULT:      -6.5      2.253      4.469
REMARK  Name = 
REMARK  11 active torsions:
REMARK  status: ('A' for Active; 'I' for Inactive)
REMARK    1  A    between atoms: C_2  and  O_3
REMARK    2  A    between atoms: O_3  and  C_4
REMARK    3  A    between atoms: C_4  and  C_6
REMARK    4  A    between atoms: C_6  and  S_8
REMARK    5  A    between atoms: S_8  and  C_9
REMARK    6  A    between atoms: C_12  and  C_13
REMARK    7  A    between atoms: N_15  and  C_16
REMARK    8  A    between atoms: C_16  and  C_17
REMARK    9  A    between atoms: C_17  and  C_18
REMARK   10  A    between atoms: C_18  and  C_19
REMARK   11  A    between atoms: C_18  and  C_25
REMARK                            x       y       z     vdW  Elec       q    Type
REMARK                         _______ _______ _______ _____ _____    ______ ____
ROOT
ATOM      1  C   UNL     1      35.882   2.208  15.018  0.00  0.00    +0.000 A 
ATOM      2  N   UNL     1      35.109   2.575  16.091  0.00  0.00    +0.000 NA
ATOM      3  C   UNL     1      34.784   1.491  16.805  0.00  0.00    +0.000 A 
ATOM      4  C   UNL     1      35.352   0.402  16.190  0.00  0.00    +0.000 A 
ATOM      5  N   UNL     1      36.010   0.878  15.110  0.00  0.00    +0.000 N 
ENDROOT
BRANCH   4   6
ATOM      6  C   UNL     1      35.267  -1.011  16.619  0.00  0.00    +0.000 C 
ATOM      7  O   UNL     1      36.040  -1.293  17.719  0.00  0.00    +0.000 OA
ENDBRANCH   4   6
BRANCH   1   8
ATOM      8  S   UNL     1      36.548   3.358  13.825  0.00  0.00    +0.000 S 
BRANCH   8   9
ATOM      9  C   UNL     1      37.526   4.692  14.752  0.00  0.00    +0.000 C 
ATOM     10  C   UNL     1      38.303   5.280  13.521  0.00  0.00    +0.000 C 
BRANCH   9  11
ATOM     11  C   UNL     1      38.637   3.776  15.319  0.00  0.00    +0.000 C 
ATOM     12  O   UNL     1      39.337   3.044  14.623  0.00  0.00    +0.000 OA
BRANCH  11  13
ATOM     13  O   UNL     1      38.792   3.845  16.728  0.00  0.00    +0.000 OA
BRANCH  13  15
ATOM     14  C   UNL     1      39.074   5.295  18.565  0.00  0.00    +0.000 C 
ATOM     15  C   UNL     1      38.221   5.017  17.321  0.00  0.00    +0.000 C 
ENDBRANCH  13  15
ENDBRANCH  11  13
ENDBRANCH   9  11
ENDBRANCH   8   9
ENDBRANCH   1   8
BRANCH   5  16
ATOM     16  C   UNL     1      36.747   0.030  14.224  0.00  0.00    +0.000 C 
BRANCH  16  17
ATOM     17  C   UNL     1      38.138  -0.274  14.562  0.00  0.00    +0.000 C 
BRANCH  17  18
ATOM     18  C   UNL     1      38.739  -1.564  14.211  0.00  0.00    +0.000 C 
BRANCH  18  19
ATOM     19  C   UNL     1      40.202  -1.583  14.001  0.00  0.00    +0.000 A 
ATOM     20  C   UNL     1      40.853  -2.678  13.476  0.00  0.00    +0.000 A 
ATOM     21  C   UNL     1      42.193  -2.753  13.249  0.00  0.00    +0.000 A 
ATOM     22  C   UNL     1      42.986  -1.670  13.557  0.00  0.00    +0.000 A 
ATOM     23  C   UNL     1      42.366  -0.541  14.091  0.00  0.00    +0.000 A 
ATOM     24  C   UNL     1      41.007  -0.488  14.312  0.00  0.00    +0.000 A 
ENDBRANCH  18  19
BRANCH  18  25
ATOM     25  C   UNL     1      38.454  -2.567  15.293  0.00  0.00    +0.000 A 
ATOM     26  C   UNL     1      37.530  -3.574  15.118  0.00  0.00    +0.000 A 
ATOM     27  C   UNL     1      37.256  -4.502  16.101  0.00  0.00    +0.000 A 
ATOM     28  C   UNL     1      37.939  -4.412  17.304  0.00  0.00    +0.000 A 
ATOM     29  C   UNL     1      38.868  -3.418  17.512  0.00  0.00    +0.000 A 
ATOM     30  C   UNL     1      39.105  -2.521  16.504  0.00  0.00    +0.000 A 
ENDBRANCH  18  25
ENDBRANCH  17  18
ENDBRANCH  16  17
ENDBRANCH   5  16
TORSDOF 11
ENDMDL
MODEL 3
REMARK VINA RESULT:      -6.5      2.492      5.534
REMARK  Name = 
REMARK  11 active torsions:
REMARK  status: ('A' for Active; 'I' for Inactive)
REMARK    1  A    between atoms: C_2  and  O_3
REMARK    2  A    between atoms: O_3  and  C_4
REMARK    3  A    between atoms: C_4  and  C_6
REMARK    4  A    between atoms: C_6  and  S_8
REMARK    5  A    between atoms: S_8  and  C_9
REMARK    6  A    between atoms: C_12  and  C_13
REMARK    7  A    between atoms: N_15  and  C_16
REMARK    8  A    between atoms: C_16  and  C_17
REMARK    9  A    between atoms: C_17  and  C_18
REMARK   10  A    between atoms: C_18  and  C_19
REMARK   11  A    between atoms: C_18  and  C_25
REMARK                            x       y       z     vdW  Elec       q    Type
REMARK                         _______ _______ _______ _____ _____    ______ ____
ROOT
ATOM      1  C   UNL     1      36.251  -0.352  17.403  0.00  0.00    +0.000 A 
ATOM      2  N   UNL     1      36.870  -0.498  18.619  0.00  0.00    +0.000 NA
ATOM      3  C   UNL     1      37.583  -1.630  18.629  0.00  0.00    +0.000 A 
ATOM      4  C   UNL     1      37.427  -2.231  17.404  0.00  0.00    +0.000 A 
ATOM      5  N   UNL     1      36.612  -1.424  16.689  0.00  0.00    +0.000 N 
ENDROOT
BRANCH   4   6
ATOM      6  C   UNL     1      38.028  -3.504  16.951  0.00  0.00    +0.000 C 
ATOM      7  O   UNL     1      39.213  -3.800  17.580  0.00  0.00    +0.000 OA
ENDBRANCH   4   6
BRANCH   1   8
ATOM      8  S   UNL     1      35.220   1.040  16.967  0.00  0.00    +0.000 S 
BRANCH   8   9
ATOM      9  C   UNL     1      36.205   2.187  15.822  0.00  0.00    +0.000 C 
ATOM     10  C   UNL     1      36.753   3.165  16.921  0.00  0.00    +0.000 C 
BRANCH   9  11
ATOM     11  C   UNL     1      35.018   3.040  15.314  0.00  0.00    +0.000 C 
ATOM     12  O   UNL     1      33.941   3.124  15.899  0.00  0.00    +0.000 OA
BRANCH  11  13
ATOM     13  O   UNL     1      35.269   3.732  14.100  0.00  0.00    +0.000 OA
BRANCH  13  15
ATOM     14  C   UNL     1      36.528   5.721  14.233  0.00  0.00    +0.000 C 
ATOM     15  C   UNL     1      35.104   5.151  14.194  0.00  0.00    +0.000 C 
ENDBRANCH  13  15
ENDBRANCH  11  13
ENDBRANCH   9  11
ENDBRANCH   8   9
ENDBRANCH   1   8
BRANCH   5  16
ATOM     16  C   UNL     1      36.231  -1.718  15.340  0.00  0.00    +0.000 C 
BRANCH  16  17
ATOM     17  C   UNL     1      36.979  -1.074  14.260  0.00  0.00    +0.000 C 
BRANCH  17  18
ATOM     18  C   UNL     1      38.388  -0.705  14.428  0.00  0.00    +0.000 C 
BRANCH  18  19
ATOM     19  C   UNL     1      39.387  -1.575  13.773  0.00  0.00    +0.000 A 
ATOM     20  C   UNL     1      39.278  -1.951  12.452  0.00  0.00    +0.000 A 
ATOM     21  C   UNL     1      40.169  -2.740  11.790  0.00  0.00    +0.000 A 
ATOM     22  C   UNL     1      41.272  -3.216  12.464  0.00  0.00    +0.000 A 
ATOM     23  C   UNL     1      41.419  -2.859  13.804  0.00  0.00    +0.000 A 
ATOM     24  C   UNL     1      40.504  -2.059  14.453  0.00  0.00    +0.000 A 
ENDBRANCH  18  19
BRANCH  18  25
ATOM     25  C   UNL     1      38.617   0.680  13.893  0.00  0.00    +0.000 A 
ATOM     26  C   UNL     1      39.573   1.513  14.434  0.00  0.00    +0.000 A 
ATOM     27  C   UNL     1      39.794   2.788  13.955  0.00  0.00    +0.000 A 
ATOM     28  C   UNL     1      39.026   3.238  12.893  0.00  0.00    +0.000 A 
ATOM     29  C   UNL     1      38.063   2.432  12.331  0.00  0.00    +0.000 A 
ATOM     30  C   UNL     1      37.881   1.174  12.841  0.00  0.00    +0.000 A 
ENDBRANCH  18  25
ENDBRANCH  17  18
ENDBRANCH  16  17
ENDBRANCH   5  16
TORSDOF 11
ENDMDL
MODEL 4
REMARK VINA RESULT:      -6.4      1.319      3.395
REMARK  Name = 
REMARK  11 active torsions:
REMARK  status: ('A' for Active; 'I' for Inactive)
REMARK    1  A    between atoms: C_2  and  O_3
REMARK    2  A    between atoms: O_3  and  C_4
REMARK    3  A    between atoms: C_4  and  C_6
REMARK    4  A    between atoms: C_6  and  S_8
REMARK    5  A    between atoms: S_8  and  C_9
REMARK    6  A    between atoms: C_12  and  C_13
REMARK    7  A    between atoms: N_15  and  C_16
REMARK    8  A    between atoms: C_16  and  C_17
REMARK    9  A    between atoms: C_17  and  C_18
REMARK   10  A    between atoms: C_18  and  C_19
REMARK   11  A    between atoms: C_18  and  C_25
REMARK                            x       y       z     vdW  Elec       q    Type
REMARK                         _______ _______ _______ _____ _____    ______ ____
ROOT
ATOM      1  C   UNL     1      38.547  -0.062  12.735  0.00  0.00    +0.000 A 
ATOM      2  N   UNL     1      39.697   0.495  12.233  0.00  0.00    +0.000 NA
ATOM      3  C   UNL     1      40.605  -0.463  12.016  0.00  0.00    +0.000 A 
ATOM      4  C   UNL     1      40.041  -1.661  12.380  0.00  0.00    +0.000 A 
ATOM      5  N   UNL     1      38.792  -1.375  12.811  0.00  0.00    +0.000 N 
ENDROOT
BRANCH   4   6
ATOM      6  C   UNL     1      40.668  -2.999  12.316  0.00  0.00    +0.000 C 
ATOM      7  O   UNL     1      41.477  -3.271  13.394  0.00  0.00    +0.000 OA
ENDBRANCH   4   6
BRANCH   1   8
ATOM      8  S   UNL     1      37.079   0.870  13.140  0.00  0.00    +0.000 S 
BRANCH   8   9
ATOM      9  C   UNL     1      37.116   1.284  14.990  0.00  0.00    +0.000 C 
ATOM     10  C   UNL     1      35.602   1.662  15.155  0.00  0.00    +0.000 C 
BRANCH   9  11
ATOM     11  C   UNL     1      37.707   2.710  14.871  0.00  0.00    +0.000 C 
ATOM     12  O   UNL     1      37.613   3.402  13.859  0.00  0.00    +0.000 OA
BRANCH  11  13
ATOM     13  O   UNL     1      38.375   3.168  16.035  0.00  0.00    +0.000 OA
BRANCH  13  15
ATOM     14  C   UNL     1      38.637   4.770  17.745  0.00  0.00    +0.000 C 
ATOM     15  C   UNL     1      38.219   4.570  16.282  0.00  0.00    +0.000 C 
ENDBRANCH  13  15
ENDBRANCH  11  13
ENDBRANCH   9  11
ENDBRANCH   8   9
ENDBRANCH   1   8
BRANCH   5  16
ATOM     16  C   UNL     1      37.886  -2.387  13.262  0.00  0.00    +0.000 C 
BRANCH  16  17
ATOM     17  C   UNL     1      37.561  -2.433  14.687  0.00  0.00    +0.000 C 
BRANCH  17  18
ATOM     18  C   UNL     1      36.171  -2.498  15.148  0.00  0.00    +0.000 C 
BRANCH  18  19
ATOM     19  C   UNL     1      35.569  -3.843  15.265  0.00  0.00    +0.000 A 
ATOM     20  C   UNL     1      36.141  -4.837  16.031  0.00  0.00    +0.000 A 
ATOM     21  C   UNL     1      35.631  -6.090  16.187  0.00  0.00    +0.000 A 
ATOM     22  C   UNL     1      34.458  -6.421  15.544  0.00  0.00    +0.000 A 
ATOM     23  C   UNL     1      33.849  -5.443  14.759  0.00  0.00    +0.000 A 
ATOM     24  C   UNL     1      34.383  -4.181  14.616  0.00  0.00    +0.000 A 
ENDBRANCH  18  19
BRANCH  18  25
ATOM     25  C   UNL     1      36.055  -1.863  16.504  0.00  0.00    +0.000 A 
ATOM     26  C   UNL     1      34.844  -1.425  16.994  0.00  0.00    +0.000 A 
ATOM     27  C   UNL     1      34.721  -0.838  18.237  0.00  0.00    +0.000 A 
ATOM     28  C   UNL     1      35.860  -0.688  19.013  0.00  0.00    +0.000 A 
ATOM     29  C   UNL     1      37.085  -1.114  18.552  0.00  0.00    +0.000 A 
ATOM     30  C   UNL     1      37.155  -1.690  17.312  0.00  0.00    +0.000 A 
ENDBRANCH  18  25
ENDBRANCH  17  18
ENDBRANCH  16  17
ENDBRANCH   5  16
TORSDOF 11
ENDMDL
MODEL 5
REMARK VINA RESULT:      -6.2      2.818      7.755
REMARK  Name = 
REMARK  11 active torsions:
REMARK  status: ('A' for Active; 'I' for Inactive)
REMARK    1  A    between atoms: C_2  and  O_3
REMARK    2  A    between atoms: O_3  and  C_4
REMARK    3  A    between atoms: C_4  and  C_6
REMARK    4  A    between atoms: C_6  and  S_8
REMARK    5  A    between atoms: S_8  and  C_9
REMARK    6  A    between atoms: C_12  and  C_13
REMARK    7  A    between atoms: N_15  and  C_16
REMARK    8  A    between atoms: C_16  and  C_17
REMARK    9  A    between atoms: C_17  and  C_18
REMARK   10  A    between atoms: C_18  and  C_19
REMARK   11  A    between atoms: C_18  and  C_25
REMARK                            x       y       z     vdW  Elec       q    Type
REMARK                         _______ _______ _______ _____ _____    ______ ____
ROOT
ATOM      1  C   UNL     1      38.178   0.458  12.965  0.00  0.00    +0.000 A 
ATOM      2  N   UNL     1      37.369   0.255  11.874  0.00  0.00    +0.000 NA
ATOM      3  C   UNL     1      37.416   1.324  11.072  0.00  0.00    +0.000 A 
ATOM      4  C   UNL     1      38.266   2.238  11.646  0.00  0.00    +0.000 A 
ATOM      5  N   UNL     1      38.707   1.675  12.793  0.00  0.00    +0.000 N 
ENDROOT
BRANCH   4   6
ATOM      6  C   UNL     1      38.630   3.572  11.120  0.00  0.00    +0.000 C 
ATOM      7  O   UNL     1      37.625   4.499  11.252  0.00  0.00    +0.000 OA
ENDBRANCH   4   6
BRANCH   1   8
ATOM      8  S   UNL     1      38.417  -0.739  14.269  0.00  0.00    +0.000 S 
BRANCH   8   9
ATOM      9  C   UNL     1      36.760  -1.015  15.148  0.00  0.00    +0.000 C 
ATOM     10  C   UNL     1      36.485   0.477  15.555  0.00  0.00    +0.000 C 
BRANCH   9  11
ATOM     11  C   UNL     1      37.324  -1.529  16.495  0.00  0.00    +0.000 C 
ATOM     12  O   UNL     1      37.752  -2.669  16.662  0.00  0.00    +0.000 OA
BRANCH  11  13
ATOM     13  O   UNL     1      37.313  -0.571  17.541  0.00  0.00    +0.000 OA
BRANCH  13  15
ATOM     14  C   UNL     1      35.674  -0.435  19.230  0.00  0.00    +0.000 C 
ATOM     15  C   UNL     1      36.989  -1.114  18.825  0.00  0.00    +0.000 C 
ENDBRANCH  13  15
ENDBRANCH  11  13
ENDBRANCH   9  11
ENDBRANCH   8   9
ENDBRANCH   1   8
BRANCH   5  16
ATOM     16  C   UNL     1      39.635   2.331  13.663  0.00  0.00    +0.000 C 
BRANCH  16  17
ATOM     17  C   UNL     1      39.105   3.007  14.848  0.00  0.00    +0.000 C 
BRANCH  17  18
ATOM     18  C   UNL     1      38.901   4.459  14.865  0.00  0.00    +0.000 C 
BRANCH  18  19
ATOM     19  C   UNL     1      37.531   4.943  14.597  0.00  0.00    +0.000 A 
ATOM     20  C   UNL     1      36.450   4.089  14.540  0.00  0.00    +0.000 A 
ATOM     21  C   UNL     1      35.165   4.474  14.307  0.00  0.00    +0.000 A 
ATOM     22  C   UNL     1      34.890   5.809  14.110  0.00  0.00    +0.000 A 
ATOM     23  C   UNL     1      35.957   6.706  14.160  0.00  0.00    +0.000 A 
ATOM     24  C   UNL     1      37.250   6.293  14.397  0.00  0.00    +0.000 A 
ENDBRANCH  18  19
BRANCH  18  25
ATOM     25  C   UNL     1      39.289   5.009  16.207  0.00  0.00    +0.000 A 
ATOM     26  C   UNL     1      40.350   5.878  16.352  0.00  0.00    +0.000 A 
ATOM     27  C   UNL     1      40.720   6.392  17.578  0.00  0.00    +0.000 A 
ATOM     28  C   UNL     1      39.995   6.016  18.698  0.00  0.00    +0.000 A 
ATOM     29  C   UNL     1      38.931   5.150  18.589  0.00  0.00    +0.000 A 
ATOM     30  C   UNL     1      38.603   4.668  17.350  0.00  0.00    +0.000 A 
ENDBRANCH  18  25
ENDBRANCH  17  18
ENDBRANCH  16  17
ENDBRANCH   5  16
TORSDOF 11
ENDMDL
MODEL 6
REMARK VINA RESULT:      -6.2      2.413      4.529
REMARK  Name = 
REMARK  11 active torsions:
REMARK  status: ('A' for Active; 'I' for Inactive)
REMARK    1  A    between atoms: C_2  and  O_3
REMARK    2  A    between atoms: O_3  and  C_4
REMARK    3  A    between atoms: C_4  and  C_6
REMARK    4  A    between atoms: C_6  and  S_8
REMARK    5  A    between atoms: S_8  and  C_9
REMARK    6  A    between atoms: C_12  and  C_13
REMARK    7  A    between atoms: N_15  and  C_16
REMARK    8  A    between atoms: C_16  and  C_17
REMARK    9  A    between atoms: C_17  and  C_18
REMARK   10  A    between atoms: C_18  and  C_19
REMARK   11  A    between atoms: C_18  and  C_25
REMARK                            x       y       z     vdW  Elec       q    Type
REMARK                         _______ _______ _______ _____ _____    ______ ____
ROOT
ATOM      1  C   UNL     1      38.520   2.065  13.406  0.00  0.00    +0.000 A 
ATOM      2  N   UNL     1      39.535   2.851  12.922  0.00  0.00    +0.000 NA
ATOM      3  C   UNL     1      40.043   2.301  11.814  0.00  0.00    +0.000 A 
ATOM      4  C   UNL     1      39.351   1.139  11.571  0.00  0.00    +0.000 A 
ATOM      5  N   UNL     1      38.436   1.031  12.560  0.00  0.00    +0.000 N 
ENDROOT
BRANCH   4   6
ATOM      6  C   UNL     1      39.560   0.192  10.455  0.00  0.00    +0.000 C 
ATOM      7  O   UNL     1      40.665  -0.609  10.622  0.00  0.00    +0.000 OA
ENDBRANCH   4   6
BRANCH   1   8
ATOM      8  S   UNL     1      37.560   2.455  14.861  0.00  0.00    +0.000 S 
BRANCH   8   9
ATOM      9  C   UNL     1      35.845   3.050  14.312  0.00  0.00    +0.000 C 
ATOM     10  C   UNL     1      36.052   4.581  14.593  0.00  0.00    +0.000 C 
BRANCH   9  11
ATOM     11  C   UNL     1      35.074   2.674  15.601  0.00  0.00    +0.000 C 
ATOM     12  O   UNL     1      33.924   3.038  15.836  0.00  0.00    +0.000 OA
BRANCH  11  13
ATOM     13  O   UNL     1      35.805   1.863  16.507  0.00  0.00    +0.000 OA
BRANCH  13  15
ATOM     14  C   UNL     1      35.405  -0.450  16.287  0.00  0.00    +0.000 C 
ATOM     15  C   UNL     1      35.038   0.805  17.091  0.00  0.00    +0.000 C 
ENDBRANCH  13  15
ENDBRANCH  11  13
ENDBRANCH   9  11
ENDBRANCH   8   9
ENDBRANCH   1   8
BRANCH   5  16
ATOM     16  C   UNL     1      37.509  -0.057  12.633  0.00  0.00    +0.000 C 
BRANCH  16  17
ATOM     17  C   UNL     1      37.990  -1.335  13.158  0.00  0.00    +0.000 C 
BRANCH  17  18
ATOM     18  C   UNL     1      38.789  -1.398  14.386  0.00  0.00    +0.000 C 
BRANCH  18  19
ATOM     19  C   UNL     1      38.446  -2.464  15.350  0.00  0.00    +0.000 A 
ATOM     20  C   UNL     1      39.051  -2.558  16.585  0.00  0.00    +0.000 A 
ATOM     21  C   UNL     1      38.773  -3.509  17.519  0.00  0.00    +0.000 A 
ATOM     22  C   UNL     1      37.820  -4.463  17.239  0.00  0.00    +0.000 A 
ATOM     23  C   UNL     1      37.185  -4.404  16.000  0.00  0.00    +0.000 A 
ATOM     24  C   UNL     1      37.483  -3.432  15.070  0.00  0.00    +0.000 A 
ENDBRANCH  18  19
BRANCH  18  25
ATOM     25  C   UNL     1      40.238  -1.590  14.039  0.00  0.00    +0.000 A 
ATOM     26  C   UNL     1      41.181  -0.624  14.317  0.00  0.00    +0.000 A 
ATOM     27  C   UNL     1      42.514  -0.785  14.004  0.00  0.00    +0.000 A 
ATOM     28  C   UNL     1      42.912  -1.962  13.389  0.00  0.00    +0.000 A 
ATOM     29  C   UNL     1      41.996  -2.946  13.098  0.00  0.00    +0.000 A 
ATOM     30  C   UNL     1      40.684  -2.739  13.429  0.00  0.00    +0.000 A 
ENDBRANCH  18  25
ENDBRANCH  17  18
ENDBRANCH  16  17
ENDBRANCH   5  16
TORSDOF 11
ENDMDL
MODEL 7
REMARK VINA RESULT:      -6.0      5.057      9.100
REMARK  Name = 
REMARK  11 active torsions:
REMARK  status: ('A' for Active; 'I' for Inactive)
REMARK    1  A    between atoms: C_2  and  O_3
REMARK    2  A    between atoms: O_3  and  C_4
REMARK    3  A    between atoms: C_4  and  C_6
REMARK    4  A    between atoms: C_6  and  S_8
REMARK    5  A    between atoms: S_8  and  C_9
REMARK    6  A    between atoms: C_12  and  C_13
REMARK    7  A    between atoms: N_15  and  C_16
REMARK    8  A    between atoms: C_16  and  C_17
REMARK    9  A    between atoms: C_17  and  C_18
REMARK   10  A    between atoms: C_18  and  C_19
REMARK   11  A    between atoms: C_18  and  C_25
REMARK                            x       y       z     vdW  Elec       q    Type
REMARK                         _______ _______ _______ _____ _____    ______ ____
ROOT
ATOM      1  C   UNL     1      36.261   4.437  14.834  0.00  0.00    +0.000 A 
ATOM      2  N   UNL     1      35.090   3.773  14.567  0.00  0.00    +0.000 NA
ATOM      3  C   UNL     1      34.937   2.763  15.430  0.00  0.00    +0.000 A 
ATOM      4  C   UNL     1      36.022   2.767  16.272  0.00  0.00    +0.000 A 
ATOM      5  N   UNL     1      36.803   3.798  15.877  0.00  0.00    +0.000 N 
ENDROOT
BRANCH   4   6
ATOM      6  C   UNL     1      36.289   1.835  17.389  0.00  0.00    +0.000 C 
ATOM      7  O   UNL     1      36.648   0.576  16.970  0.00  0.00    +0.000 OA
ENDBRANCH   4   6
BRANCH   1   8
ATOM      8  S   UNL     1      36.831   5.865  13.925  0.00  0.00    +0.000 S 
BRANCH   8   9
ATOM      9  C   UNL     1      35.554   6.278  12.585  0.00  0.00    +0.000 C 
ATOM     10  C   UNL     1      36.257   7.558  12.008  0.00  0.00    +0.000 C 
BRANCH   9  11
ATOM     11  C   UNL     1      34.512   6.968  13.498  0.00  0.00    +0.000 C 
ATOM     12  O   UNL     1      33.306   6.738  13.448  0.00  0.00    +0.000 OA
BRANCH  11  13
ATOM     13  O   UNL     1      35.062   7.901  14.414  0.00  0.00    +0.000 OA
BRANCH  13  15
ATOM     14  C   UNL     1      34.193  10.063  14.053  0.00  0.00    +0.000 C 
ATOM     15  C   UNL     1      34.106   8.822  14.951  0.00  0.00    +0.000 C 
ENDBRANCH  13  15
ENDBRANCH  11  13
ENDBRANCH   9  11
ENDBRANCH   8   9
ENDBRANCH   1   8
BRANCH   5  16
ATOM     16  C   UNL     1      38.028   4.129  16.537  0.00  0.00    +0.000 C 
BRANCH  16  17
ATOM     17  C   UNL     1      38.372   5.544  16.677  0.00  0.00    +0.000 C 
BRANCH  17  18
ATOM     18  C   UNL     1      38.576   6.148  17.997  0.00  0.00    +0.000 C 
BRANCH  18  19
ATOM     19  C   UNL     1      39.972   6.274  18.465  0.00  0.00    +0.000 A 
ATOM     20  C   UNL     1      41.026   6.434  17.591  0.00  0.00    +0.000 A 
ATOM     21  C   UNL     1      42.331   6.565  17.960  0.00  0.00    +0.000 A 
ATOM     22  C   UNL     1      42.654   6.539  19.298  0.00  0.00    +0.000 A 
ATOM     23  C   UNL     1      41.616   6.379  20.215  0.00  0.00    +0.000 A 
ATOM     24  C   UNL     1      40.303   6.248  19.819  0.00  0.00    +0.000 A 
ENDBRANCH  18  19
BRANCH  18  25
ATOM     25  C   UNL     1      37.997   7.534  18.016  0.00  0.00    +0.000 A 
ATOM     26  C   UNL     1      37.742   8.195  19.198  0.00  0.00    +0.000 A 
ATOM     27  C   UNL     1      37.209   9.467  19.232  0.00  0.00    +0.000 A 
ATOM     28  C   UNL     1      36.924  10.096  18.030  0.00  0.00    +0.000 A 
ATOM     29  C   UNL     1      37.167   9.465  16.831  0.00  0.00    +0.000 A 
ATOM     30  C   UNL     1      37.697   8.202  16.851  0.00  0.00    +0.000 A 
ENDBRANCH  18  25
ENDBRANCH  17  18
ENDBRANCH  16  17
ENDBRANCH   5  16
TORSDOF 11
ENDMDL
MODEL 8
REMARK VINA RESULT:      -6.0     27.287     30.284
REMARK  Name = 
REMARK  11 active torsions:
REMARK  status: ('A' for Active; 'I' for Inactive)
REMARK    1  A    between atoms: C_2  and  O_3
REMARK    2  A    between atoms: O_3  and  C_4
REMARK    3  A    between atoms: C_4  and  C_6
REMARK    4  A    between atoms: C_6  and  S_8
REMARK    5  A    between atoms: S_8  and  C_9
REMARK    6  A    between atoms: C_12  and  C_13
REMARK    7  A    between atoms: N_15  and  C_16
REMARK    8  A    between atoms: C_16  and  C_17
REMARK    9  A    between atoms: C_17  and  C_18
REMARK   10  A    between atoms: C_18  and  C_19
REMARK   11  A    between atoms: C_18  and  C_25
REMARK                            x       y       z     vdW  Elec       q    Type
REMARK                         _______ _______ _______ _____ _____    ______ ____
ROOT
ATOM      1  C   UNL     1      25.719  14.724  40.607  0.00  0.00    +0.000 A 
ATOM      2  N   UNL     1      25.606  15.373  41.812  0.00  0.00    +0.000 NA
ATOM      3  C   UNL     1      24.794  16.428  41.682  0.00  0.00    +0.000 A 
ATOM      4  C   UNL     1      24.371  16.470  40.376  0.00  0.00    +0.000 A 
ATOM      5  N   UNL     1      24.954  15.419  39.756  0.00  0.00    +0.000 N 
ENDROOT
BRANCH   4   6
ATOM      6  C   UNL     1      23.461  17.461  39.763  0.00  0.00    +0.000 C 
ATOM      7  O   UNL     1      24.103  18.602  39.345  0.00  0.00    +0.000 OA
ENDBRANCH   4   6
BRANCH   1   8
ATOM      8  S   UNL     1      26.693  13.249  40.353  0.00  0.00    +0.000 S 
BRANCH   8   9
ATOM      9  C   UNL     1      26.249  11.992  41.702  0.00  0.00    +0.000 C 
ATOM     10  C   UNL     1      27.256  12.493  42.798  0.00  0.00    +0.000 C 
BRANCH   9  11
ATOM     11  C   UNL     1      27.069  10.801  41.152  0.00  0.00    +0.000 C 
ATOM     12  O   UNL     1      26.566   9.832  40.587  0.00  0.00    +0.000 OA
BRANCH  11  13
ATOM     13  O   UNL     1      28.470  10.911  41.349  0.00  0.00    +0.000 OA
BRANCH  13  15
ATOM     14  C   UNL     1      30.425  11.221  40.068  0.00  0.00    +0.000 C 
ATOM     15  C   UNL     1      29.253  10.267  40.338  0.00  0.00    +0.000 C 
ENDBRANCH  13  15
ENDBRANCH  11  13
ENDBRANCH   9  11
ENDBRANCH   8   9
ENDBRANCH   1   8
BRANCH   5  16
ATOM     16  C   UNL     1      24.733  15.124  38.374  0.00  0.00    +0.000 C 
BRANCH  16  17
ATOM     17  C   UNL     1      25.508  15.867  37.380  0.00  0.00    +0.000 C 
BRANCH  17  18
ATOM     18  C   UNL     1      26.224  15.175  36.304  0.00  0.00    +0.000 C 
BRANCH  18  19
ATOM     19  C   UNL     1      25.746  15.412  34.925  0.00  0.00    +0.000 A 
ATOM     20  C   UNL     1      25.330  16.654  34.498  0.00  0.00    +0.000 A 
ATOM     21  C   UNL     1      24.890  16.938  33.241  0.00  0.00    +0.000 A 
ATOM     22  C   UNL     1      24.845  15.930  32.303  0.00  0.00    +0.000 A 
ATOM     23  C   UNL     1      25.258  14.658  32.696  0.00  0.00    +0.000 A 
ATOM     24  C   UNL     1      25.699  14.394  33.974  0.00  0.00    +0.000 A 
ENDBRANCH  18  19
BRANCH  18  25
ATOM     25  C   UNL     1      27.673  15.568  36.323  0.00  0.00    +0.000 A 
ATOM     26  C   UNL     1      28.537  15.191  35.317  0.00  0.00    +0.000 A 
ATOM     27  C   UNL     1      29.871  15.543  35.322  0.00  0.00    +0.000 A 
ATOM     28  C   UNL     1      30.351  16.303  36.378  0.00  0.00    +0.000 A 
ATOM     29  C   UNL     1      29.515  16.696  37.398  0.00  0.00    +0.000 A 
ATOM     30  C   UNL     1      28.199  16.321  37.348  0.00  0.00    +0.000 A 
ENDBRANCH  18  25
ENDBRANCH  17  18
ENDBRANCH  16  17
ENDBRANCH   5  16
TORSDOF 11
ENDMDL
MODEL 9
REMARK VINA RESULT:      -6.0      3.612      9.806
REMARK  Name = 
REMARK  11 active torsions:
REMARK  status: ('A' for Active; 'I' for Inactive)
REMARK    1  A    between atoms: C_2  and  O_3
REMARK    2  A    between atoms: O_3  and  C_4
REMARK    3  A    between atoms: C_4  and  C_6
REMARK    4  A    between atoms: C_6  and  S_8
REMARK    5  A    between atoms: S_8  and  C_9
REMARK    6  A    between atoms: C_12  and  C_13
REMARK    7  A    between atoms: N_15  and  C_16
REMARK    8  A    between atoms: C_16  and  C_17
REMARK    9  A    between atoms: C_17  and  C_18
REMARK   10  A    between atoms: C_18  and  C_19
REMARK   11  A    between atoms: C_18  and  C_25
REMARK                            x       y       z     vdW  Elec       q    Type
REMARK                         _______ _______ _______ _____ _____    ______ ____
ROOT
ATOM      1  C   UNL     1      37.282   4.313  15.082  0.00  0.00    +0.000 A 
ATOM      2  N   UNL     1      36.675   4.724  13.922  0.00  0.00    +0.000 NA
ATOM      3  C   UNL     1      36.658   6.061  13.871  0.00  0.00    +0.000 A 
ATOM      4  C   UNL     1      37.262   6.529  15.012  0.00  0.00    +0.000 A 
ATOM      5  N   UNL     1      37.626   5.437  15.721  0.00  0.00    +0.000 N 
ENDROOT
BRANCH   4   6
ATOM      6  C   UNL     1      37.474   7.941  15.396  0.00  0.00    +0.000 C 
ATOM      7  O   UNL     1      36.336   8.554  15.863  0.00  0.00    +0.000 OA
ENDBRANCH   4   6
BRANCH   1   8
ATOM      8  S   UNL     1      37.530   2.601  15.528  0.00  0.00    +0.000 S 
BRANCH   8   9
ATOM      9  C   UNL     1      35.927   1.648  15.183  0.00  0.00    +0.000 C 
ATOM     10  C   UNL     1      35.036   2.325  16.284  0.00  0.00    +0.000 C 
BRANCH   9  11
ATOM     11  C   UNL     1      36.294   0.348  15.939  0.00  0.00    +0.000 C 
ATOM     12  O   UNL     1      37.401   0.136  16.429  0.00  0.00    +0.000 OA
BRANCH  11  13
ATOM     13  O   UNL     1      35.239  -0.597  16.027  0.00  0.00    +0.000 OA
BRANCH  13  15
ATOM     14  C   UNL     1      33.663  -1.666  17.417  0.00  0.00    +0.000 C 
ATOM     15  C   UNL     1      35.130  -1.230  17.307  0.00  0.00    +0.000 C 
ENDBRANCH  13  15
ENDBRANCH  11  13
ENDBRANCH   9  11
ENDBRANCH   8   9
ENDBRANCH   1   8
BRANCH   5  16
ATOM     16  C   UNL     1      38.306   5.529  16.977  0.00  0.00    +0.000 C 
BRANCH  16  17
ATOM     17  C   UNL     1      39.754   5.741  16.960  0.00  0.00    +0.000 C 
BRANCH  17  18
ATOM     18  C   UNL     1      40.482   6.106  18.179  0.00  0.00    +0.000 C 
BRANCH  18  19
ATOM     19  C   UNL     1      41.911   6.448  18.026  0.00  0.00    +0.000 A 
ATOM     20  C   UNL     1      42.745   6.615  19.111  0.00  0.00    +0.000 A 
ATOM     21  C   UNL     1      44.070   6.919  19.035  0.00  0.00    +0.000 A 
ATOM     22  C   UNL     1      44.651   7.079  17.796  0.00  0.00    +0.000 A 
ATOM     23  C   UNL     1      43.841   6.919  16.673  0.00  0.00    +0.000 A 
ATOM     24  C   UNL     1      42.502   6.611  16.774  0.00  0.00    +0.000 A 
ENDBRANCH  18  19
BRANCH  18  25
ATOM     25  C   UNL     1      39.829   7.297  18.822  0.00  0.00    +0.000 A 
ATOM     26  C   UNL     1      39.319   7.238  20.101  0.00  0.00    +0.000 A 
ATOM     27  C   UNL     1      38.715   8.322  20.704  0.00  0.00    +0.000 A 
ATOM     28  C   UNL     1      38.623   9.508  19.993  0.00  0.00    +0.000 A 
ATOM     29  C   UNL     1      39.121   9.600  18.713  0.00  0.00    +0.000 A 
ATOM     30  C   UNL     1      39.711   8.497  18.158  0.00  0.00    +0.000 A 
ENDBRANCH  18  25
ENDBRANCH  17  18
ENDBRANCH  16  17
ENDBRANCH   5  16
TORSDOF 11
ENDMDL
MODEL 10
REMARK VINA RESULT:      -5.9      2.493      5.151
REMARK  Name = 
REMARK  11 active torsions:
REMARK  status: ('A' for Active; 'I' for Inactive)
REMARK    1  A    between atoms: C_2  and  O_3
REMARK    2  A    between atoms: O_3  and  C_4
REMARK    3  A    between atoms: C_4  and  C_6
REMARK    4  A    between atoms: C_6  and  S_8
REMARK    5  A    between atoms: S_8  and  C_9
REMARK    6  A    between atoms: C_12  and  C_13
REMARK    7  A    between atoms: N_15  and  C_16
REMARK    8  A    between atoms: C_16  and  C_17
REMARK    9  A    between atoms: C_17  and  C_18
REMARK   10  A    between atoms: C_18  and  C_19
REMARK   11  A    between atoms: C_18  and  C_25
REMARK                            x       y       z     vdW  Elec       q    Type
REMARK                         _______ _______ _______ _____ _____    ______ ____
ROOT
ATOM      1  C   UNL     1      36.738   1.596  15.961  0.00  0.00    +0.000 A 
ATOM      2  N   UNL     1      36.555   1.989  17.263  0.00  0.00    +0.000 NA
ATOM      3  C   UNL     1      36.100   0.959  17.985  0.00  0.00    +0.000 A 
ATOM      4  C   UNL     1      35.983  -0.120  17.144  0.00  0.00    +0.000 A 
ATOM      5  N   UNL     1      36.380   0.307  15.924  0.00  0.00    +0.000 N 
ENDROOT
BRANCH   4   6
ATOM      6  C   UNL     1      35.518  -1.480  17.493  0.00  0.00    +0.000 C 
ATOM      7  O   UNL     1      36.177  -2.018  18.573  0.00  0.00    +0.000 OA
ENDBRANCH   4   6
BRANCH   1   8
ATOM      8  S   UNL     1      37.358   2.666  14.672  0.00  0.00    +0.000 S 
BRANCH   8   9
ATOM      9  C   UNL     1      39.247   2.505  14.609  0.00  0.00    +0.000 C 
ATOM     10  C   UNL     1      39.592   4.036  14.657  0.00  0.00    +0.000 C 
BRANCH   9  11
ATOM     11  C   UNL     1      39.383   2.278  13.084  0.00  0.00    +0.000 C 
ATOM     12  O   UNL     1      38.812   2.965  12.240  0.00  0.00    +0.000 OA
BRANCH  11  13
ATOM     13  O   UNL     1      40.232   1.200  12.725  0.00  0.00    +0.000 OA
BRANCH  13  15
ATOM     14  C   UNL     1      41.483   0.583  10.824  0.00  0.00    +0.000 C 
ATOM     15  C   UNL     1      40.061   0.747  11.377  0.00  0.00    +0.000 C 
ENDBRANCH  13  15
ENDBRANCH  11  13
ENDBRANCH   9  11
ENDBRANCH   8   9
ENDBRANCH   1   8
BRANCH   5  16
ATOM     16  C   UNL     1      36.411  -0.553  14.781  0.00  0.00    +0.000 C 
BRANCH  16  17
ATOM     17  C   UNL     1      37.717  -0.917  14.231  0.00  0.00    +0.000 C 
BRANCH  17  18
ATOM     18  C   UNL     1      38.745  -1.545  15.068  0.00  0.00    +0.000 C 
BRANCH  18  19
ATOM     19  C   UNL     1      38.365  -2.788  15.771  0.00  0.00    +0.000 A 
ATOM     20  C   UNL     1      37.370  -3.619  15.303  0.00  0.00    +0.000 A 
ATOM     21  C   UNL     1      36.981  -4.781  15.899  0.00  0.00    +0.000 A 
ATOM     22  C   UNL     1      37.609  -5.182  17.057  0.00  0.00    +0.000 A 
ATOM     23  C   UNL     1      38.622  -4.368  17.563  0.00  0.00    +0.000 A 
ATOM     24  C   UNL     1      38.998  -3.197  16.944  0.00  0.00    +0.000 A 
ENDBRANCH  18  19
BRANCH  18  25
ATOM     25  C   UNL     1      39.945  -1.882  14.230  0.00  0.00    +0.000 A 
ATOM     26  C   UNL     1      39.825  -2.565  13.039  0.00  0.00    +0.000 A 
ATOM     27  C   UNL     1      40.917  -2.884  12.259  0.00  0.00    +0.000 A 
ATOM     28  C   UNL     1      42.176  -2.499  12.695  0.00  0.00    +0.000 A 
ATOM     29  C   UNL     1      42.331  -1.816  13.880  0.00  0.00    +0.000 A 
ATOM     30  C   UNL     1      41.216  -1.523  14.618  0.00  0.00    +0.000 A 
ENDBRANCH  18  25
ENDBRANCH  17  18
ENDBRANCH  16  17
ENDBRANCH   5  16
TORSDOF 11
ENDMDL
