MODEL 1
REMARK VINA RESULT:      -8.3      0.000      0.000
REMARK  Name = 
REMARK  0 active torsions:
REMARK  status: ('A' for Active; 'I' for Inactive)
REMARK                            x       y       z     vdW  Elec       q    Type
REMARK                         _______ _______ _______ _____ _____    ______ ____
ROOT
ATOM      1  C   UNL     1      18.840  11.421  37.029  0.00  0.00    +0.000 C 
ATOM      2  C   UNL     1      18.318  10.149  36.686  0.00  0.00    +0.000 C 
ATOM      3  C   UNL     1      18.620   9.448  35.465  0.00  0.00    +0.000 C 
ATOM      4  C   UNL     1      17.949  10.218  34.310  0.00  0.00    +0.000 C 
ATOM      5  C   UNL     1      16.353  10.087  34.609  0.00  0.00    +0.000 C 
ATOM      6  C   UNL     1      15.843  11.037  33.488  0.00  0.00    +0.000 A 
ATOM      7  C   UNL     1      16.245  10.706  32.236  0.00  0.00    +0.000 A 
ATOM      8  C   UNL     1      15.852  11.486  31.119  0.00  0.00    +0.000 A 
ATOM      9  C   UNL     1      15.064  12.571  31.339  0.00  0.00    +0.000 A 
ATOM     10  O   UNL     1      14.640  13.387  30.260  0.00  0.00    +0.000 OA
ATOM     11  C   UNL     1      14.669  12.885  32.620  0.00  0.00    +0.000 A 
ATOM     12  O   UNL     1      13.857  14.001  32.851  0.00  0.00    +0.000 OA
ATOM     13  C   UNL     1      15.066  12.105  33.709  0.00  0.00    +0.000 A 
ATOM     14  C   UNL     1      14.573  12.547  35.062  0.00  0.00    +0.000 C 
ATOM     15  C   UNL     1      14.856  11.355  35.995  0.00  0.00    +0.000 C 
ATOM     16  C   UNL     1      16.440  11.315  35.820  0.00  0.00    +0.000 C 
ATOM     17  C   UNL     1      16.690  10.086  36.947  0.00  0.00    +0.000 C 
ATOM     18  C   UNL     1      16.855  11.018  38.262  0.00  0.00    +0.000 C 
ATOM     19  C   UNL     1      17.905  10.320  39.034  0.00  0.00    +0.000 C 
ATOM     20  C   UNL     1      18.406   9.131  37.981  0.00  0.00    +0.000 C 
ATOM     21  O   UNL     1      19.889   9.430  38.238  0.00  0.00    +0.000 OA
ENDROOT
TORSDOF 0
ENDMDL
MODEL 2
REMARK VINA RESULT:      -7.3     17.556     19.201
REMARK  Name = 
REMARK  0 active torsions:
REMARK  status: ('A' for Active; 'I' for Inactive)
REMARK                            x       y       z     vdW  Elec       q    Type
REMARK                         _______ _______ _______ _____ _____    ______ ____
ROOT
ATOM      1  C   UNL     1      29.891  24.642  25.531  0.00  0.00    +0.000 C 
ATOM      2  C   UNL     1      28.774  24.031  24.910  0.00  0.00    +0.000 C 
ATOM      3  C   UNL     1      27.598  24.738  24.472  0.00  0.00    +0.000 C 
ATOM      4  C   UNL     1      26.846  25.212  25.733  0.00  0.00    +0.000 C 
ATOM      5  C   UNL     1      26.386  23.836  26.473  0.00  0.00    +0.000 C 
ATOM      6  C   UNL     1      25.817  24.469  27.775  0.00  0.00    +0.000 A 
ATOM      7  C   UNL     1      24.845  25.395  27.578  0.00  0.00    +0.000 A 
ATOM      8  C   UNL     1      24.237  26.051  28.678  0.00  0.00    +0.000 A 
ATOM      9  C   UNL     1      24.654  25.727  29.930  0.00  0.00    +0.000 A 
ATOM     10  O   UNL     1      24.081  26.351  31.067  0.00  0.00    +0.000 OA
ATOM     11  C   UNL     1      25.642  24.783  30.102  0.00  0.00    +0.000 A 
ATOM     12  O   UNL     1      26.073  24.446  31.390  0.00  0.00    +0.000 OA
ATOM     13  C   UNL     1      26.230  24.146  29.006  0.00  0.00    +0.000 A 
ATOM     14  C   UNL     1      27.300  23.133  29.319  0.00  0.00    +0.000 C 
ATOM     15  C   UNL     1      27.514  22.365  28.001  0.00  0.00    +0.000 C 
ATOM     16  C   UNL     1      27.977  23.599  27.104  0.00  0.00    +0.000 C 
ATOM     17  C   UNL     1      28.307  22.678  25.731  0.00  0.00    +0.000 C 
ATOM     18  C   UNL     1      29.855  22.331  26.060  0.00  0.00    +0.000 C 
ATOM     19  C   UNL     1      30.498  22.385  24.730  0.00  0.00    +0.000 C 
ATOM     20  C   UNL     1      29.278  22.966  23.756  0.00  0.00    +0.000 C 
ATOM     21  O   UNL     1      30.205  23.985  23.082  0.00  0.00    +0.000 OA
ENDROOT
TORSDOF 0
ENDMDL
MODEL 3
REMARK VINA RESULT:      -7.2     17.932     20.057
REMARK  Name = 
REMARK  0 active torsions:
REMARK  status: ('A' for Active; 'I' for Inactive)
REMARK                            x       y       z     vdW  Elec       q    Type
REMARK                         _______ _______ _______ _____ _____    ______ ____
ROOT
ATOM      1  C   UNL     1      28.983  25.707  23.796  0.00  0.00    +0.000 C 
ATOM      2  C   UNL     1      27.634  25.440  23.453  0.00  0.00    +0.000 C 
ATOM      3  C   UNL     1      26.512  26.235  23.882  0.00  0.00    +0.000 C 
ATOM      4  C   UNL     1      26.343  26.016  25.400  0.00  0.00    +0.000 C 
ATOM      5  C   UNL     1      25.954  24.441  25.541  0.00  0.00    +0.000 C 
ATOM      6  C   UNL     1      25.992  24.346  27.093  0.00  0.00    +0.000 A 
ATOM      7  C   UNL     1      25.180  25.222  27.736  0.00  0.00    +0.000 A 
ATOM      8  C   UNL     1      25.115  25.244  29.152  0.00  0.00    +0.000 A 
ATOM      9  C   UNL     1      25.888  24.365  29.844  0.00  0.00    +0.000 A 
ATOM     10  O   UNL     1      25.864  24.343  31.262  0.00  0.00    +0.000 OA
ATOM     11  C   UNL     1      26.704  23.486  29.167  0.00  0.00    +0.000 A 
ATOM     12  O   UNL     1      27.500  22.580  29.876  0.00  0.00    +0.000 OA
ATOM     13  C   UNL     1      26.754  23.479  27.771  0.00  0.00    +0.000 A 
ATOM     14  C   UNL     1      27.684  22.474  27.142  0.00  0.00    +0.000 C 
ATOM     15  C   UNL     1      27.290  22.448  25.654  0.00  0.00    +0.000 C 
ATOM     16  C   UNL     1      27.602  23.975  25.320  0.00  0.00    +0.000 C 
ATOM     17  C   UNL     1      27.271  23.846  23.673  0.00  0.00    +0.000 C 
ATOM     18  C   UNL     1      28.757  23.429  23.177  0.00  0.00    +0.000 C 
ATOM     19  C   UNL     1      28.888  24.141  21.888  0.00  0.00    +0.000 C 
ATOM     20  C   UNL     1      27.516  25.084  21.847  0.00  0.00    +0.000 C 
ATOM     21  O   UNL     1      28.300  26.330  21.414  0.00  0.00    +0.000 OA
ENDROOT
TORSDOF 0
ENDMDL
MODEL 4
REMARK VINA RESULT:      -7.1     18.415     20.470
REMARK  Name = 
REMARK  0 active torsions:
REMARK  status: ('A' for Active; 'I' for Inactive)
REMARK                            x       y       z     vdW  Elec       q    Type
REMARK                         _______ _______ _______ _____ _____    ______ ____
ROOT
ATOM      1  C   UNL     1      28.433  25.739  23.646  0.00  0.00    +0.000 C 
ATOM      2  C   UNL     1      27.675  24.552  23.495  0.00  0.00    +0.000 C 
ATOM      3  C   UNL     1      26.463  24.262  24.218  0.00  0.00    +0.000 C 
ATOM      4  C   UNL     1      26.849  24.024  25.692  0.00  0.00    +0.000 C 
ATOM      5  C   UNL     1      27.773  22.683  25.659  0.00  0.00    +0.000 C 
ATOM      6  C   UNL     1      28.211  22.684  27.151  0.00  0.00    +0.000 A 
ATOM      7  C   UNL     1      27.189  22.683  28.043  0.00  0.00    +0.000 A 
ATOM      8  C   UNL     1      27.445  22.682  29.437  0.00  0.00    +0.000 A 
ATOM      9  C   UNL     1      28.740  22.683  29.853  0.00  0.00    +0.000 A 
ATOM     10  O   UNL     1      29.055  22.682  31.235  0.00  0.00    +0.000 OA
ATOM     11  C   UNL     1      29.759  22.683  28.926  0.00  0.00    +0.000 A 
ATOM     12  O   UNL     1      31.092  22.684  29.350  0.00  0.00    +0.000 OA
ATOM     13  C   UNL     1      29.487  22.684  27.556  0.00  0.00    +0.000 A 
ATOM     14  C   UNL     1      30.683  22.686  26.639  0.00  0.00    +0.000 C 
ATOM     15  C   UNL     1      30.115  22.341  25.249  0.00  0.00    +0.000 C 
ATOM     16  C   UNL     1      29.134  23.589  25.101  0.00  0.00    +0.000 C 
ATOM     17  C   UNL     1      28.647  23.219  23.530  0.00  0.00    +0.000 C 
ATOM     18  C   UNL     1      29.805  24.031  22.739  0.00  0.00    +0.000 C 
ATOM     19  C   UNL     1      29.087  24.575  21.567  0.00  0.00    +0.000 C 
ATOM     20  C   UNL     1      27.501  24.188  21.895  0.00  0.00    +0.000 C 
ATOM     21  O   UNL     1      27.008  25.595  21.530  0.00  0.00    +0.000 OA
ENDROOT
TORSDOF 0
ENDMDL
MODEL 5
REMARK VINA RESULT:      -7.1     17.988     19.315
REMARK  Name = 
REMARK  0 active torsions:
REMARK  status: ('A' for Active; 'I' for Inactive)
REMARK                            x       y       z     vdW  Elec       q    Type
REMARK                         _______ _______ _______ _____ _____    ______ ____
ROOT
ATOM      1  C   UNL     1      28.192  24.336  28.821  0.00  0.00    +0.000 C 
ATOM      2  C   UNL     1      27.547  23.176  28.325  0.00  0.00    +0.000 C 
ATOM      3  C   UNL     1      28.189  22.170  27.519  0.00  0.00    +0.000 C 
ATOM      4  C   UNL     1      28.482  22.797  26.140  0.00  0.00    +0.000 C 
ATOM      5  C   UNL     1      27.011  23.110  25.516  0.00  0.00    +0.000 C 
ATOM      6  C   UNL     1      27.472  23.878  24.245  0.00  0.00    +0.000 A 
ATOM      7  C   UNL     1      28.327  23.192  23.446  0.00  0.00    +0.000 A 
ATOM      8  C   UNL     1      28.827  23.772  22.253  0.00  0.00    +0.000 A 
ATOM      9  C   UNL     1      28.427  25.032  21.935  0.00  0.00    +0.000 A 
ATOM     10  O   UNL     1      28.895  25.662  20.754  0.00  0.00    +0.000 OA
ATOM     11  C   UNL     1      27.558  25.707  22.763  0.00  0.00    +0.000 A 
ATOM     12  O   UNL     1      27.143  27.003  22.439  0.00  0.00    +0.000 OA
ATOM     13  C   UNL     1      27.076  25.118  23.935  0.00  0.00    +0.000 A 
ATOM     14  C   UNL     1      26.132  25.953  24.761  0.00  0.00    +0.000 C 
ATOM     15  C   UNL     1      25.507  24.966  25.765  0.00  0.00    +0.000 C 
ATOM     16  C   UNL     1      26.852  24.522  26.497  0.00  0.00    +0.000 C 
ATOM     17  C   UNL     1      26.091  23.552  27.646  0.00  0.00    +0.000 C 
ATOM     18  C   UNL     1      25.848  24.689  28.774  0.00  0.00    +0.000 C 
ATOM     19  C   UNL     1      26.076  23.957  30.039  0.00  0.00    +0.000 C 
ATOM     20  C   UNL     1      26.637  22.480  29.512  0.00  0.00    +0.000 C 
ATOM     21  O   UNL     1      27.788  22.477  30.526  0.00  0.00    +0.000 OA
ENDROOT
TORSDOF 0
ENDMDL
MODEL 6
REMARK VINA RESULT:      -6.9     18.501     20.434
REMARK  Name = 
REMARK  0 active torsions:
REMARK  status: ('A' for Active; 'I' for Inactive)
REMARK                            x       y       z     vdW  Elec       q    Type
REMARK                         _______ _______ _______ _____ _____    ______ ____
ROOT
ATOM      1  C   UNL     1      27.532  24.094  22.638  0.00  0.00    +0.000 C 
ATOM      2  C   UNL     1      28.828  24.226  23.197  0.00  0.00    +0.000 C 
ATOM      3  C   UNL     1      29.544  23.161  23.850  0.00  0.00    +0.000 C 
ATOM      4  C   UNL     1      28.821  22.863  25.180  0.00  0.00    +0.000 C 
ATOM      5  C   UNL     1      28.998  24.227  26.052  0.00  0.00    +0.000 C 
ATOM      6  C   UNL     1      28.089  23.837  27.252  0.00  0.00    +0.000 A 
ATOM      7  C   UNL     1      28.433  22.682  27.873  0.00  0.00    +0.000 A 
ATOM      8  C   UNL     1      27.690  22.208  28.984  0.00  0.00    +0.000 A 
ATOM      9  C   UNL     1      26.626  22.942  29.406  0.00  0.00    +0.000 A 
ATOM     10  O   UNL     1      25.847  22.516  30.512  0.00  0.00    +0.000 OA
ATOM     11  C   UNL     1      26.299  24.112  28.758  0.00  0.00    +0.000 A 
ATOM     12  O   UNL     1      25.205  24.871  29.190  0.00  0.00    +0.000 OA
ATOM     13  C   UNL     1      27.043  24.563  27.665  0.00  0.00    +0.000 A 
ATOM     14  C   UNL     1      26.589  25.856  27.037  0.00  0.00    +0.000 C 
ATOM     15  C   UNL     1      27.751  26.279  26.120  0.00  0.00    +0.000 C 
ATOM     16  C   UNL     1      27.743  25.007  25.158  0.00  0.00    +0.000 C 
ATOM     17  C   UNL     1      28.938  25.588  24.122  0.00  0.00    +0.000 C 
ATOM     18  C   UNL     1      27.975  26.380  23.089  0.00  0.00    +0.000 C 
ATOM     19  C   UNL     1      28.621  26.140  21.781  0.00  0.00    +0.000 C 
ATOM     20  C   UNL     1      29.815  25.041  22.157  0.00  0.00    +0.000 C 
ATOM     21  O   UNL     1      29.462  24.143  20.965  0.00  0.00    +0.000 OA
ENDROOT
TORSDOF 0
ENDMDL
MODEL 7
REMARK VINA RESULT:      -6.9      2.608      4.882
REMARK  Name = 
REMARK  0 active torsions:
REMARK  status: ('A' for Active; 'I' for Inactive)
REMARK                            x       y       z     vdW  Elec       q    Type
REMARK                         _______ _______ _______ _____ _____    ______ ____
ROOT
ATOM      1  C   UNL     1      17.768   7.156  40.439  0.00  0.00    +0.000 C 
ATOM      2  C   UNL     1      17.973   8.479  40.903  0.00  0.00    +0.000 C 
ATOM      3  C   UNL     1      16.929   9.459  41.055  0.00  0.00    +0.000 C 
ATOM      4  C   UNL     1      16.451   9.851  39.642  0.00  0.00    +0.000 C 
ATOM      5  C   UNL     1      17.746  10.567  38.961  0.00  0.00    +0.000 C 
ATOM      6  C   UNL     1      17.171  10.736  37.526  0.00  0.00    +0.000 A 
ATOM      7  C   UNL     1      16.004  11.425  37.459  0.00  0.00    +0.000 A 
ATOM      8  C   UNL     1      15.369  11.654  36.212  0.00  0.00    +0.000 A 
ATOM      9  C   UNL     1      15.961  11.165  35.090  0.00  0.00    +0.000 A 
ATOM     10  O   UNL     1      15.371  11.365  33.817  0.00  0.00    +0.000 OA
ATOM     11  C   UNL     1      17.146  10.470  35.185  0.00  0.00    +0.000 A 
ATOM     12  O   UNL     1      17.758   9.967  34.033  0.00  0.00    +0.000 OA
ATOM     13  C   UNL     1      17.757  10.254  36.423  0.00  0.00    +0.000 A 
ATOM     14  C   UNL     1      19.050   9.480  36.402  0.00  0.00    +0.000 C 
ATOM     15  C   UNL     1      19.658   9.689  37.802  0.00  0.00    +0.000 C 
ATOM     16  C   UNL     1      18.478   9.034  38.651  0.00  0.00    +0.000 C 
ATOM     17  C   UNL     1      19.255   9.183  40.138  0.00  0.00    +0.000 C 
ATOM     18  C   UNL     1      20.039   7.765  40.126  0.00  0.00    +0.000 C 
ATOM     19  C   UNL     1      19.973   7.336  41.539  0.00  0.00    +0.000 C 
ATOM     20  C   UNL     1      18.964   8.473  42.221  0.00  0.00    +0.000 C 
ATOM     21  O   UNL     1      18.142   7.405  42.954  0.00  0.00    +0.000 OA
ENDROOT
TORSDOF 0
ENDMDL
MODEL 8
REMARK VINA RESULT:      -6.8     20.422     21.737
REMARK  Name = 
REMARK  0 active torsions:
REMARK  status: ('A' for Active; 'I' for Inactive)
REMARK                            x       y       z     vdW  Elec       q    Type
REMARK                         _______ _______ _______ _____ _____    ______ ____
ROOT
ATOM      1  C   UNL     1      19.579  -9.899  31.290  0.00  0.00    +0.000 C 
ATOM      2  C   UNL     1      19.350 -10.910  30.324  0.00  0.00    +0.000 C 
ATOM      3  C   UNL     1      20.366 -11.460  29.465  0.00  0.00    +0.000 C 
ATOM      4  C   UNL     1      20.771 -10.361  28.461  0.00  0.00    +0.000 C 
ATOM      5  C   UNL     1      19.425 -10.100  27.581  0.00  0.00    +0.000 C 
ATOM      6  C   UNL     1      19.933  -8.880  26.762  0.00  0.00    +0.000 A 
ATOM      7  C   UNL     1      21.073  -9.101  26.061  0.00  0.00    +0.000 A 
ATOM      8  C   UNL     1      21.647  -8.075  25.269  0.00  0.00    +0.000 A 
ATOM      9  C   UNL     1      21.025  -6.866  25.235  0.00  0.00    +0.000 A 
ATOM     10  O   UNL     1      21.555  -5.803  24.461  0.00  0.00    +0.000 OA
ATOM     11  C   UNL     1      19.869  -6.667  25.957  0.00  0.00    +0.000 A 
ATOM     12  O   UNL     1      19.226  -5.425  25.923  0.00  0.00    +0.000 OA
ATOM     13  C   UNL     1      19.318  -7.692  26.731  0.00  0.00    +0.000 A 
ATOM     14  C   UNL     1      18.052  -7.356  27.476  0.00  0.00    +0.000 C 
ATOM     15  C   UNL     1      17.497  -8.715  27.943  0.00  0.00    +0.000 C 
ATOM     16  C   UNL     1      18.733  -9.154  28.849  0.00  0.00    +0.000 C 
ATOM     17  C   UNL     1      18.014 -10.569  29.417  0.00  0.00    +0.000 C 
ATOM     18  C   UNL     1      17.278  -9.942  30.717  0.00  0.00    +0.000 C 
ATOM     19  C   UNL     1      17.418 -11.013  31.726  0.00  0.00    +0.000 C 
ATOM     20  C   UNL     1      18.416 -12.108  30.965  0.00  0.00    +0.000 C 
ATOM     21  O   UNL     1      19.304 -12.268  32.206  0.00  0.00    +0.000 OA
ENDROOT
TORSDOF 0
ENDMDL
MODEL 9
REMARK VINA RESULT:      -6.8      3.849      6.506
REMARK  Name = 
REMARK  0 active torsions:
REMARK  status: ('A' for Active; 'I' for Inactive)
REMARK                            x       y       z     vdW  Elec       q    Type
REMARK                         _______ _______ _______ _____ _____    ______ ____
ROOT
ATOM      1  C   UNL     1      17.250   5.832  41.383  0.00  0.00    +0.000 C 
ATOM      2  C   UNL     1      17.010   6.909  42.271  0.00  0.00    +0.000 C 
ATOM      3  C   UNL     1      15.731   7.547  42.450  0.00  0.00    +0.000 C 
ATOM      4  C   UNL     1      15.416   8.326  41.157  0.00  0.00    +0.000 C 
ATOM      5  C   UNL     1      16.569   9.475  41.085  0.00  0.00    +0.000 C 
ATOM      6  C   UNL     1      16.226  10.040  39.678  0.00  0.00    +0.000 A 
ATOM      7  C   UNL     1      14.947  10.468  39.534  0.00  0.00    +0.000 A 
ATOM      8  C   UNL     1      14.498  11.008  38.303  0.00  0.00    +0.000 A 
ATOM      9  C   UNL     1      15.383  11.084  37.274  0.00  0.00    +0.000 A 
ATOM     10  O   UNL     1      14.989  11.615  36.019  0.00  0.00    +0.000 OA
ATOM     11  C   UNL     1      16.676  10.643  37.446  0.00  0.00    +0.000 A 
ATOM     12  O   UNL     1      17.590  10.720  36.389  0.00  0.00    +0.000 OA
ATOM     13  C   UNL     1      17.101  10.113  38.667  0.00  0.00    +0.000 A 
ATOM     14  C   UNL     1      18.537   9.663  38.736  0.00  0.00    +0.000 C 
ATOM     15  C   UNL     1      18.817   9.461  40.237  0.00  0.00    +0.000 C 
ATOM     16  C   UNL     1      17.727   8.329  40.510  0.00  0.00    +0.000 C 
ATOM     17  C   UNL     1      18.168   8.074  42.116  0.00  0.00    +0.000 C 
ATOM     18  C   UNL     1      19.293   6.936  41.863  0.00  0.00    +0.000 C 
ATOM     19  C   UNL     1      19.102   6.019  43.007  0.00  0.00    +0.000 C 
ATOM     20  C   UNL     1      17.724   6.614  43.729  0.00  0.00    +0.000 C 
ATOM     21  O   UNL     1      17.104   5.216  43.858  0.00  0.00    +0.000 OA
ENDROOT
TORSDOF 0
ENDMDL
MODEL 10
REMARK VINA RESULT:      -6.6     19.443     21.277
REMARK  Name = 
REMARK  0 active torsions:
REMARK  status: ('A' for Active; 'I' for Inactive)
REMARK                            x       y       z     vdW  Elec       q    Type
REMARK                         _______ _______ _______ _____ _____    ______ ____
ROOT
ATOM      1  C   UNL     1      27.334  24.852  25.696  0.00  0.00    +0.000 C 
ATOM      2  C   UNL     1      27.578  23.502  25.343  0.00  0.00    +0.000 C 
ATOM      3  C   UNL     1      27.641  22.414  26.285  0.00  0.00    +0.000 C 
ATOM      4  C   UNL     1      28.923  22.600  27.123  0.00  0.00    +0.000 C 
ATOM      5  C   UNL     1      30.137  22.435  26.049  0.00  0.00    +0.000 C 
ATOM      6  C   UNL     1      31.314  22.815  26.992  0.00  0.00    +0.000 A 
ATOM      7  C   UNL     1      31.405  22.064  28.117  0.00  0.00    +0.000 A 
ATOM      8  C   UNL     1      32.433  22.302  29.064  0.00  0.00    +0.000 A 
ATOM      9  C   UNL     1      33.320  23.301  28.813  0.00  0.00    +0.000 A 
ATOM     10  O   UNL     1      34.368  23.583  29.725  0.00  0.00    +0.000 OA
ATOM     11  C   UNL     1      33.205  24.049  27.663  0.00  0.00    +0.000 A 
ATOM     12  O   UNL     1      34.116  25.078  27.400  0.00  0.00    +0.000 OA
ATOM     13  C   UNL     1      32.185  23.799  26.740  0.00  0.00    +0.000 A 
ATOM     14  C   UNL     1      32.159  24.683  25.520  0.00  0.00    +0.000 C 
ATOM     15  C   UNL     1      31.191  23.985  24.547  0.00  0.00    +0.000 C 
ATOM     16  C   UNL     1      29.887  24.040  25.463  0.00  0.00    +0.000 C 
ATOM     17  C   UNL     1      28.855  23.381  24.305  0.00  0.00    +0.000 C 
ATOM     18  C   UNL     1      28.413  24.764  23.585  0.00  0.00    +0.000 C 
ATOM     19  C   UNL     1      26.987  24.533  23.271  0.00  0.00    +0.000 C 
ATOM     20  C   UNL     1      26.672  23.084  24.030  0.00  0.00    +0.000 C 
ATOM     21  O   UNL     1      25.367  23.608  24.643  0.00  0.00    +0.000 OA
ENDROOT
TORSDOF 0
ENDMDL
