MODEL 1
REMARK VINA RESULT:      -7.8      0.000      0.000
REMARK  Name = 
REMARK  2 active torsions:
REMARK  status: ('A' for Active; 'I' for Inactive)
REMARK    1  A    between atoms: C_5  and  N_6
REMARK    2  A    between atoms: C_7  and  C_8
REMARK                            x       y       z     vdW  Elec       q    Type
REMARK                         _______ _______ _______ _____ _____    ______ ____
ROOT
ATOM      1  N   UNL     1      17.189  11.002  35.986  0.00  0.00    +0.000 NA
ATOM      2  C   UNL     1      16.125  10.818  35.329  0.00  0.00    +0.000 C 
ENDROOT
BRANCH   2   3
ATOM      3  C   UNL     1      15.813  11.426  34.040  0.00  0.00    +0.000 A 
ATOM      4  C   UNL     1      16.385  10.997  32.857  0.00  0.00    +0.000 A 
ATOM      5  O   UNL     1      17.288   9.948  32.905  0.00  0.00    +0.000 OA
ATOM      6  C   UNL     1      16.035  11.628  31.666  0.00  0.00    +0.000 A 
ATOM      7  C   UNL     1      15.137  12.669  31.640  0.00  0.00    +0.000 A 
ATOM      8  C   UNL     1      14.761  13.345  30.372  0.00  0.00    +0.000 C 
ATOM      9  C   UNL     1      14.562  13.103  32.816  0.00  0.00    +0.000 A 
ATOM     10 CL   UNL     1      13.410  14.417  32.878  0.00  0.00    +0.000 Cl
ATOM     11  C   UNL     1      14.915  12.470  33.985  0.00  0.00    +0.000 A 
ATOM     12  C   UNL     1      14.304  12.929  35.256  0.00  0.00    +0.000 C 
ENDBRANCH   2   3
BRANCH   1  17
ATOM     13  C   UNL     1      18.509   8.609  40.958  0.00  0.00    +0.000 C 
ATOM     14  C   UNL     1      18.178   9.234  39.640  0.00  0.00    +0.000 A 
ATOM     15  C   UNL     1      16.955   9.871  39.532  0.00  0.00    +0.000 A 
ATOM     16  C   UNL     1      16.638  10.453  38.315  0.00  0.00    +0.000 A 
ATOM     17  C   UNL     1      17.494  10.413  37.238  0.00  0.00    +0.000 A 
ATOM     18  C   UNL     1      18.712   9.779  37.348  0.00  0.00    +0.000 A 
ATOM     19  N   UNL     1      19.655   9.689  36.286  0.00  0.00    +0.000 NA
ATOM     20  C   UNL     1      19.049   9.186  38.566  0.00  0.00    +0.000 A 
ENDBRANCH   1  17
TORSDOF 2
ENDMDL
MODEL 2
REMARK VINA RESULT:      -7.4      3.195      7.445
REMARK  Name = 
REMARK  2 active torsions:
REMARK  status: ('A' for Active; 'I' for Inactive)
REMARK    1  A    between atoms: C_5  and  N_6
REMARK    2  A    between atoms: C_7  and  C_8
REMARK                            x       y       z     vdW  Elec       q    Type
REMARK                         _______ _______ _______ _____ _____    ______ ____
ROOT
ATOM      1  N   UNL     1      15.201  11.270  35.870  0.00  0.00    +0.000 NA
ATOM      2  C   UNL     1      15.514  11.720  37.010  0.00  0.00    +0.000 C 
ENDROOT
BRANCH   2   3
ATOM      3  C   UNL     1      15.884  10.911  38.164  0.00  0.00    +0.000 A 
ATOM      4  C   UNL     1      14.970  10.527  39.129  0.00  0.00    +0.000 A 
ATOM      5  O   UNL     1      13.653  10.932  38.984  0.00  0.00    +0.000 OA
ATOM      6  C   UNL     1      15.402   9.753  40.202  0.00  0.00    +0.000 A 
ATOM      7  C   UNL     1      16.714   9.362  40.327  0.00  0.00    +0.000 A 
ATOM      8  C   UNL     1      17.178   8.536  41.471  0.00  0.00    +0.000 C 
ATOM      9  C   UNL     1      17.631   9.740  39.369  0.00  0.00    +0.000 A 
ATOM     10 CL   UNL     1      19.319   9.289  39.445  0.00  0.00    +0.000 Cl
ATOM     11  C   UNL     1      17.193  10.504  38.314  0.00  0.00    +0.000 A 
ATOM     12  C   UNL     1      18.170  10.918  37.278  0.00  0.00    +0.000 C 
ENDBRANCH   2   3
BRANCH   1  17
ATOM     13  C   UNL     1      13.813  14.338  31.305  0.00  0.00    +0.000 C 
ATOM     14  C   UNL     1      14.188  13.517  32.496  0.00  0.00    +0.000 A 
ATOM     15  C   UNL     1      13.763  13.968  33.734  0.00  0.00    +0.000 A 
ATOM     16  C   UNL     1      14.106  13.214  34.845  0.00  0.00    +0.000 A 
ATOM     17  C   UNL     1      14.840  12.054  34.747  0.00  0.00    +0.000 A 
ATOM     18  C   UNL     1      15.261  11.608  33.514  0.00  0.00    +0.000 A 
ATOM     19  N   UNL     1      16.025  10.421  33.322  0.00  0.00    +0.000 NA
ATOM     20  C   UNL     1      14.927  12.353  32.382  0.00  0.00    +0.000 A 
ENDBRANCH   1  17
TORSDOF 2
ENDMDL
MODEL 3
REMARK VINA RESULT:      -7.4      2.583      7.067
REMARK  Name = 
REMARK  2 active torsions:
REMARK  status: ('A' for Active; 'I' for Inactive)
REMARK    1  A    between atoms: C_5  and  N_6
REMARK    2  A    between atoms: C_7  and  C_8
REMARK                            x       y       z     vdW  Elec       q    Type
REMARK                         _______ _______ _______ _____ _____    ______ ____
ROOT
ATOM      1  N   UNL     1      16.072  10.841  35.177  0.00  0.00    +0.000 NA
ATOM      2  C   UNL     1      16.600  11.303  36.229  0.00  0.00    +0.000 C 
ENDROOT
BRANCH   2   3
ATOM      3  C   UNL     1      17.169  10.504  37.308  0.00  0.00    +0.000 A 
ATOM      4  C   UNL     1      18.402   9.886  37.207  0.00  0.00    +0.000 A 
ATOM      5  O   UNL     1      19.118  10.036  36.032  0.00  0.00    +0.000 OA
ATOM      6  C   UNL     1      18.876   9.140  38.283  0.00  0.00    +0.000 A 
ATOM      7  C   UNL     1      18.149   9.002  39.441  0.00  0.00    +0.000 A 
ATOM      8  C   UNL     1      18.652   8.207  40.590  0.00  0.00    +0.000 C 
ATOM      9  C   UNL     1      16.918   9.616  39.550  0.00  0.00    +0.000 A 
ATOM     10 CL   UNL     1      15.924   9.496  40.984  0.00  0.00    +0.000 Cl
ATOM     11  C   UNL     1      16.461  10.350  38.481  0.00  0.00    +0.000 A 
ATOM     12  C   UNL     1      15.139  11.014  38.586  0.00  0.00    +0.000 C 
ENDBRANCH   2   3
BRANCH   1  17
ATOM     13  C   UNL     1      13.917  13.882  30.900  0.00  0.00    +0.000 C 
ATOM     14  C   UNL     1      14.496  13.070  32.014  0.00  0.00    +0.000 A 
ATOM     15  C   UNL     1      14.084  13.377  33.299  0.00  0.00    +0.000 A 
ATOM     16  C   UNL     1      14.615  12.631  34.339  0.00  0.00    +0.000 A 
ATOM     17  C   UNL     1      15.519  11.615  34.127  0.00  0.00    +0.000 A 
ATOM     18  C   UNL     1      15.926  11.311  32.847  0.00  0.00    +0.000 A 
ATOM     19  N   UNL     1      16.857  10.279  32.538  0.00  0.00    +0.000 NA
ATOM     20  C   UNL     1      15.404  12.052  31.786  0.00  0.00    +0.000 A 
ENDBRANCH   1  17
TORSDOF 2
ENDMDL
MODEL 4
REMARK VINA RESULT:      -6.7      1.947      2.829
REMARK  Name = 
REMARK  2 active torsions:
REMARK  status: ('A' for Active; 'I' for Inactive)
REMARK    1  A    between atoms: C_5  and  N_6
REMARK    2  A    between atoms: C_7  and  C_8
REMARK                            x       y       z     vdW  Elec       q    Type
REMARK                         _______ _______ _______ _____ _____    ______ ____
ROOT
ATOM      1  N   UNL     1      16.587  11.107  37.186  0.00  0.00    +0.000 NA
ATOM      2  C   UNL     1      16.305  10.748  36.007  0.00  0.00    +0.000 C 
ENDROOT
BRANCH   2   3
ATOM      3  C   UNL     1      15.627  11.573  35.013  0.00  0.00    +0.000 A 
ATOM      4  C   UNL     1      14.655  12.496  35.349  0.00  0.00    +0.000 A 
ATOM      5  O   UNL     1      14.318  12.639  36.685  0.00  0.00    +0.000 OA
ATOM      6  C   UNL     1      14.055  13.246  34.341  0.00  0.00    +0.000 A 
ATOM      7  C   UNL     1      14.404  13.089  33.021  0.00  0.00    +0.000 A 
ATOM      8  C   UNL     1      13.765  13.887  31.943  0.00  0.00    +0.000 C 
ATOM      9  C   UNL     1      15.373  12.170  32.677  0.00  0.00    +0.000 A 
ATOM     10 CL   UNL     1      15.880  11.903  31.025  0.00  0.00    +0.000 Cl
ATOM     11  C   UNL     1      15.959  11.436  33.681  0.00  0.00    +0.000 A 
ATOM     12  C   UNL     1      17.001  10.443  33.324  0.00  0.00    +0.000 C 
ENDBRANCH   2   3
BRANCH   1  17
ATOM     13  C   UNL     1      19.127   7.912  41.125  0.00  0.00    +0.000 C 
ATOM     14  C   UNL     1      18.441   8.754  40.098  0.00  0.00    +0.000 A 
ATOM     15  C   UNL     1      19.172   9.101  38.975  0.00  0.00    +0.000 A 
ATOM     16  C   UNL     1      18.545   9.882  38.017  0.00  0.00    +0.000 A 
ATOM     17  C   UNL     1      17.244  10.309  38.154  0.00  0.00    +0.000 A 
ATOM     18  C   UNL     1      16.519   9.962  39.272  0.00  0.00    +0.000 A 
ATOM     19  N   UNL     1      15.171  10.361  39.495  0.00  0.00    +0.000 NA
ATOM     20  C   UNL     1      17.132   9.176  40.249  0.00  0.00    +0.000 A 
ENDBRANCH   1  17
TORSDOF 2
ENDMDL
MODEL 5
REMARK VINA RESULT:      -6.5     18.811     20.269
REMARK  Name = 
REMARK  2 active torsions:
REMARK  status: ('A' for Active; 'I' for Inactive)
REMARK    1  A    between atoms: C_5  and  N_6
REMARK    2  A    between atoms: C_7  and  C_8
REMARK                            x       y       z     vdW  Elec       q    Type
REMARK                         _______ _______ _______ _____ _____    ______ ____
ROOT
ATOM      1  N   UNL     1      35.012   4.266  35.164  0.00  0.00    +0.000 NA
ATOM      2  C   UNL     1      33.962   3.567  35.245  0.00  0.00    +0.000 C 
ENDROOT
BRANCH   2   3
ATOM      3  C   UNL     1      33.834   2.182  34.804  0.00  0.00    +0.000 A 
ATOM      4  C   UNL     1      33.716   1.833  33.472  0.00  0.00    +0.000 A 
ATOM      5  O   UNL     1      33.720   2.843  32.524  0.00  0.00    +0.000 OA
ATOM      6  C   UNL     1      33.598   0.488  33.132  0.00  0.00    +0.000 A 
ATOM      7  C   UNL     1      33.595  -0.500  34.088  0.00  0.00    +0.000 A 
ATOM      8  C   UNL     1      33.470  -1.935  33.729  0.00  0.00    +0.000 C 
ATOM      9  C   UNL     1      33.713  -0.159  35.419  0.00  0.00    +0.000 A 
ATOM     10 CL   UNL     1      33.719  -1.347  36.703  0.00  0.00    +0.000 Cl
ATOM     11  C   UNL     1      33.829   1.172  35.743  0.00  0.00    +0.000 A 
ATOM     12  C   UNL     1      33.955   1.551  37.171  0.00  0.00    +0.000 C 
ENDBRANCH   2   3
BRANCH   1  17
ATOM     13  C   UNL     1      35.629   9.633  36.897  0.00  0.00    +0.000 C 
ATOM     14  C   UNL     1      35.485   8.215  36.444  0.00  0.00    +0.000 A 
ATOM     15  C   UNL     1      34.234   7.815  36.008  0.00  0.00    +0.000 A 
ATOM     16  C   UNL     1      34.090   6.502  35.587  0.00  0.00    +0.000 A 
ATOM     17  C   UNL     1      35.139   5.611  35.591  0.00  0.00    +0.000 A 
ATOM     18  C   UNL     1      36.383   6.013  36.025  0.00  0.00    +0.000 A 
ATOM     19  N   UNL     1      37.520   5.157  36.064  0.00  0.00    +0.000 NA
ATOM     20  C   UNL     1      36.549   7.330  36.454  0.00  0.00    +0.000 A 
ENDBRANCH   1  17
TORSDOF 2
ENDMDL
MODEL 6
REMARK VINA RESULT:      -6.5     19.339     20.418
REMARK  Name = 
REMARK  2 active torsions:
REMARK  status: ('A' for Active; 'I' for Inactive)
REMARK    1  A    between atoms: C_5  and  N_6
REMARK    2  A    between atoms: C_7  and  C_8
REMARK                            x       y       z     vdW  Elec       q    Type
REMARK                         _______ _______ _______ _____ _____    ______ ____
ROOT
ATOM      1  N   UNL     1      31.381  23.154  27.435  0.00  0.00    +0.000 NA
ATOM      2  C   UNL     1      30.717  22.344  26.725  0.00  0.00    +0.000 C 
ENDROOT
BRANCH   2   3
ATOM      3  C   UNL     1      29.818  22.716  25.639  0.00  0.00    +0.000 A 
ATOM      4  C   UNL     1      30.276  23.092  24.390  0.00  0.00    +0.000 A 
ATOM      5  O   UNL     1      31.643  23.116  24.170  0.00  0.00    +0.000 OA
ATOM      6  C   UNL     1      29.353  23.432  23.404  0.00  0.00    +0.000 A 
ATOM      7  C   UNL     1      28.000  23.403  23.643  0.00  0.00    +0.000 A 
ATOM      8  C   UNL     1      27.013  23.765  22.594  0.00  0.00    +0.000 C 
ATOM      9  C   UNL     1      27.535  23.028  24.887  0.00  0.00    +0.000 A 
ATOM     10 CL   UNL     1      25.833  22.962  25.281  0.00  0.00    +0.000 Cl
ATOM     11  C   UNL     1      28.456  22.694  25.851  0.00  0.00    +0.000 A 
ATOM     12  C   UNL     1      27.969  22.290  27.192  0.00  0.00    +0.000 C 
ENDBRANCH   2   3
BRANCH   1  17
ATOM     13  C   UNL     1      34.945  21.808  31.639  0.00  0.00    +0.000 C 
ATOM     14  C   UNL     1      34.017  22.178  30.527  0.00  0.00    +0.000 A 
ATOM     15  C   UNL     1      32.916  21.363  30.324  0.00  0.00    +0.000 A 
ATOM     16  C   UNL     1      32.050  21.697  29.296  0.00  0.00    +0.000 A 
ATOM     17  C   UNL     1      32.254  22.796  28.492  0.00  0.00    +0.000 A 
ATOM     18  C   UNL     1      33.350  23.605  28.696  0.00  0.00    +0.000 A 
ATOM     19  N   UNL     1      33.637  24.758  27.912  0.00  0.00    +0.000 NA
ATOM     20  C   UNL     1      34.235  23.285  29.726  0.00  0.00    +0.000 A 
ENDBRANCH   1  17
TORSDOF 2
ENDMDL
MODEL 7
REMARK VINA RESULT:      -6.4     18.541     19.594
REMARK  Name = 
REMARK  2 active torsions:
REMARK  status: ('A' for Active; 'I' for Inactive)
REMARK    1  A    between atoms: C_5  and  N_6
REMARK    2  A    between atoms: C_7  and  C_8
REMARK                            x       y       z     vdW  Elec       q    Type
REMARK                         _______ _______ _______ _____ _____    ______ ____
ROOT
ATOM      1  N   UNL     1      30.579  22.708  28.351  0.00  0.00    +0.000 NA
ATOM      2  C   UNL     1      30.239  22.062  27.318  0.00  0.00    +0.000 C 
ENDROOT
BRANCH   2   3
ATOM      3  C   UNL     1      29.207  22.467  26.371  0.00  0.00    +0.000 A 
ATOM      4  C   UNL     1      27.862  22.476  26.693  0.00  0.00    +0.000 A 
ATOM      5  O   UNL     1      27.489  22.084  27.967  0.00  0.00    +0.000 OA
ATOM      6  C   UNL     1      26.938  22.878  25.732  0.00  0.00    +0.000 A 
ATOM      7  C   UNL     1      27.329  23.264  24.472  0.00  0.00    +0.000 A 
ATOM      8  C   UNL     1      26.346  23.692  23.445  0.00  0.00    +0.000 C 
ATOM      9  C   UNL     1      28.669  23.258  24.143  0.00  0.00    +0.000 A 
ATOM     10 CL   UNL     1      29.258  23.732  22.567  0.00  0.00    +0.000 Cl
ATOM     11  C   UNL     1      29.572  22.860  25.100  0.00  0.00    +0.000 A 
ATOM     12  C   UNL     1      31.015  22.849  24.758  0.00  0.00    +0.000 C 
ENDBRANCH   2   3
BRANCH   1  17
ATOM     13  C   UNL     1      34.511  21.137  32.126  0.00  0.00    +0.000 C 
ATOM     14  C   UNL     1      33.461  21.550  31.145  0.00  0.00    +0.000 A 
ATOM     15  C   UNL     1      33.866  21.766  29.839  0.00  0.00    +0.000 A 
ATOM     16  C   UNL     1      32.900  22.149  28.922  0.00  0.00    +0.000 A 
ATOM     17  C   UNL     1      31.580  22.316  29.273  0.00  0.00    +0.000 A 
ATOM     18  C   UNL     1      31.180  22.101  30.573  0.00  0.00    +0.000 A 
ATOM     19  N   UNL     1      29.837  22.251  31.022  0.00  0.00    +0.000 NA
ATOM     20  C   UNL     1      32.137  21.714  31.512  0.00  0.00    +0.000 A 
ENDBRANCH   1  17
TORSDOF 2
ENDMDL
MODEL 8
REMARK VINA RESULT:      -6.1     18.079     20.242
REMARK  Name = 
REMARK  2 active torsions:
REMARK  status: ('A' for Active; 'I' for Inactive)
REMARK    1  A    between atoms: C_5  and  N_6
REMARK    2  A    between atoms: C_7  and  C_8
REMARK                            x       y       z     vdW  Elec       q    Type
REMARK                         _______ _______ _______ _____ _____    ______ ____
ROOT
ATOM      1  N   UNL     1      28.714  22.321  27.049  0.00  0.00    +0.000 NA
ATOM      2  C   UNL     1      29.240  23.095  27.900  0.00  0.00    +0.000 C 
ENDROOT
BRANCH   2   3
ATOM      3  C   UNL     1      29.736  22.695  29.212  0.00  0.00    +0.000 A 
ATOM      4  C   UNL     1      28.920  22.615  30.324  0.00  0.00    +0.000 A 
ATOM      5  O   UNL     1      27.579  22.929  30.180  0.00  0.00    +0.000 OA
ATOM      6  C   UNL     1      29.470  22.224  31.542  0.00  0.00    +0.000 A 
ATOM      7  C   UNL     1      30.804  21.917  31.665  0.00  0.00    +0.000 A 
ATOM      8  C   UNL     1      31.394  21.500  32.963  0.00  0.00    +0.000 C 
ATOM      9  C   UNL     1      31.625  21.994  30.559  0.00  0.00    +0.000 A 
ATOM     10 CL   UNL     1      33.333  21.622  30.621  0.00  0.00    +0.000 Cl
ATOM     11  C   UNL     1      31.070  22.380  29.363  0.00  0.00    +0.000 A 
ATOM     12  C   UNL     1      31.943  22.467  28.167  0.00  0.00    +0.000 C 
ENDBRANCH   2   3
BRANCH   1  17
ATOM     13  C   UNL     1      26.882  23.861  21.906  0.00  0.00    +0.000 C 
ATOM     14  C   UNL     1      27.383  23.454  23.254  0.00  0.00    +0.000 A 
ATOM     15  C   UNL     1      26.453  23.369  24.275  0.00  0.00    +0.000 A 
ATOM     16  C   UNL     1      26.907  22.992  25.529  0.00  0.00    +0.000 A 
ATOM     17  C   UNL     1      28.230  22.707  25.775  0.00  0.00    +0.000 A 
ATOM     18  C   UNL     1      29.154  22.792  24.757  0.00  0.00    +0.000 A 
ATOM     19  N   UNL     1      30.541  22.516  24.924  0.00  0.00    +0.000 NA
ATOM     20  C   UNL     1      28.717  23.169  23.487  0.00  0.00    +0.000 A 
ENDBRANCH   1  17
TORSDOF 2
ENDMDL
MODEL 9
REMARK VINA RESULT:      -6.1      3.749      8.081
REMARK  Name = 
REMARK  2 active torsions:
REMARK  status: ('A' for Active; 'I' for Inactive)
REMARK    1  A    between atoms: C_5  and  N_6
REMARK    2  A    between atoms: C_7  and  C_8
REMARK                            x       y       z     vdW  Elec       q    Type
REMARK                         _______ _______ _______ _____ _____    ______ ____
ROOT
ATOM      1  N   UNL     1      16.746  10.770  37.929  0.00  0.00    +0.000 NA
ATOM      2  C   UNL     1      17.200   9.787  38.582  0.00  0.00    +0.000 C 
ENDROOT
BRANCH   2   3
ATOM      3  C   UNL     1      17.319   9.721  40.034  0.00  0.00    +0.000 A 
ATOM      4  C   UNL     1      16.220   9.628  40.868  0.00  0.00    +0.000 A 
ATOM      5  O   UNL     1      14.960   9.596  40.294  0.00  0.00    +0.000 OA
ATOM      6  C   UNL     1      16.417   9.569  42.245  0.00  0.00    +0.000 A 
ATOM      7  C   UNL     1      17.676   9.602  42.795  0.00  0.00    +0.000 A 
ATOM      8  C   UNL     1      17.890   9.540  44.263  0.00  0.00    +0.000 C 
ATOM      9  C   UNL     1      18.778   9.695  41.970  0.00  0.00    +0.000 A 
ATOM     10 CL   UNL     1      20.416   9.743  42.580  0.00  0.00    +0.000 Cl
ATOM     11  C   UNL     1      18.571   9.752  40.612  0.00  0.00    +0.000 A 
ATOM     12  C   UNL     1      19.747   9.853  39.715  0.00  0.00    +0.000 C 
ENDBRANCH   2   3
BRANCH   1  17
ATOM     13  C   UNL     1      16.191  11.105  32.293  0.00  0.00    +0.000 C 
ATOM     14  C   UNL     1      16.322  11.028  33.780  0.00  0.00    +0.000 A 
ATOM     15  C   UNL     1      17.350  10.252  34.285  0.00  0.00    +0.000 A 
ATOM     16  C   UNL     1      17.480  10.175  35.663  0.00  0.00    +0.000 A 
ATOM     17  C   UNL     1      16.630  10.837  36.519  0.00  0.00    +0.000 A 
ATOM     18  C   UNL     1      15.608  11.609  36.013  0.00  0.00    +0.000 A 
ATOM     19  N   UNL     1      14.684  12.326  36.825  0.00  0.00    +0.000 NA
ATOM     20  C   UNL     1      15.459  11.700  34.629  0.00  0.00    +0.000 A 
ENDBRANCH   1  17
TORSDOF 2
ENDMDL
MODEL 10
REMARK VINA RESULT:      -6.1      3.464      7.844
REMARK  Name = 
REMARK  2 active torsions:
REMARK  status: ('A' for Active; 'I' for Inactive)
REMARK    1  A    between atoms: C_5  and  N_6
REMARK    2  A    between atoms: C_7  and  C_8
REMARK                            x       y       z     vdW  Elec       q    Type
REMARK                         _______ _______ _______ _____ _____    ______ ____
ROOT
ATOM      1  N   UNL     1      17.717  10.718  37.652  0.00  0.00    +0.000 NA
ATOM      2  C   UNL     1      17.890   9.663  38.328  0.00  0.00    +0.000 C 
ENDROOT
BRANCH   2   3
ATOM      3  C   UNL     1      18.290   9.614  39.730  0.00  0.00    +0.000 A 
ATOM      4  C   UNL     1      19.614   9.577  40.125  0.00  0.00    +0.000 A 
ATOM      5  O   UNL     1      20.593   9.586  39.146  0.00  0.00    +0.000 OA
ATOM      6  C   UNL     1      19.915   9.532  41.484  0.00  0.00    +0.000 A 
ATOM      7  C   UNL     1      18.927   9.522  42.440  0.00  0.00    +0.000 A 
ATOM      8  C   UNL     1      19.244   9.474  43.891  0.00  0.00    +0.000 C 
ATOM      9  C   UNL     1      17.604   9.560  42.054  0.00  0.00    +0.000 A 
ATOM     10 CL   UNL     1      16.283   9.552  43.199  0.00  0.00    +0.000 Cl
ATOM     11  C   UNL     1      17.320   9.605  40.709  0.00  0.00    +0.000 A 
ATOM     12  C   UNL     1      15.900   9.644  40.281  0.00  0.00    +0.000 C 
ENDBRANCH   2   3
BRANCH   1  17
ATOM     13  C   UNL     1      16.088  10.998  32.225  0.00  0.00    +0.000 C 
ATOM     14  C   UNL     1      16.504  10.938  33.660  0.00  0.00    +0.000 A 
ATOM     15  C   UNL     1      17.494  10.030  33.994  0.00  0.00    +0.000 A 
ATOM     16  C   UNL     1      17.887   9.966  35.321  0.00  0.00    +0.000 A 
ATOM     17  C   UNL     1      17.329  10.768  36.291  0.00  0.00    +0.000 A 
ATOM     18  C   UNL     1      16.345  11.671  35.956  0.00  0.00    +0.000 A 
ATOM     19  N   UNL     1      15.714  12.536  36.894  0.00  0.00    +0.000 NA
ATOM     20  C   UNL     1      15.935  11.750  34.625  0.00  0.00    +0.000 A 
ENDBRANCH   1  17
TORSDOF 2
ENDMDL
