MODEL 1
REMARK VINA RESULT:      -7.9      0.000      0.000
REMARK  Name = 
REMARK  2 active torsions:
REMARK  status: ('A' for Active; 'I' for Inactive)
REMARK    1  A    between atoms: C_4  and  N_5
REMARK    2  A    between atoms: N_5  and  N_6
REMARK                            x       y       z     vdW  Elec       q    Type
REMARK                         _______ _______ _______ _____ _____    ______ ____
ROOT
ATOM      1  N   UNL     1      16.668  10.495  35.339  0.00  0.00    +0.000 NA
ATOM      2  C   UNL     1      15.968  11.303  34.612  0.00  0.00    +0.000 A 
ATOM      3  C   UNL     1      15.149  12.185  35.285  0.00  0.00    +0.000 A 
ATOM      4  C   UNL     1      14.392  13.056  34.535  0.00  0.00    +0.000 A 
ATOM      5  C   UNL     1      14.481  13.015  33.153  0.00  0.00    +0.000 A 
ATOM      6  C   UNL     1      13.722  13.889  32.415  0.00  0.00    +0.000 A 
ATOM      7  C   UNL     1      13.789  13.872  31.039  0.00  0.00    +0.000 A 
ATOM      8  C   UNL     1      14.607  12.990  30.372  0.00  0.00    +0.000 A 
ATOM      9  C   UNL     1      15.359  12.123  31.121  0.00  0.00    +0.000 A 
ATOM     10  C   UNL     1      15.305  12.126  32.498  0.00  0.00    +0.000 A 
ATOM     11  N   UNL     1      16.034  11.284  33.252  0.00  0.00    +0.000 NA
ENDROOT
BRANCH   1  12
ATOM     12  N   UNL     1      16.600  10.512  36.747  0.00  0.00    +0.000 NA
BRANCH  12  16
ATOM     13  C   UNL     1      18.758   9.689  40.866  0.00  0.00    +0.000 C 
ATOM     14  C   UNL     1      18.994   9.049  39.341  0.00  0.00    +0.000 C 
ATOM     15  C   UNL     1      17.615   9.692  38.781  0.00  0.00    +0.000 C 
ATOM     16  C   UNL     1      17.676   9.948  37.475  0.00  0.00    +0.000 C 
ATOM     17  C   UNL     1      18.918   9.638  36.718  0.00  0.00    +0.000 C 
ATOM     18  C   UNL     1      20.164  10.039  37.443  0.00  0.00    +0.000 C 
ATOM     19  C   UNL     1      19.890  10.381  38.872  0.00  0.00    +0.000 C 
ENDBRANCH  12  16
ENDBRANCH   1  12
TORSDOF 2
ENDMDL
MODEL 2
REMARK VINA RESULT:      -7.8      1.056      2.150
REMARK  Name = 
REMARK  2 active torsions:
REMARK  status: ('A' for Active; 'I' for Inactive)
REMARK    1  A    between atoms: C_4  and  N_5
REMARK    2  A    between atoms: N_5  and  N_6
REMARK                            x       y       z     vdW  Elec       q    Type
REMARK                         _______ _______ _______ _____ _____    ______ ____
ROOT
ATOM      1  N   UNL     1      16.154  11.001  36.065  0.00  0.00    +0.000 NA
ATOM      2  C   UNL     1      15.953  11.266  34.816  0.00  0.00    +0.000 A 
ATOM      3  C   UNL     1      16.666  10.516  33.904  0.00  0.00    +0.000 A 
ATOM      4  C   UNL     1      16.471  10.778  32.567  0.00  0.00    +0.000 A 
ATOM      5  C   UNL     1      15.580  11.771  32.193  0.00  0.00    +0.000 A 
ATOM      6  C   UNL     1      15.394  12.023  30.857  0.00  0.00    +0.000 A 
ATOM      7  C   UNL     1      14.514  13.004  30.454  0.00  0.00    +0.000 A 
ATOM      8  C   UNL     1      13.805  13.750  31.367  0.00  0.00    +0.000 A 
ATOM      9  C   UNL     1      14.001  13.487  32.698  0.00  0.00    +0.000 A 
ATOM     10  C   UNL     1      14.877  12.510  33.119  0.00  0.00    +0.000 A 
ATOM     11  N   UNL     1      15.083  12.236  34.419  0.00  0.00    +0.000 NA
ENDROOT
BRANCH   1  12
ATOM     12  N   UNL     1      17.053   9.997  36.477  0.00  0.00    +0.000 NA
BRANCH  12  16
ATOM     13  C   UNL     1      20.764  12.344  38.216  0.00  0.00    +0.000 C 
ATOM     14  C   UNL     1      19.571  11.442  38.962  0.00  0.00    +0.000 C 
ATOM     15  C   UNL     1      18.674  11.384  37.613  0.00  0.00    +0.000 C 
ATOM     16  C   UNL     1      17.926  10.284  37.556  0.00  0.00    +0.000 C 
ATOM     17  C   UNL     1      17.987   9.290  38.661  0.00  0.00    +0.000 C 
ATOM     18  C   UNL     1      19.382   9.016  39.129  0.00  0.00    +0.000 C 
ATOM     19  C   UNL     1      20.355  10.013  38.588  0.00  0.00    +0.000 C 
ENDBRANCH  12  16
ENDBRANCH   1  12
TORSDOF 2
ENDMDL
MODEL 3
REMARK VINA RESULT:      -7.6      1.324      2.223
REMARK  Name = 
REMARK  2 active torsions:
REMARK  status: ('A' for Active; 'I' for Inactive)
REMARK    1  A    between atoms: C_4  and  N_5
REMARK    2  A    between atoms: N_5  and  N_6
REMARK                            x       y       z     vdW  Elec       q    Type
REMARK                         _______ _______ _______ _____ _____    ______ ____
ROOT
ATOM      1  N   UNL     1      17.854   9.481  35.082  0.00  0.00    +0.000 NA
ATOM      2  C   UNL     1      17.022  10.290  34.511  0.00  0.00    +0.000 A 
ATOM      3  C   UNL     1      16.319  11.138  35.341  0.00  0.00    +0.000 A 
ATOM      4  C   UNL     1      15.426  12.009  34.759  0.00  0.00    +0.000 A 
ATOM      5  C   UNL     1      15.270  12.002  33.383  0.00  0.00    +0.000 A 
ATOM      6  C   UNL     1      14.377  12.875  32.814  0.00  0.00    +0.000 A 
ATOM      7  C   UNL     1      14.200  12.891  31.448  0.00  0.00    +0.000 A 
ATOM      8  C   UNL     1      14.903  12.043  30.624  0.00  0.00    +0.000 A 
ATOM      9  C   UNL     1      15.791  11.176  31.206  0.00  0.00    +0.000 A 
ATOM     10  C   UNL     1      15.981  11.147  32.570  0.00  0.00    +0.000 A 
ATOM     11  N   UNL     1      16.847  10.304  33.160  0.00  0.00    +0.000 NA
ENDROOT
BRANCH   1  12
ATOM     12  N   UNL     1      18.036   9.465  36.480  0.00  0.00    +0.000 NA
BRANCH  12  16
ATOM     13  C   UNL     1      22.745   9.356  36.811  0.00  0.00    +0.000 C 
ATOM     14  C   UNL     1      21.626  10.510  37.267  0.00  0.00    +0.000 C 
ATOM     15  C   UNL     1      20.433   9.775  36.453  0.00  0.00    +0.000 C 
ATOM     16  C   UNL     1      19.240   9.998  37.003  0.00  0.00    +0.000 C 
ATOM     17  C   UNL     1      19.135  10.840  38.224  0.00  0.00    +0.000 C 
ATOM     18  C   UNL     1      20.191  10.538  39.240  0.00  0.00    +0.000 C 
ATOM     19  C   UNL     1      21.275   9.678  38.675  0.00  0.00    +0.000 C 
ENDBRANCH  12  16
ENDBRANCH   1  12
TORSDOF 2
ENDMDL
MODEL 4
REMARK VINA RESULT:      -7.5      2.112      3.732
REMARK  Name = 
REMARK  2 active torsions:
REMARK  status: ('A' for Active; 'I' for Inactive)
REMARK    1  A    between atoms: C_4  and  N_5
REMARK    2  A    between atoms: N_5  and  N_6
REMARK                            x       y       z     vdW  Elec       q    Type
REMARK                         _______ _______ _______ _____ _____    ______ ____
ROOT
ATOM      1  N   UNL     1      17.173  10.178  37.967  0.00  0.00    +0.000 NA
ATOM      2  C   UNL     1      17.059  10.273  36.683  0.00  0.00    +0.000 A 
ATOM      3  C   UNL     1      17.897   9.477  35.930  0.00  0.00    +0.000 A 
ATOM      4  C   UNL     1      17.797   9.559  34.559  0.00  0.00    +0.000 A 
ATOM      5  C   UNL     1      16.873  10.424  33.997  0.00  0.00    +0.000 A 
ATOM      6  C   UNL     1      16.782  10.497  32.629  0.00  0.00    +0.000 A 
ATOM      7  C   UNL     1      15.872  11.348  32.041  0.00  0.00    +0.000 A 
ATOM      8  C   UNL     1      15.039  12.140  32.796  0.00  0.00    +0.000 A 
ATOM      9  C   UNL     1      15.141  12.057  34.160  0.00  0.00    +0.000 A 
ATOM     10  C   UNL     1      16.044  11.211  34.766  0.00  0.00    +0.000 A 
ATOM     11  N   UNL     1      16.160  11.115  36.102  0.00  0.00    +0.000 NA
ENDROOT
BRANCH   1  12
ATOM     12  N   UNL     1      18.103   9.307  38.569  0.00  0.00    +0.000 NA
BRANCH  12  16
ATOM     13  C   UNL     1      17.777   5.608  41.487  0.00  0.00    +0.000 C 
ATOM     14  C   UNL     1      17.726   7.254  41.770  0.00  0.00    +0.000 C 
ATOM     15  C   UNL     1      18.243   7.598  40.273  0.00  0.00    +0.000 C 
ATOM     16  C   UNL     1      17.793   8.777  39.846  0.00  0.00    +0.000 C 
ATOM     17  C   UNL     1      16.922   9.599  40.728  0.00  0.00    +0.000 C 
ATOM     18  C   UNL     1      15.869   8.798  41.427  0.00  0.00    +0.000 C 
ATOM     19  C   UNL     1      16.120   7.329  41.310  0.00  0.00    +0.000 C 
ENDBRANCH  12  16
ENDBRANCH   1  12
TORSDOF 2
ENDMDL
MODEL 5
REMARK VINA RESULT:      -7.5      1.809      7.451
REMARK  Name = 
REMARK  2 active torsions:
REMARK  status: ('A' for Active; 'I' for Inactive)
REMARK    1  A    between atoms: C_4  and  N_5
REMARK    2  A    between atoms: N_5  and  N_6
REMARK                            x       y       z     vdW  Elec       q    Type
REMARK                         _______ _______ _______ _____ _____    ______ ____
ROOT
ATOM      1  N   UNL     1      15.908  12.417  35.688  0.00  0.00    +0.000 NA
ATOM      2  C   UNL     1      15.780  11.765  36.797  0.00  0.00    +0.000 A 
ATOM      3  C   UNL     1      14.516  11.732  37.348  0.00  0.00    +0.000 A 
ATOM      4  C   UNL     1      14.350  11.046  38.530  0.00  0.00    +0.000 A 
ATOM      5  C   UNL     1      15.442  10.423  39.112  0.00  0.00    +0.000 A 
ATOM      6  C   UNL     1      15.265   9.741  40.289  0.00  0.00    +0.000 A 
ATOM      7  C   UNL     1      16.333   9.112  40.891  0.00  0.00    +0.000 A 
ATOM      8  C   UNL     1      17.591   9.148  40.338  0.00  0.00    +0.000 A 
ATOM      9  C   UNL     1      17.754   9.833  39.162  0.00  0.00    +0.000 A 
ATOM     10  C   UNL     1      16.698  10.467  38.546  0.00  0.00    +0.000 A 
ATOM     11  N   UNL     1      16.836  11.144  37.392  0.00  0.00    +0.000 NA
ENDROOT
BRANCH   1  12
ATOM     12  N   UNL     1      14.817  13.060  35.071  0.00  0.00    +0.000 NA
BRANCH  12  16
ATOM     13  C   UNL     1      15.985  10.848  31.066  0.00  0.00    +0.000 C 
ATOM     14  C   UNL     1      14.595  11.655  31.524  0.00  0.00    +0.000 C 
ATOM     15  C   UNL     1      15.061  11.718  33.076  0.00  0.00    +0.000 C 
ATOM     16  C   UNL     1      14.559  12.779  33.707  0.00  0.00    +0.000 C 
ATOM     17  C   UNL     1      13.684  13.730  32.972  0.00  0.00    +0.000 C 
ATOM     18  C   UNL     1      14.192  14.060  31.603  0.00  0.00    +0.000 C 
ATOM     19  C   UNL     1      15.290  13.138  31.182  0.00  0.00    +0.000 C 
ENDBRANCH  12  16
ENDBRANCH   1  12
TORSDOF 2
ENDMDL
MODEL 6
REMARK VINA RESULT:      -6.5     18.464     19.593
REMARK  Name = 
REMARK  2 active torsions:
REMARK  status: ('A' for Active; 'I' for Inactive)
REMARK    1  A    between atoms: C_4  and  N_5
REMARK    2  A    between atoms: N_5  and  N_6
REMARK                            x       y       z     vdW  Elec       q    Type
REMARK                         _______ _______ _______ _____ _____    ______ ____
ROOT
ATOM      1  N   UNL     1      30.032  22.060  27.462  0.00  0.00    +0.000 NA
ATOM      2  C   UNL     1      29.697  22.462  26.280  0.00  0.00    +0.000 A 
ATOM      3  C   UNL     1      30.730  22.708  25.399  0.00  0.00    +0.000 A 
ATOM      4  C   UNL     1      30.402  23.138  24.133  0.00  0.00    +0.000 A 
ATOM      5  C   UNL     1      29.069  23.304  23.796  0.00  0.00    +0.000 A 
ATOM      6  C   UNL     1      28.755  23.732  22.531  0.00  0.00    +0.000 A 
ATOM      7  C   UNL     1      27.437  23.906  22.167  0.00  0.00    +0.000 A 
ATOM      8  C   UNL     1      26.411  23.659  23.049  0.00  0.00    +0.000 A 
ATOM      9  C   UNL     1      26.740  23.232  24.309  0.00  0.00    +0.000 A 
ATOM     10  C   UNL     1      28.051  23.052  24.690  0.00  0.00    +0.000 A 
ATOM     11  N   UNL     1      28.395  22.634  25.921  0.00  0.00    +0.000 NA
ENDROOT
BRANCH   1  12
ATOM     12  N   UNL     1      31.379  21.881  27.835  0.00  0.00    +0.000 NA
BRANCH  12  16
ATOM     13  C   UNL     1      33.995  20.830  31.624  0.00  0.00    +0.000 C 
ATOM     14  C   UNL     1      33.024  22.145  31.274  0.00  0.00    +0.000 C 
ATOM     15  C   UNL     1      32.888  21.717  29.716  0.00  0.00    +0.000 C 
ATOM     16  C   UNL     1      31.738  22.129  29.182  0.00  0.00    +0.000 C 
ATOM     17  C   UNL     1      30.766  22.885  30.016  0.00  0.00    +0.000 C 
ATOM     18  C   UNL     1      30.593  22.310  31.386  0.00  0.00    +0.000 C 
ATOM     19  C   UNL     1      31.646  21.297  31.701  0.00  0.00    +0.000 C 
ENDBRANCH  12  16
ENDBRANCH   1  12
TORSDOF 2
ENDMDL
MODEL 7
REMARK VINA RESULT:      -6.5     21.051     22.898
REMARK  Name = 
REMARK  2 active torsions:
REMARK  status: ('A' for Active; 'I' for Inactive)
REMARK    1  A    between atoms: C_4  and  N_5
REMARK    2  A    between atoms: N_5  and  N_6
REMARK                            x       y       z     vdW  Elec       q    Type
REMARK                         _______ _______ _______ _____ _____    ______ ____
ROOT
ATOM      1  N   UNL     1      29.006  23.800  21.556  0.00  0.00    +0.000 NA
ATOM      2  C   UNL     1      28.880  25.016  21.133  0.00  0.00    +0.000 A 
ATOM      3  C   UNL     1      27.775  25.711  21.578  0.00  0.00    +0.000 A 
ATOM      4  C   UNL     1      27.616  27.007  21.143  0.00  0.00    +0.000 A 
ATOM      5  C   UNL     1      28.558  27.557  20.288  0.00  0.00    +0.000 A 
ATOM      6  C   UNL     1      28.389  28.850  19.861  0.00  0.00    +0.000 A 
ATOM      7  C   UNL     1      29.308  29.423  19.010  0.00  0.00    +0.000 A 
ATOM      8  C   UNL     1      30.409  28.725  18.569  0.00  0.00    +0.000 A 
ATOM      9  C   UNL     1      30.564  27.435  19.003  0.00  0.00    +0.000 A 
ATOM     10  C   UNL     1      29.655  26.846  19.854  0.00  0.00    +0.000 A 
ATOM     11  N   UNL     1      29.789  25.581  20.292  0.00  0.00    +0.000 NA
ENDROOT
BRANCH   1  12
ATOM     12  N   UNL     1      28.066  23.214  22.427  0.00  0.00    +0.000 NA
BRANCH  12  16
ATOM     13  C   UNL     1      30.508  22.318  26.368  0.00  0.00    +0.000 C 
ATOM     14  C   UNL     1      29.317  23.441  26.030  0.00  0.00    +0.000 C 
ATOM     15  C   UNL     1      29.408  23.160  24.436  0.00  0.00    +0.000 C 
ATOM     16  C   UNL     1      28.248  23.387  23.821  0.00  0.00    +0.000 C 
ATOM     17  C   UNL     1      27.071  23.841  24.608  0.00  0.00    +0.000 C 
ATOM     18  C   UNL     1      26.905  23.104  25.899  0.00  0.00    +0.000 C 
ATOM     19  C   UNL     1      28.116  22.296  26.236  0.00  0.00    +0.000 C 
ENDBRANCH  12  16
ENDBRANCH   1  12
TORSDOF 2
ENDMDL
MODEL 8
REMARK VINA RESULT:      -6.4     19.147     21.798
REMARK  Name = 
REMARK  2 active torsions:
REMARK  status: ('A' for Active; 'I' for Inactive)
REMARK    1  A    between atoms: C_4  and  N_5
REMARK    2  A    between atoms: N_5  and  N_6
REMARK                            x       y       z     vdW  Elec       q    Type
REMARK                         _______ _______ _______ _____ _____    ______ ____
ROOT
ATOM      1  N   UNL     1      33.382  -1.715  33.645  0.00  0.00    +0.000 NA
ATOM      2  C   UNL     1      33.540  -0.548  34.180  0.00  0.00    +0.000 A 
ATOM      3  C   UNL     1      33.869  -0.524  35.519  0.00  0.00    +0.000 A 
ATOM      4  C   UNL     1      34.043   0.705  36.115  0.00  0.00    +0.000 A 
ATOM      5  C   UNL     1      33.885   1.854  35.357  0.00  0.00    +0.000 A 
ATOM      6  C   UNL     1      34.061   3.073  35.961  0.00  0.00    +0.000 A 
ATOM      7  C   UNL     1      33.909   4.233  35.234  0.00  0.00    +0.000 A 
ATOM      8  C   UNL     1      33.581   4.205  33.898  0.00  0.00    +0.000 A 
ATOM      9  C   UNL     1      33.408   2.980  33.309  0.00  0.00    +0.000 A 
ATOM     10  C   UNL     1      33.556   1.810  34.020  0.00  0.00    +0.000 A 
ATOM     11  N   UNL     1      33.390   0.598  33.460  0.00  0.00    +0.000 NA
ENDROOT
BRANCH   1  12
ATOM     12  N   UNL     1      33.538  -2.902  34.389  0.00  0.00    +0.000 NA
BRANCH  12  16
ATOM     13  C   UNL     1      33.143  -5.309  30.345  0.00  0.00    +0.000 C 
ATOM     14  C   UNL     1      33.758  -5.739  31.838  0.00  0.00    +0.000 C 
ATOM     15  C   UNL     1      33.742  -4.205  32.364  0.00  0.00    +0.000 C 
ATOM     16  C   UNL     1      33.585  -4.130  33.685  0.00  0.00    +0.000 C 
ATOM     17  C   UNL     1      33.449  -5.376  34.485  0.00  0.00    +0.000 C 
ATOM     18  C   UNL     1      32.543  -6.386  33.853  0.00  0.00    +0.000 C 
ATOM     19  C   UNL     1      32.224  -6.034  32.435  0.00  0.00    +0.000 C 
ENDBRANCH  12  16
ENDBRANCH   1  12
TORSDOF 2
ENDMDL
MODEL 9
REMARK VINA RESULT:      -6.4     18.131     19.749
REMARK  Name = 
REMARK  2 active torsions:
REMARK  status: ('A' for Active; 'I' for Inactive)
REMARK    1  A    between atoms: C_4  and  N_5
REMARK    2  A    between atoms: N_5  and  N_6
REMARK                            x       y       z     vdW  Elec       q    Type
REMARK                         _______ _______ _______ _____ _____    ______ ____
ROOT
ATOM      1  N   UNL     1      34.004   5.000  36.001  0.00  0.00    +0.000 NA
ATOM      2  C   UNL     1      33.917   3.920  35.294  0.00  0.00    +0.000 A 
ATOM      3  C   UNL     1      33.789   4.086  33.931  0.00  0.00    +0.000 A 
ATOM      4  C   UNL     1      33.693   2.954  33.154  0.00  0.00    +0.000 A 
ATOM      5  C   UNL     1      33.728   1.709  33.761  0.00  0.00    +0.000 A 
ATOM      6  C   UNL     1      33.632   0.588  32.977  0.00  0.00    +0.000 A 
ATOM      7  C   UNL     1      33.664  -0.664  33.553  0.00  0.00    +0.000 A 
ATOM      8  C   UNL     1      33.791  -0.824  34.913  0.00  0.00    +0.000 A 
ATOM      9  C   UNL     1      33.885   0.305  35.684  0.00  0.00    +0.000 A 
ATOM     10  C   UNL     1      33.856   1.564  35.125  0.00  0.00    +0.000 A 
ATOM     11  N   UNL     1      33.947   2.684  35.864  0.00  0.00    +0.000 NA
ENDROOT
BRANCH   1  12
ATOM     12  N   UNL     1      33.973   6.280  35.412  0.00  0.00    +0.000 NA
BRANCH  12  16
ATOM     13  C   UNL     1      33.837   9.941  38.392  0.00  0.00    +0.000 C 
ATOM     14  C   UNL     1      35.117   9.101  37.722  0.00  0.00    +0.000 C 
ATOM     15  C   UNL     1      34.148   7.920  37.178  0.00  0.00    +0.000 C 
ATOM     16  C   UNL     1      34.633   7.339  36.081  0.00  0.00    +0.000 C 
ATOM     17  C   UNL     1      35.924   7.804  35.509  0.00  0.00    +0.000 C 
ATOM     18  C   UNL     1      36.053   9.294  35.477  0.00  0.00    +0.000 C 
ATOM     19  C   UNL     1      34.991   9.960  36.292  0.00  0.00    +0.000 C 
ENDBRANCH  12  16
ENDBRANCH   1  12
TORSDOF 2
ENDMDL
MODEL 10
REMARK VINA RESULT:      -6.3     22.692     24.485
REMARK  Name = 
REMARK  2 active torsions:
REMARK  status: ('A' for Active; 'I' for Inactive)
REMARK    1  A    between atoms: C_4  and  N_5
REMARK    2  A    between atoms: N_5  and  N_6
REMARK                            x       y       z     vdW  Elec       q    Type
REMARK                         _______ _______ _______ _____ _____    ______ ____
ROOT
ATOM      1  N   UNL     1      29.605  24.757  20.924  0.00  0.00    +0.000 NA
ATOM      2  C   UNL     1      29.452  25.932  20.406  0.00  0.00    +0.000 A 
ATOM      3  C   UNL     1      28.513  26.748  21.000  0.00  0.00    +0.000 A 
ATOM      4  C   UNL     1      28.328  28.005  20.468  0.00  0.00    +0.000 A 
ATOM      5  C   UNL     1      29.083  28.396  19.374  0.00  0.00    +0.000 A 
ATOM      6  C   UNL     1      28.891  29.650  18.853  0.00  0.00    +0.000 A 
ATOM      7  C   UNL     1      29.626  30.067  17.764  0.00  0.00    +0.000 A 
ATOM      8  C   UNL     1      30.562  29.249  17.176  0.00  0.00    +0.000 A 
ATOM      9  C   UNL     1      30.743  27.998  17.707  0.00  0.00    +0.000 A 
ATOM     10  C   UNL     1      30.017  27.565  18.794  0.00  0.00    +0.000 A 
ATOM     11  N   UNL     1      30.179  26.342  19.330  0.00  0.00    +0.000 NA
ENDROOT
BRANCH   1  12
ATOM     12  N   UNL     1      28.854  24.331  22.038  0.00  0.00    +0.000 NA
BRANCH  12  16
ATOM     13  C   UNL     1      32.250  25.687  25.026  0.00  0.00    +0.000 C 
ATOM     14  C   UNL     1      30.912  24.707  25.235  0.00  0.00    +0.000 C 
ATOM     15  C   UNL     1      30.279  25.149  23.810  0.00  0.00    +0.000 C 
ATOM     16  C   UNL     1      29.520  24.191  23.280  0.00  0.00    +0.000 C 
ATOM     17  C   UNL     1      29.346  22.903  24.002  0.00  0.00    +0.000 C 
ATOM     18  C   UNL     1      30.621  22.375  24.581  0.00  0.00    +0.000 C 
ATOM     19  C   UNL     1      31.708  23.401  24.557  0.00  0.00    +0.000 C 
ENDBRANCH  12  16
ENDBRANCH   1  12
TORSDOF 2
ENDMDL
