MODEL 1
REMARK VINA RESULT:      -8.1      0.000      0.000
REMARK  Name = 
REMARK  5 active torsions:
REMARK  status: ('A' for Active; 'I' for Inactive)
REMARK    1  A    between atoms: C_19  and  C_20
REMARK    2  A    between atoms: C_23  and  O_24
REMARK    3  A    between atoms: O_24  and  C_25
REMARK    4  A    between atoms: C_25  and  C_26
REMARK    5  A    between atoms: C_26  and  N_27
REMARK                            x       y       z     vdW  Elec       q    Type
REMARK                         _______ _______ _______ _____ _____    ______ ____
ROOT
ATOM      1  O   UNL     1      34.369  -9.145  17.024  0.00  0.00    +0.000 OA
ATOM      2  C   UNL     1      34.868  -7.914  16.659  0.00  0.00    +0.000 A 
ATOM      3  C   UNL     1      34.309  -7.118  15.712  0.00  0.00    +0.000 A 
ATOM      4  C   UNL     1      34.837  -5.919  15.388  0.00  0.00    +0.000 A 
ATOM      5  C   UNL     1      35.992  -5.381  15.984  0.00  0.00    +0.000 A 
ATOM      6  C   UNL     1      36.649  -4.203  15.778  0.00  0.00    +0.000 A 
ATOM      7  C   UNL     1      37.730  -3.945  16.487  0.00  0.00    +0.000 A 
ATOM      8  S   UNL     1      37.912  -5.324  17.495  0.00  0.00    +0.000 S 
ATOM      9  C   UNL     1      36.535  -6.188  16.924  0.00  0.00    +0.000 A 
ATOM     10  C   UNL     1      36.003  -7.437  17.274  0.00  0.00    +0.000 A 
ATOM     11  C   UNL     1      38.644  -2.752  16.476  0.00  0.00    +0.000 C 
ATOM     12  C   UNL     1      39.089  -2.651  15.063  0.00  0.00    +0.000 A 
ATOM     13  C   UNL     1      40.415  -2.289  15.049  0.00  0.00    +0.000 A 
ATOM     14  C   UNL     1      41.121  -2.117  13.864  0.00  0.00    +0.000 A 
ATOM     15  C   UNL     1      40.445  -2.322  12.681  0.00  0.00    +0.000 A 
ATOM     16  C   UNL     1      39.116  -2.685  12.699  0.00  0.00    +0.000 A 
ATOM     17  C   UNL     1      38.437  -2.849  13.901  0.00  0.00    +0.000 A 
ATOM     18  O   UNL     1      37.172  -3.198  13.672  0.00  0.00    +0.000 OA
ATOM     19  C   UNL     1      35.964  -3.251  14.637  0.00  0.00    +0.000 C 
ENDROOT
BRANCH  19  20
ATOM     20  C   UNL     1      36.129  -1.841  15.301  0.00  0.00    +0.000 A 
ATOM     21  C   UNL     1      35.710  -1.730  16.580  0.00  0.00    +0.000 A 
ATOM     22  C   UNL     1      35.801  -0.518  17.291  0.00  0.00    +0.000 A 
ATOM     23  C   UNL     1      36.338   0.548  16.620  0.00  0.00    +0.000 A 
ATOM     24  C   UNL     1      36.763   0.428  15.317  0.00  0.00    +0.000 A 
ATOM     25  C   UNL     1      36.655  -0.805  14.634  0.00  0.00    +0.000 A 
BRANCH  23  26
ATOM     26  O   UNL     1      36.436   1.757  17.309  0.00  0.00    +0.000 OA
BRANCH  26  27
ATOM     27  C   UNL     1      36.458   2.947  16.546  0.00  0.00    +0.000 C 
BRANCH  27  28
ATOM     28  C   UNL     1      37.533   3.840  17.133  0.00  0.00    +0.000 C 
BRANCH  28  29
ATOM     29  N   UNL     1      38.259   4.432  16.033  0.00  0.00    +0.000 NA
ATOM     30  C   UNL     1      38.923   3.423  15.249  0.00  0.00    +0.000 C 
ATOM     31  C   UNL     1      39.410   4.069  13.968  0.00  0.00    +0.000 C 
ATOM     32  C   UNL     1      40.447   5.125  14.353  0.00  0.00    +0.000 C 
ATOM     33  C   UNL     1      39.852   6.097  15.365  0.00  0.00    +0.000 C 
ATOM     34  C   UNL     1      39.294   5.330  16.546  0.00  0.00    +0.000 C 
ENDBRANCH  28  29
ENDBRANCH  27  28
ENDBRANCH  26  27
ENDBRANCH  23  26
ENDBRANCH  19  20
TORSDOF 5
ENDMDL
MODEL 2
REMARK VINA RESULT:      -8.1      1.459      2.020
REMARK  Name = 
REMARK  5 active torsions:
REMARK  status: ('A' for Active; 'I' for Inactive)
REMARK    1  A    between atoms: C_19  and  C_20
REMARK    2  A    between atoms: C_23  and  O_24
REMARK    3  A    between atoms: O_24  and  C_25
REMARK    4  A    between atoms: C_25  and  C_26
REMARK    5  A    between atoms: C_26  and  N_27
REMARK                            x       y       z     vdW  Elec       q    Type
REMARK                         _______ _______ _______ _____ _____    ______ ____
ROOT
ATOM      1  O   UNL     1      34.698  -7.812  16.603  0.00  0.00    +0.000 OA
ATOM      2  C   UNL     1      35.253  -6.616  16.202  0.00  0.00    +0.000 A 
ATOM      3  C   UNL     1      34.761  -5.849  15.196  0.00  0.00    +0.000 A 
ATOM      4  C   UNL     1      35.342  -4.684  14.839  0.00  0.00    +0.000 A 
ATOM      5  C   UNL     1      36.490  -4.156  15.457  0.00  0.00    +0.000 A 
ATOM      6  C   UNL     1      37.195  -3.011  15.224  0.00  0.00    +0.000 A 
ATOM      7  C   UNL     1      38.254  -2.755  15.966  0.00  0.00    +0.000 A 
ATOM      8  S   UNL     1      38.348  -4.088  17.044  0.00  0.00    +0.000 S 
ATOM      9  C   UNL     1      36.967  -4.933  16.457  0.00  0.00    +0.000 A 
ATOM     10  C   UNL     1      36.378  -6.147  16.842  0.00  0.00    +0.000 A 
ATOM     11  C   UNL     1      39.208  -1.593  15.938  0.00  0.00    +0.000 C 
ATOM     12  C   UNL     1      39.713  -1.574  14.542  0.00  0.00    +0.000 A 
ATOM     13  C   UNL     1      41.050  -1.256  14.566  0.00  0.00    +0.000 A 
ATOM     14  C   UNL     1      41.809  -1.164  13.406  0.00  0.00    +0.000 A 
ATOM     15  C   UNL     1      41.174  -1.404  12.206  0.00  0.00    +0.000 A 
ATOM     16  C   UNL     1      39.834  -1.722  12.185  0.00  0.00    +0.000 A 
ATOM     17  C   UNL     1      39.102  -1.807  13.363  0.00  0.00    +0.000 A 
ATOM     18  O   UNL     1      37.836  -2.125  13.098  0.00  0.00    +0.000 OA
ATOM     19  C   UNL     1      36.589  -2.093  14.012  0.00  0.00    +0.000 C 
ENDROOT
BRANCH  19  20
ATOM     20  C   UNL     1      36.775  -0.659  14.617  0.00  0.00    +0.000 A 
ATOM     21  C   UNL     1      36.341  -0.483  15.884  0.00  0.00    +0.000 A 
ATOM     22  C   UNL     1      36.449   0.757  16.542  0.00  0.00    +0.000 A 
ATOM     23  C   UNL     1      37.017   1.781  15.833  0.00  0.00    +0.000 A 
ATOM     24  C   UNL     1      37.456   1.595  14.543  0.00  0.00    +0.000 A 
ATOM     25  C   UNL     1      37.332   0.336  13.913  0.00  0.00    +0.000 A 
BRANCH  23  26
ATOM     26  O   UNL     1      37.132   3.017  16.470  0.00  0.00    +0.000 OA
BRANCH  26  27
ATOM     27  C   UNL     1      38.358   3.709  16.341  0.00  0.00    +0.000 C 
BRANCH  27  28
ATOM     28  C   UNL     1      38.033   5.188  16.254  0.00  0.00    +0.000 C 
BRANCH  28  29
ATOM     29  N   UNL     1      38.942   5.888  17.131  0.00  0.00    +0.000 NA
ATOM     30  C   UNL     1      40.276   5.904  16.587  0.00  0.00    +0.000 C 
ATOM     31  C   UNL     1      41.099   6.888  17.394  0.00  0.00    +0.000 C 
ATOM     32  C   UNL     1      41.181   6.353  18.823  0.00  0.00    +0.000 C 
ATOM     33  C   UNL     1      39.779   6.105  19.370  0.00  0.00    +0.000 C 
ATOM     34  C   UNL     1      39.013   5.204  18.423  0.00  0.00    +0.000 C 
ENDBRANCH  28  29
ENDBRANCH  27  28
ENDBRANCH  26  27
ENDBRANCH  23  26
ENDBRANCH  19  20
TORSDOF 5
ENDMDL
MODEL 3
REMARK VINA RESULT:      -7.9      7.897     11.278
REMARK  Name = 
REMARK  5 active torsions:
REMARK  status: ('A' for Active; 'I' for Inactive)
REMARK    1  A    between atoms: C_19  and  C_20
REMARK    2  A    between atoms: C_23  and  O_24
REMARK    3  A    between atoms: O_24  and  C_25
REMARK    4  A    between atoms: C_25  and  C_26
REMARK    5  A    between atoms: C_26  and  N_27
REMARK                            x       y       z     vdW  Elec       q    Type
REMARK                         _______ _______ _______ _____ _____    ______ ____
ROOT
ATOM      1  O   UNL     1      46.328   6.081  21.482  0.00  0.00    +0.000 OA
ATOM      2  C   UNL     1      45.070   6.271  20.954  0.00  0.00    +0.000 A 
ATOM      3  C   UNL     1      43.922   6.172  21.672  0.00  0.00    +0.000 A 
ATOM      4  C   UNL     1      42.711   6.367  21.109  0.00  0.00    +0.000 A 
ATOM      5  C   UNL     1      42.517   6.685  19.752  0.00  0.00    +0.000 A 
ATOM      6  C   UNL     1      41.380   6.911  19.032  0.00  0.00    +0.000 A 
ATOM      7  C   UNL     1      41.486   7.196  17.750  0.00  0.00    +0.000 A 
ATOM      8  S   UNL     1      43.177   7.170  17.449  0.00  0.00    +0.000 S 
ATOM      9  C   UNL     1      43.671   6.779  19.053  0.00  0.00    +0.000 A 
ATOM     10  C   UNL     1      44.938   6.580  19.620  0.00  0.00    +0.000 A 
ATOM     11  C   UNL     1      40.427   7.485  16.722  0.00  0.00    +0.000 C 
ATOM     12  C   UNL     1      39.542   6.294  16.771  0.00  0.00    +0.000 A 
ATOM     13  C   UNL     1      39.149   5.990  15.489  0.00  0.00    +0.000 A 
ATOM     14  C   UNL     1      38.313   4.917  15.208  0.00  0.00    +0.000 A 
ATOM     15  C   UNL     1      37.878   4.150  16.267  0.00  0.00    +0.000 A 
ATOM     16  C   UNL     1      38.274   4.457  17.550  0.00  0.00    +0.000 A 
ATOM     17  C   UNL     1      39.111   5.538  17.800  0.00  0.00    +0.000 A 
ATOM     18  O   UNL     1      39.356   5.640  19.105  0.00  0.00    +0.000 OA
ATOM     19  C   UNL     1      40.003   6.792  19.909  0.00  0.00    +0.000 C 
ENDROOT
BRANCH  19  20
ATOM     20  C   UNL     1      39.181   7.987  19.317  0.00  0.00    +0.000 A 
ATOM     21  C   UNL     1      37.889   7.734  19.016  0.00  0.00    +0.000 A 
ATOM     22  C   UNL     1      37.043   8.722  18.477  0.00  0.00    +0.000 A 
ATOM     23  C   UNL     1      37.594   9.958  18.272  0.00  0.00    +0.000 A 
ATOM     24  C   UNL     1      38.911  10.209  18.580  0.00  0.00    +0.000 A 
ATOM     25  C   UNL     1      39.732   9.192  19.120  0.00  0.00    +0.000 A 
BRANCH  23  26
ATOM     26  O   UNL     1      36.770  10.948  17.738  0.00  0.00    +0.000 OA
BRANCH  26  27
ATOM     27  C   UNL     1      35.484  10.563  17.295  0.00  0.00    +0.000 C 
BRANCH  27  28
ATOM     28  C   UNL     1      35.337  11.044  15.865  0.00  0.00    +0.000 C 
BRANCH  28  29
ATOM     29  N   UNL     1      35.122   9.884  15.032  0.00  0.00    +0.000 NA
ATOM     30  C   UNL     1      34.167   8.987  15.632  0.00  0.00    +0.000 C 
ATOM     31  C   UNL     1      33.773   7.959  14.591  0.00  0.00    +0.000 C 
ATOM     32  C   UNL     1      35.025   7.152  14.247  0.00  0.00    +0.000 C 
ATOM     33  C   UNL     1      36.148   8.088  13.816  0.00  0.00    +0.000 C 
ATOM     34  C   UNL     1      36.374   9.142  14.881  0.00  0.00    +0.000 C 
ENDBRANCH  28  29
ENDBRANCH  27  28
ENDBRANCH  26  27
ENDBRANCH  23  26
ENDBRANCH  19  20
TORSDOF 5
ENDMDL
MODEL 4
REMARK VINA RESULT:      -7.6     26.638     30.119
REMARK  Name = 
REMARK  5 active torsions:
REMARK  status: ('A' for Active; 'I' for Inactive)
REMARK    1  A    between atoms: C_19  and  C_20
REMARK    2  A    between atoms: C_23  and  O_24
REMARK    3  A    between atoms: O_24  and  C_25
REMARK    4  A    between atoms: C_25  and  C_26
REMARK    5  A    between atoms: C_26  and  N_27
REMARK                            x       y       z     vdW  Elec       q    Type
REMARK                         _______ _______ _______ _____ _____    ______ ____
ROOT
ATOM      1  O   UNL     1      21.940  17.507  41.931  0.00  0.00    +0.000 OA
ATOM      2  C   UNL     1      22.749  17.456  40.817  0.00  0.00    +0.000 A 
ATOM      3  C   UNL     1      23.091  18.540  40.076  0.00  0.00    +0.000 A 
ATOM      4  C   UNL     1      23.888  18.439  38.991  0.00  0.00    +0.000 A 
ATOM      5  C   UNL     1      24.434  17.229  38.527  0.00  0.00    +0.000 A 
ATOM      6  C   UNL     1      25.245  16.953  37.465  0.00  0.00    +0.000 A 
ATOM      7  C   UNL     1      25.615  15.705  37.254  0.00  0.00    +0.000 A 
ATOM      8  S   UNL     1      24.862  14.822  38.520  0.00  0.00    +0.000 S 
ATOM      9  C   UNL     1      24.083  16.159  39.277  0.00  0.00    +0.000 A 
ATOM     10  C   UNL     1      23.256  16.243  40.407  0.00  0.00    +0.000 A 
ATOM     11  C   UNL     1      26.487  15.112  36.182  0.00  0.00    +0.000 C 
ATOM     12  C   UNL     1      25.835  15.530  34.915  0.00  0.00    +0.000 A 
ATOM     13  C   UNL     1      25.914  14.490  34.021  0.00  0.00    +0.000 A 
ATOM     14  C   UNL     1      25.386  14.576  32.738  0.00  0.00    +0.000 A 
ATOM     15  C   UNL     1      24.771  15.755  32.378  0.00  0.00    +0.000 A 
ATOM     16  C   UNL     1      24.694  16.796  33.277  0.00  0.00    +0.000 A 
ATOM     17  C   UNL     1      25.231  16.680  34.553  0.00  0.00    +0.000 A 
ATOM     18  O   UNL     1      25.039  17.804  35.240  0.00  0.00    +0.000 OA
ATOM     19  C   UNL     1      25.653  18.269  36.581  0.00  0.00    +0.000 C 
ENDROOT
BRANCH  19  20
ATOM     20  C   UNL     1      27.158  17.955  36.275  0.00  0.00    +0.000 A 
ATOM     21  C   UNL     1      27.568  18.165  35.006  0.00  0.00    +0.000 A 
ATOM     22  C   UNL     1      28.894  17.921  34.602  0.00  0.00    +0.000 A 
ATOM     23  C   UNL     1      29.753  17.458  35.561  0.00  0.00    +0.000 A 
ATOM     24  C   UNL     1      29.329  17.245  36.852  0.00  0.00    +0.000 A 
ATOM     25  C   UNL     1      27.989  17.501  37.224  0.00  0.00    +0.000 A 
BRANCH  23  26
ATOM     26  O   UNL     1      31.071  17.211  35.178  0.00  0.00    +0.000 OA
BRANCH  26  27
ATOM     27  C   UNL     1      31.356  15.965  34.574  0.00  0.00    +0.000 C 
BRANCH  27  28
ATOM     28  C   UNL     1      32.521  15.354  35.327  0.00  0.00    +0.000 C 
BRANCH  28  29
ATOM     29  N   UNL     1      31.980  14.424  36.290  0.00  0.00    +0.000 NA
ATOM     30  C   UNL     1      32.036  14.969  37.622  0.00  0.00    +0.000 C 
ATOM     31  C   UNL     1      31.200  14.086  38.526  0.00  0.00    +0.000 C 
ATOM     32  C   UNL     1      31.858  12.706  38.555  0.00  0.00    +0.000 C 
ATOM     33  C   UNL     1      32.026  12.178  37.134  0.00  0.00    +0.000 C 
ATOM     34  C   UNL     1      32.773  13.195  36.295  0.00  0.00    +0.000 C 
ENDBRANCH  28  29
ENDBRANCH  27  28
ENDBRANCH  26  27
ENDBRANCH  23  26
ENDBRANCH  19  20
TORSDOF 5
ENDMDL
MODEL 5
REMARK VINA RESULT:      -7.6      4.782     11.238
REMARK  Name = 
REMARK  5 active torsions:
REMARK  status: ('A' for Active; 'I' for Inactive)
REMARK    1  A    between atoms: C_19  and  C_20
REMARK    2  A    between atoms: C_23  and  O_24
REMARK    3  A    between atoms: O_24  and  C_25
REMARK    4  A    between atoms: C_25  and  C_26
REMARK    5  A    between atoms: C_26  and  N_27
REMARK                            x       y       z     vdW  Elec       q    Type
REMARK                         _______ _______ _______ _____ _____    ______ ____
ROOT
ATOM      1  O   UNL     1      46.264   6.826  19.645  0.00  0.00    +0.000 OA
ATOM      2  C   UNL     1      44.988   6.853  19.125  0.00  0.00    +0.000 A 
ATOM      3  C   UNL     1      44.707   7.035  17.810  0.00  0.00    +0.000 A 
ATOM      4  C   UNL     1      43.439   7.055  17.348  0.00  0.00    +0.000 A 
ATOM      5  C   UNL     1      42.304   6.892  18.162  0.00  0.00    +0.000 A 
ATOM      6  C   UNL     1      40.972   6.886  17.864  0.00  0.00    +0.000 A 
ATOM      7  C   UNL     1      40.103   6.711  18.839  0.00  0.00    +0.000 A 
ATOM      8  S   UNL     1      41.073   6.541  20.245  0.00  0.00    +0.000 S 
ATOM      9  C   UNL     1      42.602   6.713  19.469  0.00  0.00    +0.000 A 
ATOM     10  C   UNL     1      43.913   6.690  19.968  0.00  0.00    +0.000 A 
ATOM     11  C   UNL     1      38.600   6.660  18.811  0.00  0.00    +0.000 C 
ATOM     12  C   UNL     1      38.207   7.947  18.183  0.00  0.00    +0.000 A 
ATOM     13  C   UNL     1      37.085   8.418  18.822  0.00  0.00    +0.000 A 
ATOM     14  C   UNL     1      36.476   9.614  18.460  0.00  0.00    +0.000 A 
ATOM     15  C   UNL     1      37.037  10.329  17.425  0.00  0.00    +0.000 A 
ATOM     16  C   UNL     1      38.162   9.854  16.787  0.00  0.00    +0.000 A 
ATOM     17  C   UNL     1      38.748   8.654  17.172  0.00  0.00    +0.000 A 
ATOM     18  O   UNL     1      39.816   8.399  16.418  0.00  0.00    +0.000 OA
ATOM     19  C   UNL     1      40.647   7.103  16.275  0.00  0.00    +0.000 C 
ENDROOT
BRANCH  19  20
ATOM     20  C   UNL     1      39.469   6.086  16.081  0.00  0.00    +0.000 A 
ATOM     21  C   UNL     1      38.454   6.491  15.288  0.00  0.00    +0.000 A 
ATOM     22  C   UNL     1      37.336   5.672  15.034  0.00  0.00    +0.000 A 
ATOM     23  C   UNL     1      37.329   4.441  15.631  0.00  0.00    +0.000 A 
ATOM     24  C   UNL     1      38.367   4.035  16.437  0.00  0.00    +0.000 A 
ATOM     25  C   UNL     1      39.473   4.883  16.671  0.00  0.00    +0.000 A 
BRANCH  23  26
ATOM     26  O   UNL     1      36.230   3.617  15.390  0.00  0.00    +0.000 OA
BRANCH  26  27
ATOM     27  C   UNL     1      35.876   2.685  16.393  0.00  0.00    +0.000 C 
BRANCH  27  28
ATOM     28  C   UNL     1      36.117   1.300  15.827  0.00  0.00    +0.000 C 
BRANCH  28  29
ATOM     29  N   UNL     1      36.611   0.469  16.900  0.00  0.00    +0.000 NA
ATOM     30  C   UNL     1      36.780  -0.893  16.462  0.00  0.00    +0.000 C 
ATOM     31  C   UNL     1      37.564  -1.634  17.526  0.00  0.00    +0.000 C 
ATOM     32  C   UNL     1      36.713  -1.650  18.796  0.00  0.00    +0.000 C 
ATOM     33  C   UNL     1      36.318  -0.227  19.178  0.00  0.00    +0.000 C 
ATOM     34  C   UNL     1      35.648   0.451  18.000  0.00  0.00    +0.000 C 
ENDBRANCH  28  29
ENDBRANCH  27  28
ENDBRANCH  26  27
ENDBRANCH  23  26
ENDBRANCH  19  20
TORSDOF 5
ENDMDL
MODEL 6
REMARK VINA RESULT:      -7.4      6.107      9.831
REMARK  Name = 
REMARK  5 active torsions:
REMARK  status: ('A' for Active; 'I' for Inactive)
REMARK    1  A    between atoms: C_19  and  C_20
REMARK    2  A    between atoms: C_23  and  O_24
REMARK    3  A    between atoms: O_24  and  C_25
REMARK    4  A    between atoms: C_25  and  C_26
REMARK    5  A    between atoms: C_26  and  N_27
REMARK                            x       y       z     vdW  Elec       q    Type
REMARK                         _______ _______ _______ _____ _____    ______ ____
ROOT
ATOM      1  O   UNL     1      42.330   7.488  20.633  0.00  0.00    +0.000 OA
ATOM      2  C   UNL     1      41.587   6.919  19.622  0.00  0.00    +0.000 A 
ATOM      3  C   UNL     1      40.417   6.261  19.815  0.00  0.00    +0.000 A 
ATOM      4  C   UNL     1      39.725   5.720  18.790  0.00  0.00    +0.000 A 
ATOM      5  C   UNL     1      40.135   5.781  17.446  0.00  0.00    +0.000 A 
ATOM      6  C   UNL     1      39.565   5.295  16.306  0.00  0.00    +0.000 A 
ATOM      7  C   UNL     1      40.174   5.498  15.154  0.00  0.00    +0.000 A 
ATOM      8  S   UNL     1      41.587   6.380  15.573  0.00  0.00    +0.000 S 
ATOM      9  C   UNL     1      41.304   6.440  17.271  0.00  0.00    +0.000 A 
ATOM     10  C   UNL     1      42.037   7.008  18.324  0.00  0.00    +0.000 A 
ATOM     11  C   UNL     1      39.791   5.086  13.760  0.00  0.00    +0.000 C 
ATOM     12  C   UNL     1      39.636   3.612  13.849  0.00  0.00    +0.000 A 
ATOM     13  C   UNL     1      40.135   3.051  12.698  0.00  0.00    +0.000 A 
ATOM     14  C   UNL     1      40.134   1.678  12.485  0.00  0.00    +0.000 A 
ATOM     15  C   UNL     1      39.608   0.877  13.476  0.00  0.00    +0.000 A 
ATOM     16  C   UNL     1      39.109   1.443  14.628  0.00  0.00    +0.000 A 
ATOM     17  C   UNL     1      39.124   2.820  14.813  0.00  0.00    +0.000 A 
ATOM     18  O   UNL     1      38.592   3.134  15.992  0.00  0.00    +0.000 OA
ATOM     19  C   UNL     1      38.153   4.507  16.552  0.00  0.00    +0.000 C 
ENDROOT
BRANCH  19  20
ATOM     20  C   UNL     1      37.323   5.011  15.322  0.00  0.00    +0.000 A 
ATOM     21  C   UNL     1      37.388   6.334  15.058  0.00  0.00    +0.000 A 
ATOM     22  C   UNL     1      36.688   6.913  13.982  0.00  0.00    +0.000 A 
ATOM     23  C   UNL     1      35.936   6.067  13.212  0.00  0.00    +0.000 A 
ATOM     24  C   UNL     1      35.874   4.721  13.487  0.00  0.00    +0.000 A 
ATOM     25  C   UNL     1      36.589   4.173  14.577  0.00  0.00    +0.000 A 
BRANCH  23  26
ATOM     26  O   UNL     1      35.236   6.624  12.142  0.00  0.00    +0.000 OA
BRANCH  26  27
ATOM     27  C   UNL     1      35.603   6.221  10.837  0.00  0.00    +0.000 C 
BRANCH  27  28
ATOM     28  C   UNL     1      35.169   7.318   9.886  0.00  0.00    +0.000 C 
BRANCH  28  29
ATOM     29  N   UNL     1      34.633   6.685   8.703  0.00  0.00    +0.000 NA
ATOM     30  C   UNL     1      35.652   5.935   8.013  0.00  0.00    +0.000 C 
ATOM     31  C   UNL     1      34.972   5.073   6.969  0.00  0.00    +0.000 C 
ATOM     32  C   UNL     1      34.312   6.011   5.958  0.00  0.00    +0.000 C 
ATOM     33  C   UNL     1      33.383   6.983   6.677  0.00  0.00    +0.000 C 
ATOM     34  C   UNL     1      34.143   7.701   7.773  0.00  0.00    +0.000 C 
ENDBRANCH  28  29
ENDBRANCH  27  28
ENDBRANCH  26  27
ENDBRANCH  23  26
ENDBRANCH  19  20
TORSDOF 5
ENDMDL
MODEL 7
REMARK VINA RESULT:      -7.4      4.042      7.742
REMARK  Name = 
REMARK  5 active torsions:
REMARK  status: ('A' for Active; 'I' for Inactive)
REMARK    1  A    between atoms: C_19  and  C_20
REMARK    2  A    between atoms: C_23  and  O_24
REMARK    3  A    between atoms: O_24  and  C_25
REMARK    4  A    between atoms: C_25  and  C_26
REMARK    5  A    between atoms: C_26  and  N_27
REMARK                            x       y       z     vdW  Elec       q    Type
REMARK                         _______ _______ _______ _____ _____    ______ ____
ROOT
ATOM      1  O   UNL     1      47.795  -0.195  15.946  0.00  0.00    +0.000 OA
ATOM      2  C   UNL     1      46.552  -0.473  15.422  0.00  0.00    +0.000 A 
ATOM      3  C   UNL     1      45.817  -1.566  15.748  0.00  0.00    +0.000 A 
ATOM      4  C   UNL     1      44.602  -1.795  15.206  0.00  0.00    +0.000 A 
ATOM      5  C   UNL     1      43.987  -0.946  14.269  0.00  0.00    +0.000 A 
ATOM      6  C   UNL     1      42.783  -1.028  13.631  0.00  0.00    +0.000 A 
ATOM      7  C   UNL     1      42.447  -0.076  12.783  0.00  0.00    +0.000 A 
ATOM      8  S   UNL     1      43.782   1.005  12.810  0.00  0.00    +0.000 S 
ATOM      9  C   UNL     1      44.733   0.137  13.955  0.00  0.00    +0.000 A 
ATOM     10  C   UNL     1      45.998   0.393  14.507  0.00  0.00    +0.000 A 
ATOM     11  C   UNL     1      41.209   0.097  11.948  0.00  0.00    +0.000 C 
ATOM     12  C   UNL     1      41.129  -1.157  11.157  0.00  0.00    +0.000 A 
ATOM     13  C   UNL     1      40.700  -0.845   9.889  0.00  0.00    +0.000 A 
ATOM     14  C   UNL     1      40.528  -1.814   8.908  0.00  0.00    +0.000 A 
ATOM     15  C   UNL     1      40.805  -3.121   9.245  0.00  0.00    +0.000 A 
ATOM     16  C   UNL     1      41.236  -3.430  10.516  0.00  0.00    +0.000 A 
ATOM     17  C   UNL     1      41.398  -2.438  11.476  0.00  0.00    +0.000 A 
ATOM     18  O   UNL     1      41.819  -2.970  12.622  0.00  0.00    +0.000 OA
ATOM     19  C   UNL     1      41.904  -2.348  14.036  0.00  0.00    +0.000 C 
ENDROOT
BRANCH  19  20
ATOM     20  C   UNL     1      40.468  -1.725  14.109  0.00  0.00    +0.000 A 
ATOM     21  C   UNL     1      39.471  -2.454  13.561  0.00  0.00    +0.000 A 
ATOM     22  C   UNL     1      38.136  -2.007  13.560  0.00  0.00    +0.000 A 
ATOM     23  C   UNL     1      37.895  -0.793  14.145  0.00  0.00    +0.000 A 
ATOM     24  C   UNL     1      38.914  -0.056  14.701  0.00  0.00    +0.000 A 
ATOM     25  C   UNL     1      40.244  -0.535  14.683  0.00  0.00    +0.000 A 
BRANCH  23  26
ATOM     26  O   UNL     1      36.577  -0.335  14.153  0.00  0.00    +0.000 OA
BRANCH  26  27
ATOM     27  C   UNL     1      35.991  -0.047  15.407  0.00  0.00    +0.000 C 
BRANCH  27  28
ATOM     28  C   UNL     1      35.715  -1.371  16.091  0.00  0.00    +0.000 C 
BRANCH  28  29
ATOM     29  N   UNL     1      36.783  -1.608  17.034  0.00  0.00    +0.000 NA
ATOM     30  C   UNL     1      37.250  -2.968  16.954  0.00  0.00    +0.000 C 
ATOM     31  C   UNL     1      38.541  -3.067  17.742  0.00  0.00    +0.000 C 
ATOM     32  C   UNL     1      38.209  -2.769  19.204  0.00  0.00    +0.000 C 
ATOM     33  C   UNL     1      37.503  -1.422  19.315  0.00  0.00    +0.000 C 
ATOM     34  C   UNL     1      36.297  -1.399  18.398  0.00  0.00    +0.000 C 
ENDBRANCH  28  29
ENDBRANCH  27  28
ENDBRANCH  26  27
ENDBRANCH  23  26
ENDBRANCH  19  20
TORSDOF 5
ENDMDL
MODEL 8
REMARK VINA RESULT:      -7.3     23.442     26.334
REMARK  Name = 
REMARK  5 active torsions:
REMARK  status: ('A' for Active; 'I' for Inactive)
REMARK    1  A    between atoms: C_19  and  C_20
REMARK    2  A    between atoms: C_23  and  O_24
REMARK    3  A    between atoms: O_24  and  C_25
REMARK    4  A    between atoms: C_25  and  C_26
REMARK    5  A    between atoms: C_26  and  N_27
REMARK                            x       y       z     vdW  Elec       q    Type
REMARK                         _______ _______ _______ _____ _____    ______ ____
ROOT
ATOM      1  O   UNL     1      18.088   2.380   2.392  0.00  0.00    +0.000 OA
ATOM      2  C   UNL     1      17.286   1.436   2.994  0.00  0.00    +0.000 A 
ATOM      3  C   UNL     1      15.931   1.500   3.029  0.00  0.00    +0.000 A 
ATOM      4  C   UNL     1      15.188   0.548   3.632  0.00  0.00    +0.000 A 
ATOM      5  C   UNL     1      15.727  -0.582   4.273  0.00  0.00    +0.000 A 
ATOM      6  C   UNL     1      15.129  -1.623   4.921  0.00  0.00    +0.000 A 
ATOM      7  C   UNL     1      15.887  -2.568   5.440  0.00  0.00    +0.000 A 
ATOM      8  S   UNL     1      17.490  -2.079   5.064  0.00  0.00    +0.000 S 
ATOM      9  C   UNL     1      17.078  -0.630   4.229  0.00  0.00    +0.000 A 
ATOM     10  C   UNL     1      17.868   0.349   3.607  0.00  0.00    +0.000 A 
ATOM     11  C   UNL     1      15.516  -3.812   6.199  0.00  0.00    +0.000 C 
ATOM     12  C   UNL     1      14.706  -3.312   7.338  0.00  0.00    +0.000 A 
ATOM     13  C   UNL     1      15.023  -4.047   8.455  0.00  0.00    +0.000 A 
ATOM     14  C   UNL     1      14.429  -3.812   9.689  0.00  0.00    +0.000 A 
ATOM     15  C   UNL     1      13.494  -2.802   9.766  0.00  0.00    +0.000 A 
ATOM     16  C   UNL     1      13.178  -2.067   8.645  0.00  0.00    +0.000 A 
ATOM     17  C   UNL     1      13.790  -2.326   7.424  0.00  0.00    +0.000 A 
ATOM     18  O   UNL     1      13.329  -1.496   6.491  0.00  0.00    +0.000 OA
ATOM     19  C   UNL     1      13.495  -1.536   4.954  0.00  0.00    +0.000 C 
ENDROOT
BRANCH  19  20
ATOM     20  C   UNL     1      13.122  -3.039   4.713  0.00  0.00    +0.000 A 
ATOM     21  C   UNL     1      13.781  -3.667   3.716  0.00  0.00    +0.000 A 
ATOM     22  C   UNL     1      13.537  -5.017   3.397  0.00  0.00    +0.000 A 
ATOM     23  C   UNL     1      12.596  -5.665   4.150  0.00  0.00    +0.000 A 
ATOM     24  C   UNL     1      11.929  -5.019   5.164  0.00  0.00    +0.000 A 
ATOM     25  C   UNL     1      12.198  -3.663   5.457  0.00  0.00    +0.000 A 
BRANCH  23  26
ATOM     26  O   UNL     1      12.343  -7.003   3.848  0.00  0.00    +0.000 OA
BRANCH  26  27
ATOM     27  C   UNL     1      13.222  -7.974   4.381  0.00  0.00    +0.000 C 
BRANCH  27  28
ATOM     28  C   UNL     1      12.643  -8.428   5.706  0.00  0.00    +0.000 C 
BRANCH  28  29
ATOM     29  N   UNL     1      13.723  -8.470   6.665  0.00  0.00    +0.000 NA
ATOM     30  C   UNL     1      13.643  -7.362   7.582  0.00  0.00    +0.000 C 
ATOM     31  C   UNL     1      14.610  -7.624   8.718  0.00  0.00    +0.000 C 
ATOM     32  C   UNL     1      16.019  -7.644   8.126  0.00  0.00    +0.000 C 
ATOM     33  C   UNL     1      16.093  -8.656   6.988  0.00  0.00    +0.000 C 
ATOM     34  C   UNL     1      15.007  -8.365   5.973  0.00  0.00    +0.000 C 
ENDBRANCH  28  29
ENDBRANCH  27  28
ENDBRANCH  26  27
ENDBRANCH  23  26
ENDBRANCH  19  20
TORSDOF 5
ENDMDL
MODEL 9
REMARK VINA RESULT:      -7.3      6.156      9.601
REMARK  Name = 
REMARK  5 active torsions:
REMARK  status: ('A' for Active; 'I' for Inactive)
REMARK    1  A    between atoms: C_19  and  C_20
REMARK    2  A    between atoms: C_23  and  O_24
REMARK    3  A    between atoms: O_24  and  C_25
REMARK    4  A    between atoms: C_25  and  C_26
REMARK    5  A    between atoms: C_26  and  N_27
REMARK                            x       y       z     vdW  Elec       q    Type
REMARK                         _______ _______ _______ _____ _____    ______ ____
ROOT
ATOM      1  O   UNL     1      42.342   7.502  20.804  0.00  0.00    +0.000 OA
ATOM      2  C   UNL     1      41.609   6.965  19.768  0.00  0.00    +0.000 A 
ATOM      3  C   UNL     1      40.411   6.346  19.926  0.00  0.00    +0.000 A 
ATOM      4  C   UNL     1      39.730   5.835  18.879  0.00  0.00    +0.000 A 
ATOM      5  C   UNL     1      40.180   5.888  17.547  0.00  0.00    +0.000 A 
ATOM      6  C   UNL     1      39.625   5.429  16.388  0.00  0.00    +0.000 A 
ATOM      7  C   UNL     1      40.273   5.616  15.255  0.00  0.00    +0.000 A 
ATOM      8  S   UNL     1      41.703   6.446  15.719  0.00  0.00    +0.000 S 
ATOM      9  C   UNL     1      41.375   6.508  17.409  0.00  0.00    +0.000 A 
ATOM     10  C   UNL     1      42.097   7.045  18.484  0.00  0.00    +0.000 A 
ATOM     11  C   UNL     1      39.915   5.224  13.848  0.00  0.00    +0.000 C 
ATOM     12  C   UNL     1      39.707   3.756  13.925  0.00  0.00    +0.000 A 
ATOM     13  C   UNL     1      40.219   3.183  12.785  0.00  0.00    +0.000 A 
ATOM     14  C   UNL     1      40.176   1.812  12.563  0.00  0.00    +0.000 A 
ATOM     15  C   UNL     1      39.596   1.025  13.534  0.00  0.00    +0.000 A 
ATOM     16  C   UNL     1      39.084   1.602  14.675  0.00  0.00    +0.000 A 
ATOM     17  C   UNL     1      39.141   2.978  14.869  0.00  0.00    +0.000 A 
ATOM     18  O   UNL     1      38.588   3.304  16.035  0.00  0.00    +0.000 OA
ATOM     19  C   UNL     1      38.180   4.688  16.591  0.00  0.00    +0.000 C 
ENDROOT
BRANCH  19  20
ATOM     20  C   UNL     1      37.403   5.227  15.341  0.00  0.00    +0.000 A 
ATOM     21  C   UNL     1      36.629   4.334  14.687  0.00  0.00    +0.000 A 
ATOM     22  C   UNL     1      35.881   4.691  13.548  0.00  0.00    +0.000 A 
ATOM     23  C   UNL     1      35.975   5.992  13.135  0.00  0.00    +0.000 A 
ATOM     24  C   UNL     1      36.766   6.896  13.805  0.00  0.00    +0.000 A 
ATOM     25  C   UNL     1      37.504   6.503  14.945  0.00  0.00    +0.000 A 
BRANCH  23  26
ATOM     26  O   UNL     1      35.240   6.363  12.009  0.00  0.00    +0.000 OA
BRANCH  26  27
ATOM     27  C   UNL     1      34.089   7.159  12.210  0.00  0.00    +0.000 C 
BRANCH  27  28
ATOM     28  C   UNL     1      34.153   8.304  11.220  0.00  0.00    +0.000 C 
BRANCH  28  29
ATOM     29  N   UNL     1      34.369   9.520  11.969  0.00  0.00    +0.000 NA
ATOM     30  C   UNL     1      35.741   9.950  11.874  0.00  0.00    +0.000 C 
ATOM     31  C   UNL     1      35.830  11.358  12.424  0.00  0.00    +0.000 C 
ATOM     32  C   UNL     1      35.459  11.296  13.906  0.00  0.00    +0.000 C 
ATOM     33  C   UNL     1      34.095  10.636  14.076  0.00  0.00    +0.000 C 
ATOM     34  C   UNL     1      34.089   9.287  13.386  0.00  0.00    +0.000 C 
ENDBRANCH  28  29
ENDBRANCH  27  28
ENDBRANCH  26  27
ENDBRANCH  23  26
ENDBRANCH  19  20
TORSDOF 5
ENDMDL
MODEL 10
REMARK VINA RESULT:      -7.3      5.541     12.518
REMARK  Name = 
REMARK  5 active torsions:
REMARK  status: ('A' for Active; 'I' for Inactive)
REMARK    1  A    between atoms: C_19  and  C_20
REMARK    2  A    between atoms: C_23  and  O_24
REMARK    3  A    between atoms: O_24  and  C_25
REMARK    4  A    between atoms: C_25  and  C_26
REMARK    5  A    between atoms: C_26  and  N_27
REMARK                            x       y       z     vdW  Elec       q    Type
REMARK                         _______ _______ _______ _____ _____    ______ ____
ROOT
ATOM      1  O   UNL     1      37.860  14.680  18.063  0.00  0.00    +0.000 OA
ATOM      2  C   UNL     1      38.242  13.364  18.203  0.00  0.00    +0.000 A 
ATOM      3  C   UNL     1      37.731  12.519  19.134  0.00  0.00    +0.000 A 
ATOM      4  C   UNL     1      38.138  11.235  19.231  0.00  0.00    +0.000 A 
ATOM      5  C   UNL     1      39.111  10.654  18.398  0.00  0.00    +0.000 A 
ATOM      6  C   UNL     1      39.631   9.393  18.361  0.00  0.00    +0.000 A 
ATOM      7  C   UNL     1      40.550   9.110  17.460  0.00  0.00    +0.000 A 
ATOM      8  S   UNL     1      40.760  10.579  16.595  0.00  0.00    +0.000 S 
ATOM      9  C   UNL     1      39.609  11.510  17.476  0.00  0.00    +0.000 A 
ATOM     10  C   UNL     1      39.200  12.846  17.360  0.00  0.00    +0.000 A 
ATOM     11  C   UNL     1      41.290   7.830  17.188  0.00  0.00    +0.000 C 
ATOM     12  C   UNL     1      41.924   7.496  18.488  0.00  0.00    +0.000 A 
ATOM     13  C   UNL     1      43.178   6.988  18.245  0.00  0.00    +0.000 A 
ATOM     14  C   UNL     1      44.024   6.585  19.271  0.00  0.00    +0.000 A 
ATOM     15  C   UNL     1      43.565   6.708  20.564  0.00  0.00    +0.000 A 
ATOM     16  C   UNL     1      42.307   7.217  20.805  0.00  0.00    +0.000 A 
ATOM     17  C   UNL     1      41.484   7.613  19.757  0.00  0.00    +0.000 A 
ATOM     18  O   UNL     1      40.325   8.069  20.228  0.00  0.00    +0.000 OA
ATOM     19  C   UNL     1      39.004   8.383  19.486  0.00  0.00    +0.000 C 
ENDROOT
BRANCH  19  20
ATOM     20  C   UNL     1      38.881   7.062  18.651  0.00  0.00    +0.000 A 
ATOM     21  C   UNL     1      38.347   7.183  17.417  0.00  0.00    +0.000 A 
ATOM     22  C   UNL     1      38.181   6.073  16.566  0.00  0.00    +0.000 A 
ATOM     23  C   UNL     1      38.587   4.860  17.053  0.00  0.00    +0.000 A 
ATOM     24  C   UNL     1      39.130   4.745  18.311  0.00  0.00    +0.000 A 
ATOM     25  C   UNL     1      39.282   5.880  19.139  0.00  0.00    +0.000 A 
BRANCH  23  26
ATOM     26  O   UNL     1      38.430   3.750  16.223  0.00  0.00    +0.000 OA
BRANCH  26  27
ATOM     27  C   UNL     1      37.132   3.478  15.731  0.00  0.00    +0.000 C 
BRANCH  27  28
ATOM     28  C   UNL     1      36.356   2.813  16.850  0.00  0.00    +0.000 C 
BRANCH  28  29
ATOM     29  N   UNL     1      36.521   1.385  16.710  0.00  0.00    +0.000 NA
ATOM     30  C   UNL     1      35.912   0.912  15.493  0.00  0.00    +0.000 C 
ATOM     31  C   UNL     1      36.369  -0.515  15.265  0.00  0.00    +0.000 C 
ATOM     32  C   UNL     1      35.831  -1.359  16.420  0.00  0.00    +0.000 C 
ATOM     33  C   UNL     1      36.269  -0.761  17.753  0.00  0.00    +0.000 C 
ATOM     34  C   UNL     1      35.861   0.696  17.818  0.00  0.00    +0.000 C 
ENDBRANCH  28  29
ENDBRANCH  27  28
ENDBRANCH  26  27
ENDBRANCH  23  26
ENDBRANCH  19  20
TORSDOF 5
ENDMDL
