MODEL 1
REMARK VINA RESULT:      -7.0      0.000      0.000
REMARK  Name = 
REMARK  8 active torsions:
REMARK  status: ('A' for Active; 'I' for Inactive)
REMARK    1  A    between atoms: C_3  and  C_4
REMARK    2  A    between atoms: N_11  and  C_12
REMARK    3  A    between atoms: C_12  and  C_13
REMARK    4  A    between atoms: C_13  and  C_14
REMARK    5  A    between atoms: C_14  and  C_15
REMARK    6  A    between atoms: C_15  and  C_16
REMARK    7  A    between atoms: C_16  and  C_17
REMARK    8  A    between atoms: C_17  and  N_18
REMARK                            x       y       z     vdW  Elec       q    Type
REMARK                         _______ _______ _______ _____ _____    ______ ____
ROOT
ATOM      1  C   UNL     1      39.153  -3.265  16.672  0.00  0.00    +0.000 C 
ATOM      2  C   UNL     1      38.643  -2.004  16.087  0.00  0.00    +0.000 A 
ATOM      3  C   UNL     1      39.253  -1.363  15.012  0.00  0.00    +0.000 A 
ATOM      4  N   UNL     1      38.514  -0.275  14.776  0.00  0.00    +0.000 N 
ATOM      5  C   UNL     1      37.472  -0.184  15.628  0.00  0.00    +0.000 A 
ATOM      6  C   UNL     1      36.442   0.752  15.773  0.00  0.00    +0.000 A 
ATOM      7  C   UNL     1      35.493   0.596  16.748  0.00  0.00    +0.000 A 
ATOM      8  O   UNL     1      34.447   1.515  16.922  0.00  0.00    +0.000 OA
ATOM      9  C   UNL     1      35.568  -0.497  17.584  0.00  0.00    +0.000 A 
ATOM     10  C   UNL     1      36.584  -1.439  17.456  0.00  0.00    +0.000 A 
ATOM     11  C   UNL     1      37.541  -1.272  16.464  0.00  0.00    +0.000 A 
ENDROOT
BRANCH   3  12
ATOM     12  C   UNL     1      40.462  -1.852  14.311  0.00  0.00    +0.000 A 
ATOM     13  C   UNL     1      40.318  -2.759  13.265  0.00  0.00    +0.000 A 
ATOM     14  C   UNL     1      41.378  -3.247  12.551  0.00  0.00    +0.000 A 
ATOM     15  C   UNL     1      42.644  -2.822  12.883  0.00  0.00    +0.000 A 
ATOM     16  O   UNL     1      43.761  -3.300  12.172  0.00  0.00    +0.000 OA
ATOM     17  C   UNL     1      42.800  -1.921  13.919  0.00  0.00    +0.000 A 
ATOM     18  C   UNL     1      41.717  -1.446  14.621  0.00  0.00    +0.000 A 
ENDBRANCH   3  12
BRANCH   4  19
ATOM     19  C   UNL     1      38.807   0.724  13.753  0.00  0.00    +0.000 C 
BRANCH  19  20
ATOM     20  C   UNL     1      39.855   1.702  14.120  0.00  0.00    +0.000 C 
BRANCH  20  21
ATOM     21  C   UNL     1      39.493   3.138  14.140  0.00  0.00    +0.000 C 
BRANCH  21  22
ATOM     22  C   UNL     1      38.783   3.430  15.443  0.00  0.00    +0.000 C 
BRANCH  22  23
ATOM     23  C   UNL     1      38.077   4.769  15.402  0.00  0.00    +0.000 C 
BRANCH  23  24
ATOM     24  C   UNL     1      38.778   5.817  16.205  0.00  0.00    +0.000 C 
BRANCH  24  25
ATOM     25  N   UNL     1      39.626   5.317  17.244  0.00  0.00    +0.000 NA
ATOM     26  C   UNL     1      40.786   6.158  17.470  0.00  0.00    +0.000 C 
ATOM     27  C   UNL     1      40.277   7.197  18.456  0.00  0.00    +0.000 C 
ATOM     28  C   UNL     1      39.439   6.327  19.395  0.00  0.00    +0.000 C 
ATOM     29  C   UNL     1      38.953   5.183  18.521  0.00  0.00    +0.000 C 
ENDBRANCH  24  25
ENDBRANCH  23  24
ENDBRANCH  22  23
ENDBRANCH  21  22
ENDBRANCH  20  21
ENDBRANCH  19  20
ENDBRANCH   4  19
TORSDOF 8
ENDMDL
MODEL 2
REMARK VINA RESULT:      -6.9      2.529      8.070
REMARK  Name = 
REMARK  8 active torsions:
REMARK  status: ('A' for Active; 'I' for Inactive)
REMARK    1  A    between atoms: C_3  and  C_4
REMARK    2  A    between atoms: N_11  and  C_12
REMARK    3  A    between atoms: C_12  and  C_13
REMARK    4  A    between atoms: C_13  and  C_14
REMARK    5  A    between atoms: C_14  and  C_15
REMARK    6  A    between atoms: C_15  and  C_16
REMARK    7  A    between atoms: C_16  and  C_17
REMARK    8  A    between atoms: C_17  and  N_18
REMARK                            x       y       z     vdW  Elec       q    Type
REMARK                         _______ _______ _______ _____ _____    ______ ____
ROOT
ATOM      1  C   UNL     1      40.789   5.826  15.062  0.00  0.00    +0.000 C 
ATOM      2  C   UNL     1      39.745   4.784  15.200  0.00  0.00    +0.000 A 
ATOM      3  C   UNL     1      38.867   4.726  16.279  0.00  0.00    +0.000 A 
ATOM      4  N   UNL     1      38.087   3.665  16.051  0.00  0.00    +0.000 N 
ATOM      5  C   UNL     1      38.411   3.047  14.897  0.00  0.00    +0.000 A 
ATOM      6  C   UNL     1      37.893   1.921  14.245  0.00  0.00    +0.000 A 
ATOM      7  C   UNL     1      38.425   1.502  13.055  0.00  0.00    +0.000 A 
ATOM      8  O   UNL     1      37.932   0.378  12.374  0.00  0.00    +0.000 OA
ATOM      9  C   UNL     1      39.476   2.205  12.509  0.00  0.00    +0.000 A 
ATOM     10  C   UNL     1      40.005   3.326  13.141  0.00  0.00    +0.000 A 
ATOM     11  C   UNL     1      39.459   3.744  14.347  0.00  0.00    +0.000 A 
ENDROOT
BRANCH   3  12
ATOM     12  C   UNL     1      38.846   5.687  17.405  0.00  0.00    +0.000 A 
ATOM     13  C   UNL     1      38.083   6.845  17.293  0.00  0.00    +0.000 A 
ATOM     14  C   UNL     1      37.992   7.777  18.291  0.00  0.00    +0.000 A 
ATOM     15  C   UNL     1      38.686   7.558  19.459  0.00  0.00    +0.000 A 
ATOM     16  O   UNL     1      38.617   8.491  20.510  0.00  0.00    +0.000 OA
ATOM     17  C   UNL     1      39.446   6.410  19.583  0.00  0.00    +0.000 A 
ATOM     18  C   UNL     1      39.521   5.490  18.564  0.00  0.00    +0.000 A 
ENDBRANCH   3  12
BRANCH   4  19
ATOM     19  C   UNL     1      37.039   3.195  16.951  0.00  0.00    +0.000 C 
BRANCH  19  20
ATOM     20  C   UNL     1      35.723   2.971  16.312  0.00  0.00    +0.000 C 
BRANCH  20  21
ATOM     21  C   UNL     1      34.976   1.742  16.664  0.00  0.00    +0.000 C 
BRANCH  21  22
ATOM     22  C   UNL     1      35.843   0.905  17.578  0.00  0.00    +0.000 C 
BRANCH  22  23
ATOM     23  C   UNL     1      35.845  -0.551  17.161  0.00  0.00    +0.000 C 
BRANCH  23  24
ATOM     24  C   UNL     1      36.914  -0.863  16.163  0.00  0.00    +0.000 C 
BRANCH  24  25
ATOM     25  N   UNL     1      38.225  -1.027  16.713  0.00  0.00    +0.000 NA
ATOM     26  C   UNL     1      38.269  -2.026  17.765  0.00  0.00    +0.000 C 
ATOM     27  C   UNL     1      38.481  -3.325  17.004  0.00  0.00    +0.000 C 
ATOM     28  C   UNL     1      39.509  -2.888  15.958  0.00  0.00    +0.000 C 
ATOM     29  C   UNL     1      39.217  -1.415  15.730  0.00  0.00    +0.000 C 
ENDBRANCH  24  25
ENDBRANCH  23  24
ENDBRANCH  22  23
ENDBRANCH  21  22
ENDBRANCH  20  21
ENDBRANCH  19  20
ENDBRANCH   4  19
TORSDOF 8
ENDMDL
MODEL 3
REMARK VINA RESULT:      -6.8      3.168      6.258
REMARK  Name = 
REMARK  8 active torsions:
REMARK  status: ('A' for Active; 'I' for Inactive)
REMARK    1  A    between atoms: C_3  and  C_4
REMARK    2  A    between atoms: N_11  and  C_12
REMARK    3  A    between atoms: C_12  and  C_13
REMARK    4  A    between atoms: C_13  and  C_14
REMARK    5  A    between atoms: C_14  and  C_15
REMARK    6  A    between atoms: C_15  and  C_16
REMARK    7  A    between atoms: C_16  and  C_17
REMARK    8  A    between atoms: C_17  and  N_18
REMARK                            x       y       z     vdW  Elec       q    Type
REMARK                         _______ _______ _______ _____ _____    ______ ____
ROOT
ATOM      1  C   UNL     1      38.788   2.238  11.120  0.00  0.00    +0.000 C 
ATOM      2  C   UNL     1      37.990   2.565  12.324  0.00  0.00    +0.000 A 
ATOM      3  C   UNL     1      38.004   1.786  13.479  0.00  0.00    +0.000 A 
ATOM      4  N   UNL     1      37.172   2.392  14.331  0.00  0.00    +0.000 N 
ATOM      5  C   UNL     1      36.632   3.506  13.794  0.00  0.00    +0.000 A 
ATOM      6  C   UNL     1      35.728   4.455  14.286  0.00  0.00    +0.000 A 
ATOM      7  C   UNL     1      35.340   5.513  13.508  0.00  0.00    +0.000 A 
ATOM      8  O   UNL     1      34.435   6.483  13.967  0.00  0.00    +0.000 OA
ATOM      9  C   UNL     1      35.854   5.629  12.235  0.00  0.00    +0.000 A 
ATOM     10  C   UNL     1      36.754   4.697  11.728  0.00  0.00    +0.000 A 
ATOM     11  C   UNL     1      37.141   3.628  12.524  0.00  0.00    +0.000 A 
ENDROOT
BRANCH   3  12
ATOM     12  C   UNL     1      38.813   0.560  13.663  0.00  0.00    +0.000 A 
ATOM     13  C   UNL     1      38.380  -0.629  13.085  0.00  0.00    +0.000 A 
ATOM     14  C   UNL     1      39.074  -1.804  13.189  0.00  0.00    +0.000 A 
ATOM     15  C   UNL     1      40.253  -1.809  13.897  0.00  0.00    +0.000 A 
ATOM     16  O   UNL     1      40.998  -2.997  14.026  0.00  0.00    +0.000 OA
ATOM     17  C   UNL     1      40.695  -0.634  14.475  0.00  0.00    +0.000 A 
ATOM     18  C   UNL     1      39.977   0.533  14.356  0.00  0.00    +0.000 A 
ENDBRANCH   3  12
BRANCH   4  19
ATOM     19  C   UNL     1      36.843   1.900  15.665  0.00  0.00    +0.000 C 
BRANCH  19  20
ATOM     20  C   UNL     1      35.691   0.973  15.721  0.00  0.00    +0.000 C 
BRANCH  20  21
ATOM     21  C   UNL     1      34.933   0.878  16.990  0.00  0.00    +0.000 C 
BRANCH  21  22
ATOM     22  C   UNL     1      34.461  -0.549  17.156  0.00  0.00    +0.000 C 
BRANCH  22  23
ATOM     23  C   UNL     1      35.455  -1.374  17.946  0.00  0.00    +0.000 C 
BRANCH  23  24
ATOM     24  C   UNL     1      35.835  -2.642  17.251  0.00  0.00    +0.000 C 
BRANCH  24  25
ATOM     25  N   UNL     1      36.911  -2.520  16.316  0.00  0.00    +0.000 NA
ATOM     26  C   UNL     1      38.023  -1.750  16.842  0.00  0.00    +0.000 C 
ATOM     27  C   UNL     1      38.850  -2.791  17.581  0.00  0.00    +0.000 C 
ATOM     28  C   UNL     1      38.784  -3.967  16.603  0.00  0.00    +0.000 C 
ATOM     29  C   UNL     1      37.453  -3.797  15.893  0.00  0.00    +0.000 C 
ENDBRANCH  24  25
ENDBRANCH  23  24
ENDBRANCH  22  23
ENDBRANCH  21  22
ENDBRANCH  20  21
ENDBRANCH  19  20
ENDBRANCH   4  19
TORSDOF 8
ENDMDL
MODEL 4
REMARK VINA RESULT:      -6.5      2.050      5.656
REMARK  Name = 
REMARK  8 active torsions:
REMARK  status: ('A' for Active; 'I' for Inactive)
REMARK    1  A    between atoms: C_3  and  C_4
REMARK    2  A    between atoms: N_11  and  C_12
REMARK    3  A    between atoms: C_12  and  C_13
REMARK    4  A    between atoms: C_13  and  C_14
REMARK    5  A    between atoms: C_14  and  C_15
REMARK    6  A    between atoms: C_15  and  C_16
REMARK    7  A    between atoms: C_16  and  C_17
REMARK    8  A    between atoms: C_17  and  N_18
REMARK                            x       y       z     vdW  Elec       q    Type
REMARK                         _______ _______ _______ _____ _____    ______ ____
ROOT
ATOM      1  C   UNL     1      38.596  -3.474  16.907  0.00  0.00    +0.000 C 
ATOM      2  C   UNL     1      38.635  -2.456  15.832  0.00  0.00    +0.000 A 
ATOM      3  C   UNL     1      37.514  -1.736  15.425  0.00  0.00    +0.000 A 
ATOM      4  N   UNL     1      37.940  -0.929  14.449  0.00  0.00    +0.000 N 
ATOM      5  C   UNL     1      39.258  -1.087  14.211  0.00  0.00    +0.000 A 
ATOM      6  C   UNL     1      40.139  -0.480  13.308  0.00  0.00    +0.000 A 
ATOM      7  C   UNL     1      41.460  -0.840  13.278  0.00  0.00    +0.000 A 
ATOM      8  O   UNL     1      42.372  -0.253  12.386  0.00  0.00    +0.000 OA
ATOM      9  C   UNL     1      41.909  -1.807  14.150  0.00  0.00    +0.000 A 
ATOM     10  C   UNL     1      41.049  -2.422  15.055  0.00  0.00    +0.000 A 
ATOM     11  C   UNL     1      39.711  -2.051  15.078  0.00  0.00    +0.000 A 
ENDROOT
BRANCH   3  12
ATOM     12  C   UNL     1      36.161  -1.875  16.011  0.00  0.00    +0.000 A 
ATOM     13  C   UNL     1      35.772  -1.012  17.030  0.00  0.00    +0.000 A 
ATOM     14  C   UNL     1      34.536  -1.058  17.614  0.00  0.00    +0.000 A 
ATOM     15  C   UNL     1      33.636  -2.000  17.173  0.00  0.00    +0.000 A 
ATOM     16  O   UNL     1      32.354  -2.079  17.747  0.00  0.00    +0.000 OA
ATOM     17  C   UNL     1      34.010  -2.863  16.160  0.00  0.00    +0.000 A 
ATOM     18  C   UNL     1      35.260  -2.796  15.590  0.00  0.00    +0.000 A 
ENDBRANCH   3  12
BRANCH   4  19
ATOM     19  C   UNL     1      37.088  -0.015  13.695  0.00  0.00    +0.000 C 
BRANCH  19  20
ATOM     20  C   UNL     1      36.810   1.275  14.366  0.00  0.00    +0.000 C 
BRANCH  20  21
ATOM     21  C   UNL     1      35.397   1.646  14.605  0.00  0.00    +0.000 C 
BRANCH  21  22
ATOM     22  C   UNL     1      35.348   3.110  14.983  0.00  0.00    +0.000 C 
BRANCH  22  23
ATOM     23  C   UNL     1      36.011   3.976  13.933  0.00  0.00    +0.000 C 
BRANCH  23  24
ATOM     24  C   UNL     1      36.449   5.301  14.469  0.00  0.00    +0.000 C 
BRANCH  24  25
ATOM     25  N   UNL     1      37.838   5.595  14.295  0.00  0.00    +0.000 NA
ATOM     26  C   UNL     1      38.490   5.967  15.537  0.00  0.00    +0.000 C 
ATOM     27  C   UNL     1      38.900   4.629  16.131  0.00  0.00    +0.000 C 
ATOM     28  C   UNL     1      39.403   3.896  14.886  0.00  0.00    +0.000 C 
ATOM     29  C   UNL     1      38.596   4.489  13.743  0.00  0.00    +0.000 C 
ENDBRANCH  24  25
ENDBRANCH  23  24
ENDBRANCH  22  23
ENDBRANCH  21  22
ENDBRANCH  20  21
ENDBRANCH  19  20
ENDBRANCH   4  19
TORSDOF 8
ENDMDL
MODEL 5
REMARK VINA RESULT:      -6.5     30.058     33.271
REMARK  Name = 
REMARK  8 active torsions:
REMARK  status: ('A' for Active; 'I' for Inactive)
REMARK    1  A    between atoms: C_3  and  C_4
REMARK    2  A    between atoms: N_11  and  C_12
REMARK    3  A    between atoms: C_12  and  C_13
REMARK    4  A    between atoms: C_13  and  C_14
REMARK    5  A    between atoms: C_14  and  C_15
REMARK    6  A    between atoms: C_15  and  C_16
REMARK    7  A    between atoms: C_16  and  C_17
REMARK    8  A    between atoms: C_17  and  N_18
REMARK                            x       y       z     vdW  Elec       q    Type
REMARK                         _______ _______ _______ _____ _____    ______ ____
ROOT
ATOM      1  C   UNL     1       4.659   6.767   8.858  0.00  0.00    +0.000 C 
ATOM      2  C   UNL     1       6.044   6.492   9.303  0.00  0.00    +0.000 A 
ATOM      3  C   UNL     1       6.351   5.987  10.563  0.00  0.00    +0.000 A 
ATOM      4  N   UNL     1       7.683   5.877  10.592  0.00  0.00    +0.000 N 
ATOM      5  C   UNL     1       8.241   6.275   9.430  0.00  0.00    +0.000 A 
ATOM      6  C   UNL     1       9.568   6.341   8.988  0.00  0.00    +0.000 A 
ATOM      7  C   UNL     1       9.859   6.798   7.730  0.00  0.00    +0.000 A 
ATOM      8  O   UNL     1      11.176   6.879   7.253  0.00  0.00    +0.000 OA
ATOM      9  C   UNL     1       8.826   7.191   6.907  0.00  0.00    +0.000 A 
ATOM     10  C   UNL     1       7.501   7.133   7.328  0.00  0.00    +0.000 A 
ATOM     11  C   UNL     1       7.216   6.668   8.605  0.00  0.00    +0.000 A 
ENDROOT
BRANCH   3  12
ATOM     12  C   UNL     1       5.355   5.648  11.605  0.00  0.00    +0.000 A 
ATOM     13  C   UNL     1       4.935   4.328  11.737  0.00  0.00    +0.000 A 
ATOM     14  C   UNL     1       4.033   3.925  12.683  0.00  0.00    +0.000 A 
ATOM     15  C   UNL     1       3.519   4.866  13.543  0.00  0.00    +0.000 A 
ATOM     16  O   UNL     1       2.589   4.491  14.531  0.00  0.00    +0.000 OA
ATOM     17  C   UNL     1       3.929   6.181  13.423  0.00  0.00    +0.000 A 
ATOM     18  C   UNL     1       4.836   6.560  12.463  0.00  0.00    +0.000 A 
ENDBRANCH   3  12
BRANCH   4  19
ATOM     19  C   UNL     1       8.456   5.422  11.743  0.00  0.00    +0.000 C 
BRANCH  19  20
ATOM     20  C   UNL     1       8.525   3.953  11.908  0.00  0.00    +0.000 C 
BRANCH  20  21
ATOM     21  C   UNL     1       9.259   3.171  10.887  0.00  0.00    +0.000 C 
BRANCH  21  22
ATOM     22  C   UNL     1       9.133   1.704  11.232  0.00  0.00    +0.000 C 
BRANCH  22  23
ATOM     23  C   UNL     1       9.712   0.827  10.141  0.00  0.00    +0.000 C 
BRANCH  23  24
ATOM     24  C   UNL     1       8.784   0.661   8.980  0.00  0.00    +0.000 C 
BRANCH  24  25
ATOM     25  N   UNL     1       9.364   0.924   7.699  0.00  0.00    +0.000 NA
ATOM     26  C   UNL     1       8.466   1.647   6.818  0.00  0.00    +0.000 C 
ATOM     27  C   UNL     1       8.723   3.102   7.176  0.00  0.00    +0.000 C 
ATOM     28  C   UNL     1      10.246   3.106   7.320  0.00  0.00    +0.000 C 
ATOM     29  C   UNL     1      10.589   1.697   7.770  0.00  0.00    +0.000 C 
ENDBRANCH  24  25
ENDBRANCH  23  24
ENDBRANCH  22  23
ENDBRANCH  21  22
ENDBRANCH  20  21
ENDBRANCH  19  20
ENDBRANCH   4  19
TORSDOF 8
ENDMDL
MODEL 6
REMARK VINA RESULT:      -6.5      1.704      5.147
REMARK  Name = 
REMARK  8 active torsions:
REMARK  status: ('A' for Active; 'I' for Inactive)
REMARK    1  A    between atoms: C_3  and  C_4
REMARK    2  A    between atoms: N_11  and  C_12
REMARK    3  A    between atoms: C_12  and  C_13
REMARK    4  A    between atoms: C_13  and  C_14
REMARK    5  A    between atoms: C_14  and  C_15
REMARK    6  A    between atoms: C_15  and  C_16
REMARK    7  A    between atoms: C_16  and  C_17
REMARK    8  A    between atoms: C_17  and  N_18
REMARK                            x       y       z     vdW  Elec       q    Type
REMARK                         _______ _______ _______ _____ _____    ______ ____
ROOT
ATOM      1  C   UNL     1      39.084  -2.856  16.615  0.00  0.00    +0.000 C 
ATOM      2  C   UNL     1      39.061  -1.805  15.572  0.00  0.00    +0.000 A 
ATOM      3  C   UNL     1      37.914  -1.089  15.240  0.00  0.00    +0.000 A 
ATOM      4  N   UNL     1      38.285  -0.246  14.272  0.00  0.00    +0.000 N 
ATOM      5  C   UNL     1      39.593  -0.377  13.969  0.00  0.00    +0.000 A 
ATOM      6  C   UNL     1      40.425   0.270  13.047  0.00  0.00    +0.000 A 
ATOM      7  C   UNL     1      41.747  -0.070  12.947  0.00  0.00    +0.000 A 
ATOM      8  O   UNL     1      42.610   0.557  12.034  0.00  0.00    +0.000 OA
ATOM      9  C   UNL     1      42.247  -1.058  13.767  0.00  0.00    +0.000 A 
ATOM     10  C   UNL     1      41.437  -1.713  14.690  0.00  0.00    +0.000 A 
ATOM     11  C   UNL     1      40.097  -1.361  14.784  0.00  0.00    +0.000 A 
ENDROOT
BRANCH   3  12
ATOM     12  C   UNL     1      36.591  -1.265  15.880  0.00  0.00    +0.000 A 
ATOM     13  C   UNL     1      35.840  -2.397  15.582  0.00  0.00    +0.000 A 
ATOM     14  C   UNL     1      34.617  -2.648  16.142  0.00  0.00    +0.000 A 
ATOM     15  C   UNL     1      34.108  -1.740  17.041  0.00  0.00    +0.000 A 
ATOM     16  O   UNL     1      32.854  -1.963  17.640  0.00  0.00    +0.000 OA
ATOM     17  C   UNL     1      34.845  -0.612  17.347  0.00  0.00    +0.000 A 
ATOM     18  C   UNL     1      36.072  -0.383  16.769  0.00  0.00    +0.000 A 
ENDBRANCH   3  12
BRANCH   4  19
ATOM     19  C   UNL     1      37.389   0.680  13.586  0.00  0.00    +0.000 C 
BRANCH  19  20
ATOM     20  C   UNL     1      37.580   2.105  13.933  0.00  0.00    +0.000 C 
BRANCH  20  21
ATOM     21  C   UNL     1      37.848   2.449  15.348  0.00  0.00    +0.000 C 
BRANCH  21  22
ATOM     22  C   UNL     1      36.973   3.623  15.727  0.00  0.00    +0.000 C 
BRANCH  22  23
ATOM     23  C   UNL     1      37.800   4.854  16.032  0.00  0.00    +0.000 C 
BRANCH  23  24
ATOM     24  C   UNL     1      38.518   4.757  17.340  0.00  0.00    +0.000 C 
BRANCH  24  25
ATOM     25  N   UNL     1      39.430   5.826  17.610  0.00  0.00    +0.000 NA
ATOM     26  C   UNL     1      38.836   7.134  17.400  0.00  0.00    +0.000 C 
ATOM     27  C   UNL     1      38.170   7.433  18.734  0.00  0.00    +0.000 C 
ATOM     28  C   UNL     1      39.235   6.933  19.712  0.00  0.00    +0.000 C 
ATOM     29  C   UNL     1      39.944   5.816  18.965  0.00  0.00    +0.000 C 
ENDBRANCH  24  25
ENDBRANCH  23  24
ENDBRANCH  22  23
ENDBRANCH  21  22
ENDBRANCH  20  21
ENDBRANCH  19  20
ENDBRANCH   4  19
TORSDOF 8
ENDMDL
MODEL 7
REMARK VINA RESULT:      -6.5     30.148     33.763
REMARK  Name = 
REMARK  8 active torsions:
REMARK  status: ('A' for Active; 'I' for Inactive)
REMARK    1  A    between atoms: C_3  and  C_4
REMARK    2  A    between atoms: N_11  and  C_12
REMARK    3  A    between atoms: C_12  and  C_13
REMARK    4  A    between atoms: C_13  and  C_14
REMARK    5  A    between atoms: C_14  and  C_15
REMARK    6  A    between atoms: C_15  and  C_16
REMARK    7  A    between atoms: C_16  and  C_17
REMARK    8  A    between atoms: C_17  and  N_18
REMARK                            x       y       z     vdW  Elec       q    Type
REMARK                         _______ _______ _______ _____ _____    ______ ____
ROOT
ATOM      1  C   UNL     1       8.458   5.364  11.859  0.00  0.00    +0.000 C 
ATOM      2  C   UNL     1       7.768   5.856  10.644  0.00  0.00    +0.000 A 
ATOM      3  C   UNL     1       6.383   5.966  10.548  0.00  0.00    +0.000 A 
ATOM      4  N   UNL     1       6.144   6.437   9.321  0.00  0.00    +0.000 N 
ATOM      5  C   UNL     1       7.286   6.637   8.632  0.00  0.00    +0.000 A 
ATOM      6  C   UNL     1       7.546   7.109   7.340  0.00  0.00    +0.000 A 
ATOM      7  C   UNL     1       8.833   7.212   6.884  0.00  0.00    +0.000 A 
ATOM      8  O   UNL     1       9.131   7.681   5.594  0.00  0.00    +0.000 OA
ATOM      9  C   UNL     1       9.868   6.845   7.716  0.00  0.00    +0.000 A 
ATOM     10  C   UNL     1       9.631   6.374   9.003  0.00  0.00    +0.000 A 
ATOM     11  C   UNL     1       8.322   6.273   9.457  0.00  0.00    +0.000 A 
ENDROOT
BRANCH   3  12
ATOM     12  C   UNL     1       5.430   5.628  11.630  0.00  0.00    +0.000 A 
ATOM     13  C   UNL     1       5.139   4.291  11.883  0.00  0.00    +0.000 A 
ATOM     14  C   UNL     1       4.286   3.889  12.874  0.00  0.00    +0.000 A 
ATOM     15  C   UNL     1       3.689   4.850  13.656  0.00  0.00    +0.000 A 
ATOM     16  O   UNL     1       2.806   4.478  14.687  0.00  0.00    +0.000 OA
ATOM     17  C   UNL     1       3.972   6.182  13.416  0.00  0.00    +0.000 A 
ATOM     18  C   UNL     1       4.833   6.559  12.413  0.00  0.00    +0.000 A 
ENDBRANCH   3  12
BRANCH   4  19
ATOM     19  C   UNL     1       4.816   6.672   8.764  0.00  0.00    +0.000 C 
BRANCH  19  20
ATOM     20  C   UNL     1       4.334   5.624   7.837  0.00  0.00    +0.000 C 
BRANCH  20  21
ATOM     21  C   UNL     1       4.418   4.212   8.276  0.00  0.00    +0.000 C 
BRANCH  21  22
ATOM     22  C   UNL     1       5.530   3.540   7.502  0.00  0.00    +0.000 C 
BRANCH  22  23
ATOM     23  C   UNL     1       6.570   2.947   8.429  0.00  0.00    +0.000 C 
BRANCH  23  24
ATOM     24  C   UNL     1       7.951   3.003   7.858  0.00  0.00    +0.000 C 
BRANCH  24  25
ATOM     25  N   UNL     1       8.819   1.942   8.267  0.00  0.00    +0.000 NA
ATOM     26  C   UNL     1      10.206   2.357   8.357  0.00  0.00    +0.000 C 
ATOM     27  C   UNL     1      10.312   2.919   9.766  0.00  0.00    +0.000 C 
ATOM     28  C   UNL     1       9.493   1.893  10.553  0.00  0.00    +0.000 C 
ATOM     29  C   UNL     1       8.469   1.378   9.556  0.00  0.00    +0.000 C 
ENDBRANCH  24  25
ENDBRANCH  23  24
ENDBRANCH  22  23
ENDBRANCH  21  22
ENDBRANCH  20  21
ENDBRANCH  19  20
ENDBRANCH   4  19
TORSDOF 8
ENDMDL
MODEL 8
REMARK VINA RESULT:      -6.5     27.868     31.520
REMARK  Name = 
REMARK  8 active torsions:
REMARK  status: ('A' for Active; 'I' for Inactive)
REMARK    1  A    between atoms: C_3  and  C_4
REMARK    2  A    between atoms: N_11  and  C_12
REMARK    3  A    between atoms: C_12  and  C_13
REMARK    4  A    between atoms: C_13  and  C_14
REMARK    5  A    between atoms: C_14  and  C_15
REMARK    6  A    between atoms: C_15  and  C_16
REMARK    7  A    between atoms: C_16  and  C_17
REMARK    8  A    between atoms: C_17  and  N_18
REMARK                            x       y       z     vdW  Elec       q    Type
REMARK                         _______ _______ _______ _____ _____    ______ ____
ROOT
ATOM      1  C   UNL     1      25.778  14.810  34.574  0.00  0.00    +0.000 C 
ATOM      2  C   UNL     1      25.396  16.185  34.970  0.00  0.00    +0.000 A 
ATOM      3  C   UNL     1      25.438  16.635  36.288  0.00  0.00    +0.000 A 
ATOM      4  N   UNL     1      25.027  17.906  36.246  0.00  0.00    +0.000 N 
ATOM      5  C   UNL     1      24.729  18.294  34.989  0.00  0.00    +0.000 A 
ATOM      6  C   UNL     1      24.272  19.502  34.450  0.00  0.00    +0.000 A 
ATOM      7  C   UNL     1      24.046  19.622  33.105  0.00  0.00    +0.000 A 
ATOM      8  O   UNL     1      23.587  20.818  32.531  0.00  0.00    +0.000 OA
ATOM      9  C   UNL     1      24.277  18.536  32.290  0.00  0.00    +0.000 A 
ATOM     10  C   UNL     1      24.732  17.326  32.805  0.00  0.00    +0.000 A 
ATOM     11  C   UNL     1      24.958  17.215  34.171  0.00  0.00    +0.000 A 
ENDROOT
BRANCH   3  12
ATOM     12  C   UNL     1      25.875  15.824  37.446  0.00  0.00    +0.000 A 
ATOM     13  C   UNL     1      27.198  15.904  37.869  0.00  0.00    +0.000 A 
ATOM     14  C   UNL     1      27.681  15.204  38.940  0.00  0.00    +0.000 A 
ATOM     15  C   UNL     1      26.820  14.383  39.630  0.00  0.00    +0.000 A 
ATOM     16  O   UNL     1      27.279  13.646  40.739  0.00  0.00    +0.000 OA
ATOM     17  C   UNL     1      25.503  14.295  39.221  0.00  0.00    +0.000 A 
ATOM     18  C   UNL     1      25.043  15.009  38.140  0.00  0.00    +0.000 A 
ENDBRANCH   3  12
BRANCH   4  19
ATOM     19  C   UNL     1      24.872  18.769  37.413  0.00  0.00    +0.000 C 
BRANCH  19  20
ATOM     20  C   UNL     1      23.580  18.635  38.121  0.00  0.00    +0.000 C 
BRANCH  20  21
ATOM     21  C   UNL     1      23.599  18.562  39.600  0.00  0.00    +0.000 C 
BRANCH  21  22
ATOM     22  C   UNL     1      25.017  18.283  40.044  0.00  0.00    +0.000 C 
BRANCH  22  23
ATOM     23  C   UNL     1      25.049  17.510  41.346  0.00  0.00    +0.000 C 
BRANCH  23  24
ATOM     24  C   UNL     1      23.840  17.753  42.191  0.00  0.00    +0.000 C 
BRANCH  24  25
ATOM     25  N   UNL     1      23.210  16.573  42.699  0.00  0.00    +0.000 NA
ATOM     26  C   UNL     1      21.849  16.814  43.142  0.00  0.00    +0.000 C 
ATOM     27  C   UNL     1      21.033  16.641  41.872  0.00  0.00    +0.000 C 
ATOM     28  C   UNL     1      21.710  15.418  41.250  0.00  0.00    +0.000 C 
ATOM     29  C   UNL     1      23.148  15.493  41.734  0.00  0.00    +0.000 C 
ENDBRANCH  24  25
ENDBRANCH  23  24
ENDBRANCH  22  23
ENDBRANCH  21  22
ENDBRANCH  20  21
ENDBRANCH  19  20
ENDBRANCH   4  19
TORSDOF 8
ENDMDL
MODEL 9
REMARK VINA RESULT:      -6.4      5.820      8.747
REMARK  Name = 
REMARK  8 active torsions:
REMARK  status: ('A' for Active; 'I' for Inactive)
REMARK    1  A    between atoms: C_3  and  C_4
REMARK    2  A    between atoms: N_11  and  C_12
REMARK    3  A    between atoms: C_12  and  C_13
REMARK    4  A    between atoms: C_13  and  C_14
REMARK    5  A    between atoms: C_14  and  C_15
REMARK    6  A    between atoms: C_15  and  C_16
REMARK    7  A    between atoms: C_16  and  C_17
REMARK    8  A    between atoms: C_17  and  N_18
REMARK                            x       y       z     vdW  Elec       q    Type
REMARK                         _______ _______ _______ _____ _____    ______ ____
ROOT
ATOM      1  C   UNL     1      42.251   6.401  15.462  0.00  0.00    +0.000 C 
ATOM      2  C   UNL     1      41.876   6.472  16.893  0.00  0.00    +0.000 A 
ATOM      3  C   UNL     1      40.565   6.342  17.343  0.00  0.00    +0.000 A 
ATOM      4  N   UNL     1      40.628   6.461  18.672  0.00  0.00    +0.000 N 
ATOM      5  C   UNL     1      41.893   6.654  19.097  0.00  0.00    +0.000 A 
ATOM      6  C   UNL     1      42.453   6.828  20.368  0.00  0.00    +0.000 A 
ATOM      7  C   UNL     1      43.802   7.010  20.515  0.00  0.00    +0.000 A 
ATOM      8  O   UNL     1      44.397   7.188  21.774  0.00  0.00    +0.000 OA
ATOM      9  C   UNL     1      44.600   7.019  19.392  0.00  0.00    +0.000 A 
ATOM     10  C   UNL     1      44.064   6.847  18.120  0.00  0.00    +0.000 A 
ATOM     11  C   UNL     1      42.695   6.664  17.981  0.00  0.00    +0.000 A 
ENDROOT
BRANCH   3  12
ATOM     12  C   UNL     1      39.391   6.106  16.472  0.00  0.00    +0.000 A 
ATOM     13  C   UNL     1      38.932   4.805  16.293  0.00  0.00    +0.000 A 
ATOM     14  C   UNL     1      37.844   4.499  15.521  0.00  0.00    +0.000 A 
ATOM     15  C   UNL     1      37.174   5.524  14.895  0.00  0.00    +0.000 A 
ATOM     16  O   UNL     1      36.050   5.251  14.093  0.00  0.00    +0.000 OA
ATOM     17  C   UNL     1      37.620   6.821  15.066  0.00  0.00    +0.000 A 
ATOM     18  C   UNL     1      38.716   7.102  15.847  0.00  0.00    +0.000 A 
ENDBRANCH   3  12
BRANCH   4  19
ATOM     19  C   UNL     1      39.474   6.431  19.566  0.00  0.00    +0.000 C 
BRANCH  19  20
ATOM     20  C   UNL     1      39.361   7.590  20.478  0.00  0.00    +0.000 C 
BRANCH  20  21
ATOM     21  C   UNL     1      38.144   8.430  20.391  0.00  0.00    +0.000 C 
BRANCH  21  22
ATOM     22  C   UNL     1      37.511   8.211  19.035  0.00  0.00    +0.000 C 
BRANCH  22  23
ATOM     23  C   UNL     1      37.292   9.520  18.307  0.00  0.00    +0.000 C 
BRANCH  23  24
ATOM     24  C   UNL     1      37.976  10.672  18.971  0.00  0.00    +0.000 C 
BRANCH  24  25
ATOM     25  N   UNL     1      38.954  11.340  18.167  0.00  0.00    +0.000 NA
ATOM     26  C   UNL     1      40.197  11.573  18.879  0.00  0.00    +0.000 C 
ATOM     27  C   UNL     1      40.972  10.283  18.659  0.00  0.00    +0.000 C 
ATOM     28  C   UNL     1      40.668  10.004  17.186  0.00  0.00    +0.000 C 
ATOM     29  C   UNL     1      39.296  10.617  16.958  0.00  0.00    +0.000 C 
ENDBRANCH  24  25
ENDBRANCH  23  24
ENDBRANCH  22  23
ENDBRANCH  21  22
ENDBRANCH  20  21
ENDBRANCH  19  20
ENDBRANCH   4  19
TORSDOF 8
ENDMDL
MODEL 10
REMARK VINA RESULT:      -6.4      5.608      8.785
REMARK  Name = 
REMARK  8 active torsions:
REMARK  status: ('A' for Active; 'I' for Inactive)
REMARK    1  A    between atoms: C_3  and  C_4
REMARK    2  A    between atoms: N_11  and  C_12
REMARK    3  A    between atoms: C_12  and  C_13
REMARK    4  A    between atoms: C_13  and  C_14
REMARK    5  A    between atoms: C_14  and  C_15
REMARK    6  A    between atoms: C_15  and  C_16
REMARK    7  A    between atoms: C_16  and  C_17
REMARK    8  A    between atoms: C_17  and  N_18
REMARK                            x       y       z     vdW  Elec       q    Type
REMARK                         _______ _______ _______ _____ _____    ______ ____
ROOT
ATOM      1  C   UNL     1      41.846   6.213  14.916  0.00  0.00    +0.000 C 
ATOM      2  C   UNL     1      41.611   6.276  16.377  0.00  0.00    +0.000 A 
ATOM      3  C   UNL     1      40.366   6.051  16.957  0.00  0.00    +0.000 A 
ATOM      4  N   UNL     1      40.550   6.195  18.273  0.00  0.00    +0.000 N 
ATOM      5  C   UNL     1      41.832   6.495  18.567  0.00  0.00    +0.000 A 
ATOM      6  C   UNL     1      42.500   6.732  19.774  0.00  0.00    +0.000 A 
ATOM      7  C   UNL     1      43.837   7.023  19.783  0.00  0.00    +0.000 A 
ATOM      8  O   UNL     1      44.538   7.267  20.975  0.00  0.00    +0.000 OA
ATOM      9  C   UNL     1      44.517   7.077  18.586  0.00  0.00    +0.000 A 
ATOM     10  C   UNL     1      43.873   6.844  17.375  0.00  0.00    +0.000 A 
ATOM     11  C   UNL     1      42.516   6.550  17.377  0.00  0.00    +0.000 A 
ENDROOT
BRANCH   3  12
ATOM     12  C   UNL     1      39.134   5.709  16.211  0.00  0.00    +0.000 A 
ATOM     13  C   UNL     1      38.367   6.733  15.664  0.00  0.00    +0.000 A 
ATOM     14  C   UNL     1      37.226   6.505  14.944  0.00  0.00    +0.000 A 
ATOM     15  C   UNL     1      36.818   5.206  14.752  0.00  0.00    +0.000 A 
ATOM     16  O   UNL     1      35.651   4.930  14.016  0.00  0.00    +0.000 OA
ATOM     17  C   UNL     1      37.573   4.179  15.289  0.00  0.00    +0.000 A 
ATOM     18  C   UNL     1      38.715   4.435  16.009  0.00  0.00    +0.000 A 
ENDBRANCH   3  12
BRANCH   4  19
ATOM     19  C   UNL     1      39.497   6.088  19.278  0.00  0.00    +0.000 C 
BRANCH  19  20
ATOM     20  C   UNL     1      39.404   7.234  20.209  0.00  0.00    +0.000 C 
BRANCH  20  21
ATOM     21  C   UNL     1      38.798   8.490  19.710  0.00  0.00    +0.000 C 
BRANCH  21  22
ATOM     22  C   UNL     1      37.563   8.137  18.912  0.00  0.00    +0.000 C 
BRANCH  22  23
ATOM     23  C   UNL     1      36.741   9.368  18.590  0.00  0.00    +0.000 C 
BRANCH  23  24
ATOM     24  C   UNL     1      36.302   9.412  17.162  0.00  0.00    +0.000 C 
BRANCH  24  25
ATOM     25  N   UNL     1      35.129  10.193  16.914  0.00  0.00    +0.000 NA
ATOM     26  C   UNL     1      34.738  10.184  15.516  0.00  0.00    +0.000 C 
ATOM     27  C   UNL     1      33.871   8.940  15.405  0.00  0.00    +0.000 C 
ATOM     28  C   UNL     1      33.059   9.030  16.699  0.00  0.00    +0.000 C 
ATOM     29  C   UNL     1      33.974   9.754  17.672  0.00  0.00    +0.000 C 
ENDBRANCH  24  25
ENDBRANCH  23  24
ENDBRANCH  22  23
ENDBRANCH  21  22
ENDBRANCH  20  21
ENDBRANCH  19  20
ENDBRANCH   4  19
TORSDOF 8
ENDMDL
