MODEL 1
REMARK VINA RESULT:      -7.8      0.000      0.000
REMARK  Name = 
REMARK  6 active torsions:
REMARK  status: ('A' for Active; 'I' for Inactive)
REMARK    1  A    between atoms: C_9  and  C_10
REMARK    2  A    between atoms: C_16  and  C_17
REMARK    3  A    between atoms: N_23  and  C_24
REMARK    4  A    between atoms: C_24  and  C_25
REMARK    5  A    between atoms: C_25  and  C_27
REMARK    6  A    between atoms: C_27  and  N_28
REMARK                            x       y       z     vdW  Elec       q    Type
REMARK                         _______ _______ _______ _____ _____    ______ ____
ROOT
ATOM      1  C   UNL     1      38.264  -2.876  19.195  0.00  0.00    +0.000 C 
ATOM      2  C   UNL     1      37.803  -1.942  18.147  0.00  0.00    +0.000 A 
ATOM      3  C   UNL     1      36.738  -1.120  18.350  0.00  0.00    +0.000 A 
ATOM      4  C   UNL     1      36.300  -0.251  17.391  0.00  0.00    +0.000 A 
ATOM      5  C   UNL     1      35.184   0.614  17.742  0.00  0.00    +0.000 C 
ATOM      6  C   UNL     1      36.897  -0.138  16.145  0.00  0.00    +0.000 A 
ATOM      7  C   UNL     1      37.980  -0.977  15.944  0.00  0.00    +0.000 A 
ATOM      8  C   UNL     1      38.421  -1.853  16.915  0.00  0.00    +0.000 A 
ATOM      9  C   UNL     1      38.464  -0.724  14.677  0.00  0.00    +0.000 A 
ATOM     10  C   UNL     1      37.679   0.242  14.144  0.00  0.00    +0.000 A 
ATOM     11  N   UNL     1      36.717   0.595  15.050  0.00  0.00    +0.000 N 
ENDROOT
BRANCH   9  12
ATOM     12  C   UNL     1      39.606  -1.385  14.050  0.00  0.00    +0.000 A 
ATOM     13  C   UNL     1      40.903  -1.014  14.323  0.00  0.00    +0.000 A 
ATOM     14  C   UNL     1      41.980  -1.670  13.703  0.00  0.00    +0.000 A 
ATOM     15  C   UNL     1      41.761  -2.693  12.811  0.00  0.00    +0.000 A 
ATOM     16  C   UNL     1      40.469  -3.064  12.536  0.00  0.00    +0.000 A 
ATOM     17  C   UNL     1      39.403  -2.407  13.158  0.00  0.00    +0.000 A 
ENDBRANCH   9  12
BRANCH  10  18
ATOM     18  C   UNL     1      37.798   0.840  12.828  0.00  0.00    +0.000 A 
ATOM     19  C   UNL     1      38.856   1.690  12.595  0.00  0.00    +0.000 A 
ATOM     20  C   UNL     1      39.034   2.298  11.359  0.00  0.00    +0.000 A 
ATOM     21  C   UNL     1      38.146   2.062  10.329  0.00  0.00    +0.000 A 
ATOM     22  C   UNL     1      37.094   1.209  10.579  0.00  0.00    +0.000 A 
ATOM     23  C   UNL     1      36.912   0.599  11.814  0.00  0.00    +0.000 A 
ENDBRANCH  10  18
BRANCH  11  24
ATOM     24  C   UNL     1      35.722   1.616  14.847  0.00  0.00    +0.000 C 
BRANCH  24  25
ATOM     25  C   UNL     1      36.448   3.038  14.752  0.00  0.00    +0.000 C 
ATOM     26  O   UNL     1      35.286   3.899  14.632  0.00  0.00    +0.000 OA
BRANCH  25  27
ATOM     27  C   UNL     1      36.892   3.296  16.223  0.00  0.00    +0.000 C 
BRANCH  27  28
ATOM     28  N   UNL     1      38.187   3.620  16.481  0.00  0.00    +0.000 NA
ATOM     29  C   UNL     1      38.395   4.631  17.470  0.00  0.00    +0.000 C 
ATOM     30  C   UNL     1      38.213   6.028  16.962  0.00  0.00    +0.000 C 
ATOM     31  C   UNL     1      39.363   6.275  16.012  0.00  0.00    +0.000 C 
ATOM     32  C   UNL     1      39.895   5.027  15.418  0.00  0.00    +0.000 C 
ATOM     33  C   UNL     1      38.963   3.873  15.347  0.00  0.00    +0.000 C 
ENDBRANCH  27  28
ENDBRANCH  25  27
ENDBRANCH  24  25
ENDBRANCH  11  24
TORSDOF 6
ENDMDL
MODEL 2
REMARK VINA RESULT:      -7.4      1.895      4.891
REMARK  Name = 
REMARK  6 active torsions:
REMARK  status: ('A' for Active; 'I' for Inactive)
REMARK    1  A    between atoms: C_9  and  C_10
REMARK    2  A    between atoms: C_16  and  C_17
REMARK    3  A    between atoms: N_23  and  C_24
REMARK    4  A    between atoms: C_24  and  C_25
REMARK    5  A    between atoms: C_25  and  C_27
REMARK    6  A    between atoms: C_27  and  N_28
REMARK                            x       y       z     vdW  Elec       q    Type
REMARK                         _______ _______ _______ _____ _____    ______ ____
ROOT
ATOM      1  C   UNL     1      40.892  -3.339  10.947  0.00  0.00    +0.000 C 
ATOM      2  C   UNL     1      40.111  -2.374  11.747  0.00  0.00    +0.000 A 
ATOM      3  C   UNL     1      39.999  -1.070  11.372  0.00  0.00    +0.000 A 
ATOM      4  C   UNL     1      39.281  -0.165  12.101  0.00  0.00    +0.000 A 
ATOM      5  C   UNL     1      39.192   1.188  11.574  0.00  0.00    +0.000 C 
ATOM      6  C   UNL     1      38.616  -0.497  13.271  0.00  0.00    +0.000 A 
ATOM      7  C   UNL     1      38.733  -1.824  13.648  0.00  0.00    +0.000 A 
ATOM      8  C   UNL     1      39.459  -2.736  12.909  0.00  0.00    +0.000 A 
ATOM      9  C   UNL     1      38.003  -1.986  14.807  0.00  0.00    +0.000 A 
ATOM     10  C   UNL     1      37.470  -0.778  15.106  0.00  0.00    +0.000 A 
ATOM     11  N   UNL     1      37.852   0.133  14.161  0.00  0.00    +0.000 N 
ENDROOT
BRANCH   9  12
ATOM     12  C   UNL     1      37.848  -3.233  15.553  0.00  0.00    +0.000 A 
ATOM     13  C   UNL     1      38.762  -3.633  16.501  0.00  0.00    +0.000 A 
ATOM     14  C   UNL     1      38.585  -4.838  17.201  0.00  0.00    +0.000 A 
ATOM     15  C   UNL     1      37.498  -5.643  16.953  0.00  0.00    +0.000 A 
ATOM     16  C   UNL     1      36.585  -5.246  16.008  0.00  0.00    +0.000 A 
ATOM     17  C   UNL     1      36.769  -4.045  15.316  0.00  0.00    +0.000 A 
ENDBRANCH   9  12
BRANCH  10  18
ATOM     18  C   UNL     1      36.622  -0.451  16.236  0.00  0.00    +0.000 A 
ATOM     19  C   UNL     1      37.129  -0.635  17.504  0.00  0.00    +0.000 A 
ATOM     20  C   UNL     1      36.374  -0.343  18.632  0.00  0.00    +0.000 A 
ATOM     21  C   UNL     1      35.088   0.142  18.508  0.00  0.00    +0.000 A 
ATOM     22  C   UNL     1      34.596   0.321  17.233  0.00  0.00    +0.000 A 
ATOM     23  C   UNL     1      35.348   0.030  16.101  0.00  0.00    +0.000 A 
ENDBRANCH  10  18
BRANCH  11  24
ATOM     24  C   UNL     1      37.451   1.515  14.130  0.00  0.00    +0.000 C 
BRANCH  24  25
ATOM     25  C   UNL     1      38.219   2.305  15.290  0.00  0.00    +0.000 C 
ATOM     26  O   UNL     1      39.591   2.071  14.881  0.00  0.00    +0.000 OA
BRANCH  25  27
ATOM     27  C   UNL     1      38.010   3.796  14.888  0.00  0.00    +0.000 C 
BRANCH  27  28
ATOM     28  N   UNL     1      37.786   4.723  15.856  0.00  0.00    +0.000 NA
ATOM     29  C   UNL     1      38.487   5.960  15.713  0.00  0.00    +0.000 C 
ATOM     30  C   UNL     1      39.911   5.913  16.177  0.00  0.00    +0.000 C 
ATOM     31  C   UNL     1      39.850   5.756  17.680  0.00  0.00    +0.000 C 
ATOM     32  C   UNL     1      38.597   5.114  18.140  0.00  0.00    +0.000 C 
ATOM     33  C   UNL     1      37.897   4.241  17.163  0.00  0.00    +0.000 C 
ENDBRANCH  27  28
ENDBRANCH  25  27
ENDBRANCH  24  25
ENDBRANCH  11  24
TORSDOF 6
ENDMDL
MODEL 3
REMARK VINA RESULT:      -7.3      2.112      5.882
REMARK  Name = 
REMARK  6 active torsions:
REMARK  status: ('A' for Active; 'I' for Inactive)
REMARK    1  A    between atoms: C_9  and  C_10
REMARK    2  A    between atoms: C_16  and  C_17
REMARK    3  A    between atoms: N_23  and  C_24
REMARK    4  A    between atoms: C_24  and  C_25
REMARK    5  A    between atoms: C_25  and  C_27
REMARK    6  A    between atoms: C_27  and  N_28
REMARK                            x       y       z     vdW  Elec       q    Type
REMARK                         _______ _______ _______ _____ _____    ______ ____
ROOT
ATOM      1  C   UNL     1      36.076   6.875  13.009  0.00  0.00    +0.000 C 
ATOM      2  C   UNL     1      36.151   5.473  13.469  0.00  0.00    +0.000 A 
ATOM      3  C   UNL     1      35.173   4.929  14.245  0.00  0.00    +0.000 A 
ATOM      4  C   UNL     1      35.227   3.635  14.679  0.00  0.00    +0.000 A 
ATOM      5  C   UNL     1      34.099   3.151  15.460  0.00  0.00    +0.000 C 
ATOM      6  C   UNL     1      36.272   2.779  14.369  0.00  0.00    +0.000 A 
ATOM      7  C   UNL     1      37.264   3.336  13.580  0.00  0.00    +0.000 A 
ATOM      8  C   UNL     1      37.206   4.645  13.142  0.00  0.00    +0.000 A 
ATOM      9  C   UNL     1      38.205   2.355  13.351  0.00  0.00    +0.000 A 
ATOM     10  C   UNL     1      37.777   1.243  13.995  0.00  0.00    +0.000 A 
ATOM     11  N   UNL     1      36.590   1.511  14.621  0.00  0.00    +0.000 N 
ENDROOT
BRANCH   9  12
ATOM     12  C   UNL     1      39.426   2.507  12.562  0.00  0.00    +0.000 A 
ATOM     13  C   UNL     1      39.471   2.194  11.223  0.00  0.00    +0.000 A 
ATOM     14  C   UNL     1      40.660   2.352  10.491  0.00  0.00    +0.000 A 
ATOM     15  C   UNL     1      41.802   2.820  11.098  0.00  0.00    +0.000 A 
ATOM     16  C   UNL     1      41.759   3.133  12.434  0.00  0.00    +0.000 A 
ATOM     17  C   UNL     1      40.572   2.973  13.153  0.00  0.00    +0.000 A 
ENDBRANCH   9  12
BRANCH  10  18
ATOM     18  C   UNL     1      38.434  -0.048  14.044  0.00  0.00    +0.000 A 
ATOM     19  C   UNL     1      37.902  -1.076  13.295  0.00  0.00    +0.000 A 
ATOM     20  C   UNL     1      38.479  -2.339  13.293  0.00  0.00    +0.000 A 
ATOM     21  C   UNL     1      39.606  -2.596  14.047  0.00  0.00    +0.000 A 
ATOM     22  C   UNL     1      40.124  -1.557  14.789  0.00  0.00    +0.000 A 
ATOM     23  C   UNL     1      39.551  -0.292  14.795  0.00  0.00    +0.000 A 
ENDBRANCH  10  18
BRANCH  11  24
ATOM     24  C   UNL     1      35.818   0.560  15.377  0.00  0.00    +0.000 C 
BRANCH  24  25
ATOM     25  C   UNL     1      36.604   0.207  16.724  0.00  0.00    +0.000 C 
ATOM     26  O   UNL     1      36.476   1.471  17.423  0.00  0.00    +0.000 OA
BRANCH  25  27
ATOM     27  C   UNL     1      35.586  -0.691  17.490  0.00  0.00    +0.000 C 
BRANCH  27  28
ATOM     28  N   UNL     1      35.928  -1.970  17.803  0.00  0.00    +0.000 NA
ATOM     29  C   UNL     1      36.808  -2.127  18.918  0.00  0.00    +0.000 C 
ATOM     30  C   UNL     1      38.251  -1.887  18.595  0.00  0.00    +0.000 C 
ATOM     31  C   UNL     1      38.669  -3.031  17.698  0.00  0.00    +0.000 C 
ATOM     32  C   UNL     1      37.533  -3.620  16.952  0.00  0.00    +0.000 C 
ATOM     33  C   UNL     1      36.360  -2.740  16.721  0.00  0.00    +0.000 C 
ENDBRANCH  27  28
ENDBRANCH  25  27
ENDBRANCH  24  25
ENDBRANCH  11  24
TORSDOF 6
ENDMDL
MODEL 4
REMARK VINA RESULT:      -7.2      2.427      6.527
REMARK  Name = 
REMARK  6 active torsions:
REMARK  status: ('A' for Active; 'I' for Inactive)
REMARK    1  A    between atoms: C_9  and  C_10
REMARK    2  A    between atoms: C_16  and  C_17
REMARK    3  A    between atoms: N_23  and  C_24
REMARK    4  A    between atoms: C_24  and  C_25
REMARK    5  A    between atoms: C_25  and  C_27
REMARK    6  A    between atoms: C_27  and  N_28
REMARK                            x       y       z     vdW  Elec       q    Type
REMARK                         _______ _______ _______ _____ _____    ______ ____
ROOT
ATOM      1  C   UNL     1      41.196  -2.914   8.132  0.00  0.00    +0.000 C 
ATOM      2  C   UNL     1      40.933  -2.428   9.502  0.00  0.00    +0.000 A 
ATOM      3  C   UNL     1      41.415  -3.087  10.591  0.00  0.00    +0.000 A 
ATOM      4  C   UNL     1      41.181  -2.651  11.865  0.00  0.00    +0.000 A 
ATOM      5  C   UNL     1      41.790  -3.409  12.946  0.00  0.00    +0.000 C 
ATOM      6  C   UNL     1      40.439  -1.515  12.148  0.00  0.00    +0.000 A 
ATOM      7  C   UNL     1      39.951  -0.849  11.037  0.00  0.00    +0.000 A 
ATOM      8  C   UNL     1      40.191  -1.292   9.752  0.00  0.00    +0.000 A 
ATOM      9  C   UNL     1      39.263   0.256  11.492  0.00  0.00    +0.000 A 
ATOM     10  C   UNL     1      39.343   0.238  12.844  0.00  0.00    +0.000 A 
ATOM     11  N   UNL     1      40.064  -0.854  13.241  0.00  0.00    +0.000 N 
ENDROOT
BRANCH   9  12
ATOM     12  C   UNL     1      38.584   1.244  10.657  0.00  0.00    +0.000 A 
ATOM     13  C   UNL     1      39.215   2.387  10.221  0.00  0.00    +0.000 A 
ATOM     14  C   UNL     1      38.534   3.318   9.418  0.00  0.00    +0.000 A 
ATOM     15  C   UNL     1      37.224   3.108   9.055  0.00  0.00    +0.000 A 
ATOM     16  C   UNL     1      36.593   1.970   9.489  0.00  0.00    +0.000 A 
ATOM     17  C   UNL     1      37.278   1.049  10.286  0.00  0.00    +0.000 A 
ENDBRANCH   9  12
BRANCH  10  18
ATOM     18  C   UNL     1      38.772   1.200  13.767  0.00  0.00    +0.000 A 
ATOM     19  C   UNL     1      37.438   1.081  14.087  0.00  0.00    +0.000 A 
ATOM     20  C   UNL     1      36.824   1.966  14.964  0.00  0.00    +0.000 A 
ATOM     21  C   UNL     1      37.545   2.993  15.540  0.00  0.00    +0.000 A 
ATOM     22  C   UNL     1      38.878   3.097  15.210  0.00  0.00    +0.000 A 
ATOM     23  C   UNL     1      39.496   2.214  14.332  0.00  0.00    +0.000 A 
ENDBRANCH  10  18
BRANCH  11  24
ATOM     24  C   UNL     1      40.386  -1.185  14.604  0.00  0.00    +0.000 C 
BRANCH  24  25
ATOM     25  C   UNL     1      39.278  -2.192  15.169  0.00  0.00    +0.000 C 
ATOM     26  O   UNL     1      40.136  -3.153  15.835  0.00  0.00    +0.000 OA
BRANCH  25  27
ATOM     27  C   UNL     1      38.678  -1.403  16.372  0.00  0.00    +0.000 C 
BRANCH  27  28
ATOM     28  N   UNL     1      37.770  -2.010  17.182  0.00  0.00    +0.000 NA
ATOM     29  C   UNL     1      36.408  -1.615  17.000  0.00  0.00    +0.000 C 
ATOM     30  C   UNL     1      36.051  -0.325  17.671  0.00  0.00    +0.000 C 
ATOM     31  C   UNL     1      36.104  -0.604  19.157  0.00  0.00    +0.000 C 
ATOM     32  C   UNL     1      37.011  -1.724  19.499  0.00  0.00    +0.000 C 
ATOM     33  C   UNL     1      38.106  -2.011  18.537  0.00  0.00    +0.000 C 
ENDBRANCH  27  28
ENDBRANCH  25  27
ENDBRANCH  24  25
ENDBRANCH  11  24
TORSDOF 6
ENDMDL
MODEL 5
REMARK VINA RESULT:      -7.0      2.380      3.110
REMARK  Name = 
REMARK  6 active torsions:
REMARK  status: ('A' for Active; 'I' for Inactive)
REMARK    1  A    between atoms: C_9  and  C_10
REMARK    2  A    between atoms: C_16  and  C_17
REMARK    3  A    between atoms: N_23  and  C_24
REMARK    4  A    between atoms: C_24  and  C_25
REMARK    5  A    between atoms: C_25  and  C_27
REMARK    6  A    between atoms: C_27  and  N_28
REMARK                            x       y       z     vdW  Elec       q    Type
REMARK                         _______ _______ _______ _____ _____    ______ ____
ROOT
ATOM      1  C   UNL     1      34.992  -1.341  17.822  0.00  0.00    +0.000 C 
ATOM      2  C   UNL     1      35.454  -0.355  16.823  0.00  0.00    +0.000 A 
ATOM      3  C   UNL     1      34.820   0.838  16.661  0.00  0.00    +0.000 A 
ATOM      4  C   UNL     1      35.235   1.760  15.741  0.00  0.00    +0.000 A 
ATOM      5  C   UNL     1      34.509   3.020  15.694  0.00  0.00    +0.000 C 
ATOM      6  C   UNL     1      36.322   1.556  14.906  0.00  0.00    +0.000 A 
ATOM      7  C   UNL     1      36.963   0.341  15.075  0.00  0.00    +0.000 A 
ATOM      8  C   UNL     1      36.542  -0.588  16.006  0.00  0.00    +0.000 A 
ATOM      9  C   UNL     1      38.022   0.311  14.192  0.00  0.00    +0.000 A 
ATOM     10  C   UNL     1      38.002   1.483  13.516  0.00  0.00    +0.000 A 
ATOM     11  N   UNL     1      36.954   2.243  13.957  0.00  0.00    +0.000 N 
ENDROOT
BRANCH   9  12
ATOM     12  C   UNL     1      38.972  -0.789  14.033  0.00  0.00    +0.000 A 
ATOM     13  C   UNL     1      40.074  -0.923  14.846  0.00  0.00    +0.000 A 
ATOM     14  C   UNL     1      40.969  -1.991  14.667  0.00  0.00    +0.000 A 
ATOM     15  C   UNL     1      40.762  -2.923  13.677  0.00  0.00    +0.000 A 
ATOM     16  C   UNL     1      39.664  -2.791  12.865  0.00  0.00    +0.000 A 
ATOM     17  C   UNL     1      38.779  -1.726  13.051  0.00  0.00    +0.000 A 
ENDBRANCH   9  12
BRANCH  10  18
ATOM     18  C   UNL     1      38.922   1.913  12.481  0.00  0.00    +0.000 A 
ATOM     19  C   UNL     1      40.146   2.413  12.867  0.00  0.00    +0.000 A 
ATOM     20  C   UNL     1      41.077   2.843  11.931  0.00  0.00    +0.000 A 
ATOM     21  C   UNL     1      40.795   2.778  10.581  0.00  0.00    +0.000 A 
ATOM     22  C   UNL     1      39.567   2.274  10.212  0.00  0.00    +0.000 A 
ATOM     23  C   UNL     1      38.632   1.843  11.145  0.00  0.00    +0.000 A 
ENDBRANCH  10  18
BRANCH  11  24
ATOM     24  C   UNL     1      36.635   3.568  13.492  0.00  0.00    +0.000 C 
BRANCH  24  25
ATOM     25  C   UNL     1      37.610   4.617  14.205  0.00  0.00    +0.000 C 
ATOM     26  O   UNL     1      38.147   5.287  13.036  0.00  0.00    +0.000 OA
BRANCH  25  27
ATOM     27  C   UNL     1      36.619   5.682  14.764  0.00  0.00    +0.000 C 
BRANCH  27  28
ATOM     28  N   UNL     1      35.887   6.431  13.897  0.00  0.00    +0.000 NA
ATOM     29  C   UNL     1      36.132   7.839  13.926  0.00  0.00    +0.000 C 
ATOM     30  C   UNL     1      35.435   8.558  15.040  0.00  0.00    +0.000 C 
ATOM     31  C   UNL     1      33.960   8.501  14.708  0.00  0.00    +0.000 C 
ATOM     32  C   UNL     1      33.609   7.345  13.853  0.00  0.00    +0.000 C 
ATOM     33  C   UNL     1      34.515   6.169  13.915  0.00  0.00    +0.000 C 
ENDBRANCH  27  28
ENDBRANCH  25  27
ENDBRANCH  24  25
ENDBRANCH  11  24
TORSDOF 6
ENDMDL
MODEL 6
REMARK VINA RESULT:      -7.0      2.973      7.154
REMARK  Name = 
REMARK  6 active torsions:
REMARK  status: ('A' for Active; 'I' for Inactive)
REMARK    1  A    between atoms: C_9  and  C_10
REMARK    2  A    between atoms: C_16  and  C_17
REMARK    3  A    between atoms: N_23  and  C_24
REMARK    4  A    between atoms: C_24  and  C_25
REMARK    5  A    between atoms: C_25  and  C_27
REMARK    6  A    between atoms: C_27  and  N_28
REMARK                            x       y       z     vdW  Elec       q    Type
REMARK                         _______ _______ _______ _____ _____    ______ ____
ROOT
ATOM      1  C   UNL     1      37.314   3.501  10.708  0.00  0.00    +0.000 C 
ATOM      2  C   UNL     1      37.766   2.196  11.232  0.00  0.00    +0.000 A 
ATOM      3  C   UNL     1      38.630   1.413  10.532  0.00  0.00    +0.000 A 
ATOM      4  C   UNL     1      39.058   0.203  11.003  0.00  0.00    +0.000 A 
ATOM      5  C   UNL     1      40.021  -0.521  10.188  0.00  0.00    +0.000 C 
ATOM      6  C   UNL     1      38.648  -0.320  12.219  0.00  0.00    +0.000 A 
ATOM      7  C   UNL     1      37.769   0.481  12.928  0.00  0.00    +0.000 A 
ATOM      8  C   UNL     1      37.340   1.703  12.449  0.00  0.00    +0.000 A 
ATOM      9  C   UNL     1      37.482  -0.171  14.109  0.00  0.00    +0.000 A 
ATOM     10  C   UNL     1      38.177  -1.333  14.093  0.00  0.00    +0.000 A 
ATOM     11  N   UNL     1      38.889  -1.420  12.929  0.00  0.00    +0.000 N 
ENDROOT
BRANCH   9  12
ATOM     12  C   UNL     1      36.594   0.317  15.162  0.00  0.00    +0.000 A 
ATOM     13  C   UNL     1      36.650   1.614  15.619  0.00  0.00    +0.000 A 
ATOM     14  C   UNL     1      35.782   2.053  16.633  0.00  0.00    +0.000 A 
ATOM     15  C   UNL     1      34.862   1.196  17.191  0.00  0.00    +0.000 A 
ATOM     16  C   UNL     1      34.805  -0.097  16.737  0.00  0.00    +0.000 A 
ATOM     17  C   UNL     1      35.672  -0.525  15.727  0.00  0.00    +0.000 A 
ENDBRANCH   9  12
BRANCH  10  18
ATOM     18  C   UNL     1      38.198  -2.355  15.122  0.00  0.00    +0.000 A 
ATOM     19  C   UNL     1      39.004  -2.153  16.221  0.00  0.00    +0.000 A 
ATOM     20  C   UNL     1      39.073  -3.089  17.245  0.00  0.00    +0.000 A 
ATOM     21  C   UNL     1      38.331  -4.250  17.184  0.00  0.00    +0.000 A 
ATOM     22  C   UNL     1      37.530  -4.436  16.078  0.00  0.00    +0.000 A 
ATOM     23  C   UNL     1      37.457  -3.503  15.051  0.00  0.00    +0.000 A 
ENDBRANCH  10  18
BRANCH  11  24
ATOM     24  C   UNL     1      39.771  -2.500  12.574  0.00  0.00    +0.000 C 
BRANCH  24  25
ATOM     25  C   UNL     1      41.148  -2.330  13.371  0.00  0.00    +0.000 C 
ATOM     26  O   UNL     1      41.275  -3.663  13.930  0.00  0.00    +0.000 OA
BRANCH  25  27
ATOM     27  C   UNL     1      42.210  -2.354  12.232  0.00  0.00    +0.000 C 
BRANCH  27  28
ATOM     28  N   UNL     1      43.256  -1.486  12.276  0.00  0.00    +0.000 NA
ATOM     29  C   UNL     1      44.396  -1.917  13.024  0.00  0.00    +0.000 C 
ATOM     30  C   UNL     1      44.261  -1.733  14.504  0.00  0.00    +0.000 C 
ATOM     31  C   UNL     1      44.277  -0.238  14.737  0.00  0.00    +0.000 C 
ATOM     32  C   UNL     1      43.815   0.531  13.559  0.00  0.00    +0.000 C 
ATOM     33  C   UNL     1      42.912  -0.175  12.614  0.00  0.00    +0.000 C 
ENDBRANCH  27  28
ENDBRANCH  25  27
ENDBRANCH  24  25
ENDBRANCH  11  24
TORSDOF 6
ENDMDL
MODEL 7
REMARK VINA RESULT:      -7.0      2.689      6.196
REMARK  Name = 
REMARK  6 active torsions:
REMARK  status: ('A' for Active; 'I' for Inactive)
REMARK    1  A    between atoms: C_9  and  C_10
REMARK    2  A    between atoms: C_16  and  C_17
REMARK    3  A    between atoms: N_23  and  C_24
REMARK    4  A    between atoms: C_24  and  C_25
REMARK    5  A    between atoms: C_25  and  C_27
REMARK    6  A    between atoms: C_27  and  N_28
REMARK                            x       y       z     vdW  Elec       q    Type
REMARK                         _______ _______ _______ _____ _____    ______ ____
ROOT
ATOM      1  C   UNL     1      34.620   1.878  16.544  0.00  0.00    +0.000 C 
ATOM      2  C   UNL     1      35.775   1.578  15.672  0.00  0.00    +0.000 A 
ATOM      3  C   UNL     1      36.223   2.479  14.755  0.00  0.00    +0.000 A 
ATOM      4  C   UNL     1      37.289   2.217  13.942  0.00  0.00    +0.000 A 
ATOM      5  C   UNL     1      37.706   3.276  13.036  0.00  0.00    +0.000 C 
ATOM      6  C   UNL     1      37.993   1.023  13.983  0.00  0.00    +0.000 A 
ATOM      7  C   UNL     1      37.534   0.111  14.917  0.00  0.00    +0.000 A 
ATOM      8  C   UNL     1      36.457   0.380  15.738  0.00  0.00    +0.000 A 
ATOM      9  C   UNL     1      38.349  -0.998  14.841  0.00  0.00    +0.000 A 
ATOM     10  C   UNL     1      39.268  -0.744  13.879  0.00  0.00    +0.000 A 
ATOM     11  N   UNL     1      39.042   0.498  13.354  0.00  0.00    +0.000 N 
ENDROOT
BRANCH   9  12
ATOM     12  C   UNL     1      38.227  -2.207  15.653  0.00  0.00    +0.000 A 
ATOM     13  C   UNL     1      37.416  -3.256  15.282  0.00  0.00    +0.000 A 
ATOM     14  C   UNL     1      37.320  -4.405  16.084  0.00  0.00    +0.000 A 
ATOM     15  C   UNL     1      38.031  -4.505  17.257  0.00  0.00    +0.000 A 
ATOM     16  C   UNL     1      38.839  -3.460  17.630  0.00  0.00    +0.000 A 
ATOM     17  C   UNL     1      38.930  -2.322  16.825  0.00  0.00    +0.000 A 
ENDBRANCH   9  12
BRANCH  10  18
ATOM     18  C   UNL     1      40.340  -1.616  13.440  0.00  0.00    +0.000 A 
ATOM     19  C   UNL     1      41.609  -1.376  13.917  0.00  0.00    +0.000 A 
ATOM     20  C   UNL     1      42.684  -2.170  13.540  0.00  0.00    +0.000 A 
ATOM     21  C   UNL     1      42.502  -3.227  12.671  0.00  0.00    +0.000 A 
ATOM     22  C   UNL     1      41.227  -3.454  12.203  0.00  0.00    +0.000 A 
ATOM     23  C   UNL     1      40.148  -2.662  12.578  0.00  0.00    +0.000 A 
ENDBRANCH  10  18
BRANCH  11  24
ATOM     24  C   UNL     1      39.839   1.124  12.331  0.00  0.00    +0.000 C 
BRANCH  24  25
ATOM     25  C   UNL     1      39.551   0.402  10.933  0.00  0.00    +0.000 C 
ATOM     26  O   UNL     1      38.257   0.979  10.620  0.00  0.00    +0.000 OA
BRANCH  25  27
ATOM     27  C   UNL     1      40.492   1.163   9.953  0.00  0.00    +0.000 C 
BRANCH  27  28
ATOM     28  N   UNL     1      41.414   0.466   9.236  0.00  0.00    +0.000 NA
ATOM     29  C   UNL     1      41.082   0.212   7.869  0.00  0.00    +0.000 C 
ATOM     30  C   UNL     1      40.148  -0.942   7.672  0.00  0.00    +0.000 C 
ATOM     31  C   UNL     1      40.937  -2.179   8.041  0.00  0.00    +0.000 C 
ATOM     32  C   UNL     1      42.034  -1.896   8.994  0.00  0.00    +0.000 C 
ATOM     33  C   UNL     1      41.877  -0.697   9.856  0.00  0.00    +0.000 C 
ENDBRANCH  27  28
ENDBRANCH  25  27
ENDBRANCH  24  25
ENDBRANCH  11  24
TORSDOF 6
ENDMDL
MODEL 8
REMARK VINA RESULT:      -6.9      2.405      7.595
REMARK  Name = 
REMARK  6 active torsions:
REMARK  status: ('A' for Active; 'I' for Inactive)
REMARK    1  A    between atoms: C_9  and  C_10
REMARK    2  A    between atoms: C_16  and  C_17
REMARK    3  A    between atoms: N_23  and  C_24
REMARK    4  A    between atoms: C_24  and  C_25
REMARK    5  A    between atoms: C_25  and  C_27
REMARK    6  A    between atoms: C_27  and  N_28
REMARK                            x       y       z     vdW  Elec       q    Type
REMARK                         _______ _______ _______ _____ _____    ______ ____
ROOT
ATOM      1  C   UNL     1      43.819   6.509  14.033  0.00  0.00    +0.000 C 
ATOM      2  C   UNL     1      42.605   5.680  13.876  0.00  0.00    +0.000 A 
ATOM      3  C   UNL     1      42.491   4.777  12.864  0.00  0.00    +0.000 A 
ATOM      4  C   UNL     1      41.376   4.004  12.705  0.00  0.00    +0.000 A 
ATOM      5  C   UNL     1      41.391   3.038  11.617  0.00  0.00    +0.000 C 
ATOM      6  C   UNL     1      40.281   4.077  13.551  0.00  0.00    +0.000 A 
ATOM      7  C   UNL     1      40.402   4.996  14.578  0.00  0.00    +0.000 A 
ATOM      8  C   UNL     1      41.531   5.776  14.737  0.00  0.00    +0.000 A 
ATOM      9  C   UNL     1      39.248   4.926  15.329  0.00  0.00    +0.000 A 
ATOM     10  C   UNL     1      38.462   3.985  14.753  0.00  0.00    +0.000 A 
ATOM     11  N   UNL     1      39.102   3.469  13.660  0.00  0.00    +0.000 N 
ENDROOT
BRANCH   9  12
ATOM     12  C   UNL     1      38.949   5.724  16.516  0.00  0.00    +0.000 A 
ATOM     13  C   UNL     1      39.322   5.322  17.778  0.00  0.00    +0.000 A 
ATOM     14  C   UNL     1      39.021   6.112  18.900  0.00  0.00    +0.000 A 
ATOM     15  C   UNL     1      38.345   7.302  18.760  0.00  0.00    +0.000 A 
ATOM     16  C   UNL     1      37.971   7.705  17.503  0.00  0.00    +0.000 A 
ATOM     17  C   UNL     1      38.277   6.913  16.393  0.00  0.00    +0.000 A 
ENDBRANCH   9  12
BRANCH  10  18
ATOM     18  C   UNL     1      37.147   3.557  15.188  0.00  0.00    +0.000 A 
ATOM     19  C   UNL     1      36.049   4.047  14.516  0.00  0.00    +0.000 A 
ATOM     20  C   UNL     1      34.759   3.680  14.877  0.00  0.00    +0.000 A 
ATOM     21  C   UNL     1      34.548   2.808  15.926  0.00  0.00    +0.000 A 
ATOM     22  C   UNL     1      35.657   2.328  16.588  0.00  0.00    +0.000 A 
ATOM     23  C   UNL     1      36.949   2.692  16.230  0.00  0.00    +0.000 A 
ENDBRANCH  10  18
BRANCH  11  24
ATOM     24  C   UNL     1      38.588   2.422  12.816  0.00  0.00    +0.000 C 
BRANCH  24  25
ATOM     25  C   UNL     1      38.911   1.007  13.488  0.00  0.00    +0.000 C 
ATOM     26  O   UNL     1      37.565   0.482  13.615  0.00  0.00    +0.000 OA
BRANCH  25  27
ATOM     27  C   UNL     1      39.471   0.178  12.293  0.00  0.00    +0.000 C 
BRANCH  27  28
ATOM     28  N   UNL     1      40.453  -0.735  12.516  0.00  0.00    +0.000 NA
ATOM     29  C   UNL     1      40.040  -2.102  12.552  0.00  0.00    +0.000 C 
ATOM     30  C   UNL     1      39.438  -2.524  13.857  0.00  0.00    +0.000 C 
ATOM     31  C   UNL     1      40.573  -2.510  14.858  0.00  0.00    +0.000 C 
ATOM     32  C   UNL     1      41.659  -1.577  14.481  0.00  0.00    +0.000 C 
ATOM     33  C   UNL     1      41.286  -0.442  13.598  0.00  0.00    +0.000 C 
ENDBRANCH  27  28
ENDBRANCH  25  27
ENDBRANCH  24  25
ENDBRANCH  11  24
TORSDOF 6
ENDMDL
MODEL 9
REMARK VINA RESULT:      -6.9     25.524     29.620
REMARK  Name = 
REMARK  6 active torsions:
REMARK  status: ('A' for Active; 'I' for Inactive)
REMARK    1  A    between atoms: C_9  and  C_10
REMARK    2  A    between atoms: C_16  and  C_17
REMARK    3  A    between atoms: N_23  and  C_24
REMARK    4  A    between atoms: C_24  and  C_25
REMARK    5  A    between atoms: C_25  and  C_27
REMARK    6  A    between atoms: C_27  and  N_28
REMARK                            x       y       z     vdW  Elec       q    Type
REMARK                         _______ _______ _______ _____ _____    ______ ____
ROOT
ATOM      1  C   UNL     1      32.161  15.855  33.620  0.00  0.00    +0.000 C 
ATOM      2  C   UNL     1      31.294  15.894  34.815  0.00  0.00    +0.000 A 
ATOM      3  C   UNL     1      31.819  15.964  36.069  0.00  0.00    +0.000 A 
ATOM      4  C   UNL     1      31.031  16.000  37.185  0.00  0.00    +0.000 A 
ATOM      5  C   UNL     1      31.706  16.125  38.467  0.00  0.00    +0.000 C 
ATOM      6  C   UNL     1      29.647  15.968  37.131  0.00  0.00    +0.000 A 
ATOM      7  C   UNL     1      29.118  15.898  35.854  0.00  0.00    +0.000 A 
ATOM      8  C   UNL     1      29.917  15.862  34.728  0.00  0.00    +0.000 A 
ATOM      9  C   UNL     1      27.744  15.897  35.980  0.00  0.00    +0.000 A 
ATOM     10  C   UNL     1      27.472  15.962  37.304  0.00  0.00    +0.000 A 
ATOM     11  N   UNL     1      28.645  16.003  38.006  0.00  0.00    +0.000 N 
ENDROOT
BRANCH   9  12
ATOM     12  C   UNL     1      26.784  15.835  34.879  0.00  0.00    +0.000 A 
ATOM     13  C   UNL     1      26.417  14.643  34.299  0.00  0.00    +0.000 A 
ATOM     14  C   UNL     1      25.492  14.617  33.242  0.00  0.00    +0.000 A 
ATOM     15  C   UNL     1      24.936  15.781  32.765  0.00  0.00    +0.000 A 
ATOM     16  C   UNL     1      25.302  16.971  33.342  0.00  0.00    +0.000 A 
ATOM     17  C   UNL     1      26.222  16.987  34.393  0.00  0.00    +0.000 A 
ENDBRANCH   9  12
BRANCH  10  18
ATOM     18  C   UNL     1      26.163  15.988  37.929  0.00  0.00    +0.000 A 
ATOM     19  C   UNL     1      25.522  14.787  38.143  0.00  0.00    +0.000 A 
ATOM     20  C   UNL     1      24.268  14.736  38.736  0.00  0.00    +0.000 A 
ATOM     21  C   UNL     1      23.630  15.896  39.128  0.00  0.00    +0.000 A 
ATOM     22  C   UNL     1      24.286  17.087  38.907  0.00  0.00    +0.000 A 
ATOM     23  C   UNL     1      25.541  17.144  38.313  0.00  0.00    +0.000 A 
ENDBRANCH  10  18
BRANCH  11  24
ATOM     24  C   UNL     1      28.752  16.109  39.438  0.00  0.00    +0.000 C 
BRANCH  24  25
ATOM     25  C   UNL     1      28.640  14.646  40.077  0.00  0.00    +0.000 C 
ATOM     26  O   UNL     1      29.860  14.627  40.861  0.00  0.00    +0.000 OA
BRANCH  25  27
ATOM     27  C   UNL     1      27.551  14.833  41.176  0.00  0.00    +0.000 C 
BRANCH  27  28
ATOM     28  N   UNL     1      26.760  13.782  41.517  0.00  0.00    +0.000 NA
ATOM     29  C   UNL     1      26.867  13.332  42.870  0.00  0.00    +0.000 C 
ATOM     30  C   UNL     1      28.047  12.447  43.129  0.00  0.00    +0.000 C 
ATOM     31  C   UNL     1      27.767  11.159  42.388  0.00  0.00    +0.000 C 
ATOM     32  C   UNL     1      26.856  11.345  41.236  0.00  0.00    +0.000 C 
ATOM     33  C   UNL     1      26.812  12.701  40.633  0.00  0.00    +0.000 C 
ENDBRANCH  27  28
ENDBRANCH  25  27
ENDBRANCH  24  25
ENDBRANCH  11  24
TORSDOF 6
ENDMDL
MODEL 10
REMARK VINA RESULT:      -6.9     26.144     29.312
REMARK  Name = 
REMARK  6 active torsions:
REMARK  status: ('A' for Active; 'I' for Inactive)
REMARK    1  A    between atoms: C_9  and  C_10
REMARK    2  A    between atoms: C_16  and  C_17
REMARK    3  A    between atoms: N_23  and  C_24
REMARK    4  A    between atoms: C_24  and  C_25
REMARK    5  A    between atoms: C_25  and  C_27
REMARK    6  A    between atoms: C_27  and  N_28
REMARK                            x       y       z     vdW  Elec       q    Type
REMARK                         _______ _______ _______ _____ _____    ______ ____
ROOT
ATOM      1  C   UNL     1      22.760  15.093  39.871  0.00  0.00    +0.000 C 
ATOM      2  C   UNL     1      24.203  15.262  39.601  0.00  0.00    +0.000 A 
ATOM      3  C   UNL     1      25.117  15.265  40.610  0.00  0.00    +0.000 A 
ATOM      4  C   UNL     1      26.454  15.420  40.377  0.00  0.00    +0.000 A 
ATOM      5  C   UNL     1      27.338  15.355  41.530  0.00  0.00    +0.000 C 
ATOM      6  C   UNL     1      26.984  15.587  39.107  0.00  0.00    +0.000 A 
ATOM      7  C   UNL     1      26.051  15.582  38.085  0.00  0.00    +0.000 A 
ATOM      8  C   UNL     1      24.700  15.425  38.323  0.00  0.00    +0.000 A 
ATOM      9  C   UNL     1      26.741  15.736  36.900  0.00  0.00    +0.000 A 
ATOM     10  C   UNL     1      28.053  15.831  37.221  0.00  0.00    +0.000 A 
ATOM     11  N   UNL     1      28.195  15.741  38.578  0.00  0.00    +0.000 N 
ENDROOT
BRANCH   9  12
ATOM     12  C   UNL     1      26.148  15.785  35.565  0.00  0.00    +0.000 A 
ATOM     13  C   UNL     1      25.586  16.935  35.059  0.00  0.00    +0.000 A 
ATOM     14  C   UNL     1      25.024  16.950  33.772  0.00  0.00    +0.000 A 
ATOM     15  C   UNL     1      25.022  15.817  32.992  0.00  0.00    +0.000 A 
ATOM     16  C   UNL     1      25.581  14.669  33.495  0.00  0.00    +0.000 A 
ATOM     17  C   UNL     1      26.139  14.664  34.776  0.00  0.00    +0.000 A 
ENDBRANCH   9  12
BRANCH  10  18
ATOM     18  C   UNL     1      29.167  16.001  36.308  0.00  0.00    +0.000 A 
ATOM     19  C   UNL     1      29.732  14.872  35.756  0.00  0.00    +0.000 A 
ATOM     20  C   UNL     1      30.801  14.959  34.874  0.00  0.00    +0.000 A 
ATOM     21  C   UNL     1      31.326  16.188  34.529  0.00  0.00    +0.000 A 
ATOM     22  C   UNL     1      30.749  17.306  35.090  0.00  0.00    +0.000 A 
ATOM     23  C   UNL     1      29.679  17.225  35.973  0.00  0.00    +0.000 A 
ENDBRANCH  10  18
BRANCH  11  24
ATOM     24  C   UNL     1      29.449  15.768  39.284  0.00  0.00    +0.000 C 
BRANCH  24  25
ATOM     25  C   UNL     1      30.100  14.307  39.243  0.00  0.00    +0.000 C 
ATOM     26  O   UNL     1      31.399  14.632  38.684  0.00  0.00    +0.000 OA
BRANCH  25  27
ATOM     27  C   UNL     1      30.448  14.043  40.739  0.00  0.00    +0.000 C 
BRANCH  27  28
ATOM     28  N   UNL     1      29.967  12.927  41.349  0.00  0.00    +0.000 NA
ATOM     29  C   UNL     1      30.941  12.085  41.969  0.00  0.00    +0.000 C 
ATOM     30  C   UNL     1      31.661  11.179  41.018  0.00  0.00    +0.000 C 
ATOM     31  C   UNL     1      30.632  10.177  40.544  0.00  0.00    +0.000 C 
ATOM     32  C   UNL     1      29.247  10.696  40.620  0.00  0.00    +0.000 C 
ATOM     33  C   UNL     1      29.085  12.172  40.572  0.00  0.00    +0.000 C 
ENDBRANCH  27  28
ENDBRANCH  25  27
ENDBRANCH  24  25
ENDBRANCH  11  24
TORSDOF 6
ENDMDL
