MODEL 1
REMARK VINA RESULT:      -8.9      0.000      0.000
REMARK  Name = 
REMARK  2 active torsions:
REMARK  status: ('A' for Active; 'I' for Inactive)
REMARK    1  A    between atoms: C_5  and  C_6
REMARK    2  A    between atoms: C_6  and  C_8
REMARK                            x       y       z     vdW  Elec       q    Type
REMARK                         _______ _______ _______ _____ _____    ______ ____
ROOT
ATOM      1  C   UNL     1      16.232  11.123  35.107  0.00  0.00    +0.000 A 
ATOM      2  N   UNL     1      15.521  11.935  35.904  0.00  0.00    +0.000 NA
ATOM      3  N   UNL     1      14.694  12.869  35.495  0.00  0.00    +0.000 NA
ATOM      4  C   UNL     1      14.527  13.049  34.174  0.00  0.00    +0.000 A 
ATOM      5  C   UNL     1      13.658  14.034  33.746  0.00  0.00    +0.000 A 
ATOM      6  C   UNL     1      12.918  14.879  34.725  0.00  0.00    +0.000 C 
ATOM      7  C   UNL     1      13.512  14.194  32.385  0.00  0.00    +0.000 A 
ATOM      8  C   UNL     1      14.210  13.395  31.469  0.00  0.00    +0.000 A 
ATOM      9  C   UNL     1      15.066  12.425  31.937  0.00  0.00    +0.000 A 
ATOM     10  C   UNL     1      15.840  11.543  30.995  0.00  0.00    +0.000 C 
ATOM     11  C   UNL     1      15.225  12.253  33.299  0.00  0.00    +0.000 A 
ATOM     12  C   UNL     1      16.094  11.271  33.752  0.00  0.00    +0.000 A 
ATOM     13  N   UNL     1      16.833  10.426  32.875  0.00  0.00    +0.000 NA
ENDROOT
BRANCH   1  14
ATOM     14  C   UNL     1      17.109  10.137  35.674  0.00  0.00    +0.000 C 
ATOM     15  O   UNL     1      16.880   8.899  35.438  0.00  0.00    +0.000 OA
BRANCH  14  20
ATOM     16  C   UNL     1      21.760  11.074  38.907  0.00  0.00    +0.000 C 
ATOM     17  C   UNL     1      20.553  10.829  38.065  0.00  0.00    +0.000 A 
ATOM     18  C   UNL     1      19.382  11.502  38.315  0.00  0.00    +0.000 A 
ATOM     19  C   UNL     1      18.238  11.300  37.552  0.00  0.00    +0.000 A 
ATOM     20  C   UNL     1      18.260  10.401  36.508  0.00  0.00    +0.000 A 
ATOM     21  C   UNL     1      19.431   9.723  36.253  0.00  0.00    +0.000 A 
ATOM     22  C   UNL     1      20.568   9.928  37.015  0.00  0.00    +0.000 A 
ENDBRANCH  14  20
ENDBRANCH   1  14
TORSDOF 2
ENDMDL
MODEL 2
REMARK VINA RESULT:      -8.2     21.443     22.508
REMARK  Name = 
REMARK  2 active torsions:
REMARK  status: ('A' for Active; 'I' for Inactive)
REMARK    1  A    between atoms: C_5  and  C_6
REMARK    2  A    between atoms: C_6  and  C_8
REMARK                            x       y       z     vdW  Elec       q    Type
REMARK                         _______ _______ _______ _____ _____    ______ ____
ROOT
ATOM      1  C   UNL     1      28.673  24.782  22.010  0.00  0.00    +0.000 A 
ATOM      2  N   UNL     1      29.462  24.586  20.942  0.00  0.00    +0.000 NA
ATOM      3  N   UNL     1      29.841  25.515  20.096  0.00  0.00    +0.000 NA
ATOM      4  C   UNL     1      29.418  26.775  20.289  0.00  0.00    +0.000 A 
ATOM      5  C   UNL     1      29.816  27.751  19.395  0.00  0.00    +0.000 A 
ATOM      6  C   UNL     1      30.698  27.416  18.242  0.00  0.00    +0.000 C 
ATOM      7  C   UNL     1      29.362  29.032  19.621  0.00  0.00    +0.000 A 
ATOM      8  C   UNL     1      28.533  29.340  20.709  0.00  0.00    +0.000 A 
ATOM      9  C   UNL     1      28.159  28.339  21.576  0.00  0.00    +0.000 A 
ATOM     10  C   UNL     1      27.270  28.617  22.757  0.00  0.00    +0.000 C 
ATOM     11  C   UNL     1      28.605  27.049  21.363  0.00  0.00    +0.000 A 
ATOM     12  C   UNL     1      28.216  26.052  22.246  0.00  0.00    +0.000 A 
ATOM     13  N   UNL     1      27.377  26.298  23.370  0.00  0.00    +0.000 NA
ENDROOT
BRANCH   1  14
ATOM     14  C   UNL     1      28.324  23.682  22.865  0.00  0.00    +0.000 C 
ATOM     15  O   UNL     1      27.293  22.979  22.575  0.00  0.00    +0.000 OA
BRANCH  14  20
ATOM     16  C   UNL     1      31.007  22.035  27.666  0.00  0.00    +0.000 C 
ATOM     17  C   UNL     1      30.308  22.462  26.419  0.00  0.00    +0.000 A 
ATOM     18  C   UNL     1      31.027  22.809  25.302  0.00  0.00    +0.000 A 
ATOM     19  C   UNL     1      30.410  23.212  24.123  0.00  0.00    +0.000 A 
ATOM     20  C   UNL     1      29.035  23.271  24.054  0.00  0.00    +0.000 A 
ATOM     21  C   UNL     1      28.308  22.923  25.172  0.00  0.00    +0.000 A 
ATOM     22  C   UNL     1      28.927  22.523  26.343  0.00  0.00    +0.000 A 
ENDBRANCH  14  20
ENDBRANCH   1  14
TORSDOF 2
ENDMDL
MODEL 3
REMARK VINA RESULT:      -8.0      2.950      3.470
REMARK  Name = 
REMARK  2 active torsions:
REMARK  status: ('A' for Active; 'I' for Inactive)
REMARK    1  A    between atoms: C_5  and  C_6
REMARK    2  A    between atoms: C_6  and  C_8
REMARK                            x       y       z     vdW  Elec       q    Type
REMARK                         _______ _______ _______ _____ _____    ______ ____
ROOT
ATOM      1  C   UNL     1      17.270  11.179  37.335  0.00  0.00    +0.000 A 
ATOM      2  N   UNL     1      16.304  12.069  37.616  0.00  0.00    +0.000 NA
ATOM      3  N   UNL     1      15.466  12.580  36.744  0.00  0.00    +0.000 NA
ATOM      4  C   UNL     1      15.559  12.201  35.459  0.00  0.00    +0.000 A 
ATOM      5  C   UNL     1      14.677  12.742  34.544  0.00  0.00    +0.000 A 
ATOM      6  C   UNL     1      13.641  13.724  34.971  0.00  0.00    +0.000 C 
ATOM      7  C   UNL     1      14.801  12.333  33.234  0.00  0.00    +0.000 A 
ATOM      8  C   UNL     1      15.777  11.408  32.840  0.00  0.00    +0.000 A 
ATOM      9  C   UNL     1      16.637  10.892  33.783  0.00  0.00    +0.000 A 
ATOM     10  C   UNL     1      17.703   9.897  33.410  0.00  0.00    +0.000 C 
ATOM     11  C   UNL     1      16.525  11.293  35.100  0.00  0.00    +0.000 A 
ATOM     12  C   UNL     1      17.403  10.764  36.037  0.00  0.00    +0.000 A 
ATOM     13  N   UNL     1      18.416   9.821  35.702  0.00  0.00    +0.000 NA
ENDROOT
BRANCH   1  14
ATOM     14  C   UNL     1      18.131  10.692  38.376  0.00  0.00    +0.000 C 
ATOM     15  O   UNL     1      19.229  11.310  38.608  0.00  0.00    +0.000 OA
BRANCH  14  20
ATOM     16  C   UNL     1      17.265   6.052  41.646  0.00  0.00    +0.000 C 
ATOM     17  C   UNL     1      17.492   7.257  40.796  0.00  0.00    +0.000 A 
ATOM     18  C   UNL     1      16.664   8.348  40.898  0.00  0.00    +0.000 A 
ATOM     19  C   UNL     1      16.844   9.487  40.123  0.00  0.00    +0.000 A 
ATOM     20  C   UNL     1      17.883   9.543  39.218  0.00  0.00    +0.000 A 
ATOM     21  C   UNL     1      18.717   8.452  39.111  0.00  0.00    +0.000 A 
ATOM     22  C   UNL     1      18.533   7.321  39.885  0.00  0.00    +0.000 A 
ENDBRANCH  14  20
ENDBRANCH   1  14
TORSDOF 2
ENDMDL
MODEL 4
REMARK VINA RESULT:      -7.7      2.875      7.849
REMARK  Name = 
REMARK  2 active torsions:
REMARK  status: ('A' for Active; 'I' for Inactive)
REMARK    1  A    between atoms: C_5  and  C_6
REMARK    2  A    between atoms: C_6  and  C_8
REMARK                            x       y       z     vdW  Elec       q    Type
REMARK                         _______ _______ _______ _____ _____    ______ ____
ROOT
ATOM      1  C   UNL     1      20.241  10.241  37.175  0.00  0.00    +0.000 A 
ATOM      2  N   UNL     1      21.174   9.555  36.496  0.00  0.00    +0.000 NA
ATOM      3  N   UNL     1      22.458   9.829  36.481  0.00  0.00    +0.000 NA
ATOM      4  C   UNL     1      22.903  10.877  37.194  0.00  0.00    +0.000 A 
ATOM      5  C   UNL     1      24.254  11.165  37.174  0.00  0.00    +0.000 A 
ATOM      6  C   UNL     1      25.201  10.331  36.383  0.00  0.00    +0.000 C 
ATOM      7  C   UNL     1      24.676  12.248  37.915  0.00  0.00    +0.000 A 
ATOM      8  C   UNL     1      23.780  13.028  38.658  0.00  0.00    +0.000 A 
ATOM      9  C   UNL     1      22.441  12.708  38.651  0.00  0.00    +0.000 A 
ATOM     10  C   UNL     1      21.439  13.514  39.431  0.00  0.00    +0.000 C 
ATOM     11  C   UNL     1      22.002  11.625  37.913  0.00  0.00    +0.000 A 
ATOM     12  C   UNL     1      20.649  11.319  37.916  0.00  0.00    +0.000 A 
ATOM     13  N   UNL     1      19.687  12.070  38.649  0.00  0.00    +0.000 NA
ENDROOT
BRANCH   1  14
ATOM     14  C   UNL     1      18.862   9.845  37.112  0.00  0.00    +0.000 C 
ATOM     15  O   UNL     1      18.416   9.022  37.986  0.00  0.00    +0.000 OA
BRANCH  14  20
ATOM     16  C   UNL     1      15.092  11.538  33.126  0.00  0.00    +0.000 C 
ATOM     17  C   UNL     1      16.072  11.097  34.161  0.00  0.00    +0.000 A 
ATOM     18  C   UNL     1      15.968  11.544  35.455  0.00  0.00    +0.000 A 
ATOM     19  C   UNL     1      16.863  11.155  36.444  0.00  0.00    +0.000 A 
ATOM     20  C   UNL     1      17.893  10.292  36.137  0.00  0.00    +0.000 A 
ATOM     21  C   UNL     1      18.002   9.839  34.840  0.00  0.00    +0.000 A 
ATOM     22  C   UNL     1      17.109  10.230  33.859  0.00  0.00    +0.000 A 
ENDBRANCH  14  20
ENDBRANCH   1  14
TORSDOF 2
ENDMDL
MODEL 5
REMARK VINA RESULT:      -7.6     18.509     19.963
REMARK  Name = 
REMARK  2 active torsions:
REMARK  status: ('A' for Active; 'I' for Inactive)
REMARK    1  A    between atoms: C_5  and  C_6
REMARK    2  A    between atoms: C_6  and  C_8
REMARK                            x       y       z     vdW  Elec       q    Type
REMARK                         _______ _______ _______ _____ _____    ______ ____
ROOT
ATOM      1  C   UNL     1      26.559  23.603  24.897  0.00  0.00    +0.000 A 
ATOM      2  N   UNL     1      27.378  22.761  25.546  0.00  0.00    +0.000 NA
ATOM      3  N   UNL     1      27.480  22.654  26.851  0.00  0.00    +0.000 NA
ATOM      4  C   UNL     1      26.714  23.441  27.624  0.00  0.00    +0.000 A 
ATOM      5  C   UNL     1      26.825  23.328  28.997  0.00  0.00    +0.000 A 
ATOM      6  C   UNL     1      27.771  22.353  29.609  0.00  0.00    +0.000 C 
ATOM      7  C   UNL     1      26.027  24.152  29.761  0.00  0.00    +0.000 A 
ATOM      8  C   UNL     1      25.139  25.066  29.178  0.00  0.00    +0.000 A 
ATOM      9  C   UNL     1      25.059  25.147  27.807  0.00  0.00    +0.000 A 
ATOM     10  C   UNL     1      24.122  26.113  27.133  0.00  0.00    +0.000 C 
ATOM     11  C   UNL     1      25.853  24.329  27.027  0.00  0.00    +0.000 A 
ATOM     12  C   UNL     1      25.760  24.426  25.645  0.00  0.00    +0.000 A 
ATOM     13  N   UNL     1      24.879  25.333  24.991  0.00  0.00    +0.000 NA
ENDROOT
BRANCH   1  14
ATOM     14  C   UNL     1      26.538  23.631  23.461  0.00  0.00    +0.000 C 
ATOM     15  O   UNL     1      25.697  22.889  22.842  0.00  0.00    +0.000 OA
BRANCH  14  20
ATOM     16  C   UNL     1      29.825  26.939  20.111  0.00  0.00    +0.000 C 
ATOM     17  C   UNL     1      28.970  26.081  20.982  0.00  0.00    +0.000 A 
ATOM     18  C   UNL     1      29.296  24.764  21.200  0.00  0.00    +0.000 A 
ATOM     19  C   UNL     1      28.524  23.936  22.004  0.00  0.00    +0.000 A 
ATOM     20  C   UNL     1      27.391  24.433  22.613  0.00  0.00    +0.000 A 
ATOM     21  C   UNL     1      27.059  25.752  22.399  0.00  0.00    +0.000 A 
ATOM     22  C   UNL     1      27.831  26.573  21.596  0.00  0.00    +0.000 A 
ENDBRANCH  14  20
ENDBRANCH   1  14
TORSDOF 2
ENDMDL
MODEL 6
REMARK VINA RESULT:      -7.5     20.746     22.264
REMARK  Name = 
REMARK  2 active torsions:
REMARK  status: ('A' for Active; 'I' for Inactive)
REMARK    1  A    between atoms: C_5  and  C_6
REMARK    2  A    between atoms: C_6  and  C_8
REMARK                            x       y       z     vdW  Elec       q    Type
REMARK                         _______ _______ _______ _____ _____    ______ ____
ROOT
ATOM      1  C   UNL     1      29.513  24.297  23.081  0.00  0.00    +0.000 A 
ATOM      2  N   UNL     1      30.665  24.062  23.729  0.00  0.00    +0.000 NA
ATOM      3  N   UNL     1      30.772  23.479  24.901  0.00  0.00    +0.000 NA
ATOM      4  C   UNL     1      29.653  23.077  25.526  0.00  0.00    +0.000 A 
ATOM      5  C   UNL     1      29.768  22.467  26.760  0.00  0.00    +0.000 A 
ATOM      6  C   UNL     1      31.103  22.256  27.386  0.00  0.00    +0.000 C 
ATOM      7  C   UNL     1      28.601  22.068  27.375  0.00  0.00    +0.000 A 
ATOM      8  C   UNL     1      27.348  22.269  26.780  0.00  0.00    +0.000 A 
ATOM      9  C   UNL     1      27.277  22.881  25.549  0.00  0.00    +0.000 A 
ATOM     10  C   UNL     1      25.956  23.121  24.869  0.00  0.00    +0.000 C 
ATOM     11  C   UNL     1      28.438  23.287  24.920  0.00  0.00    +0.000 A 
ATOM     12  C   UNL     1      28.347  23.904  23.681  0.00  0.00    +0.000 A 
ATOM     13  N   UNL     1      27.106  24.138  23.022  0.00  0.00    +0.000 NA
ENDROOT
BRANCH   1  14
ATOM     14  C   UNL     1      29.523  24.946  21.800  0.00  0.00    +0.000 C 
ATOM     15  O   UNL     1      29.619  24.226  20.744  0.00  0.00    +0.000 OA
BRANCH  14  20
ATOM     16  C   UNL     1      29.199  30.576  20.721  0.00  0.00    +0.000 C 
ATOM     17  C   UNL     1      29.283  29.113  20.999  0.00  0.00    +0.000 A 
ATOM     18  C   UNL     1      29.108  28.635  22.275  0.00  0.00    +0.000 A 
ATOM     19  C   UNL     1      29.180  27.279  22.571  0.00  0.00    +0.000 A 
ATOM     20  C   UNL     1      29.432  26.370  21.567  0.00  0.00    +0.000 A 
ATOM     21  C   UNL     1      29.608  26.843  20.285  0.00  0.00    +0.000 A 
ATOM     22  C   UNL     1      29.536  28.194  19.995  0.00  0.00    +0.000 A 
ENDBRANCH  14  20
ENDBRANCH   1  14
TORSDOF 2
ENDMDL
MODEL 7
REMARK VINA RESULT:      -7.4      5.234      7.759
REMARK  Name = 
REMARK  2 active torsions:
REMARK  status: ('A' for Active; 'I' for Inactive)
REMARK    1  A    between atoms: C_5  and  C_6
REMARK    2  A    between atoms: C_6  and  C_8
REMARK                            x       y       z     vdW  Elec       q    Type
REMARK                         _______ _______ _______ _____ _____    ______ ____
ROOT
ATOM      1  C   UNL     1      20.106  10.492  37.551  0.00  0.00    +0.000 A 
ATOM      2  N   UNL     1      20.891   9.703  36.800  0.00  0.00    +0.000 NA
ATOM      3  N   UNL     1      22.173   9.892  36.583  0.00  0.00    +0.000 NA
ATOM      4  C   UNL     1      22.773  10.954  37.145  0.00  0.00    +0.000 A 
ATOM      5  C   UNL     1      24.120  11.151  36.913  0.00  0.00    +0.000 A 
ATOM      6  C   UNL     1      24.895  10.206  36.060  0.00  0.00    +0.000 C 
ATOM      7  C   UNL     1      24.705  12.251  37.502  0.00  0.00    +0.000 A 
ATOM      8  C   UNL     1      23.970  13.136  38.304  0.00  0.00    +0.000 A 
ATOM      9  C   UNL     1      22.629  12.903  38.511  0.00  0.00    +0.000 A 
ATOM     10  C   UNL     1      21.797  13.824  39.362  0.00  0.00    +0.000 C 
ATOM     11  C   UNL     1      22.029  11.805  37.926  0.00  0.00    +0.000 A 
ATOM     12  C   UNL     1      20.676  11.588  38.143  0.00  0.00    +0.000 A 
ATOM     13  N   UNL     1      19.873  12.447  38.947  0.00  0.00    +0.000 NA
ENDROOT
BRANCH   1  14
ATOM     14  C   UNL     1      18.713  10.183  37.714  0.00  0.00    +0.000 C 
ATOM     15  O   UNL     1      17.890  10.552  36.804  0.00  0.00    +0.000 OA
BRANCH  14  20
ATOM     16  C   UNL     1      16.475   7.268  42.125  0.00  0.00    +0.000 C 
ATOM     17  C   UNL     1      17.058   8.024  40.979  0.00  0.00    +0.000 A 
ATOM     18  C   UNL     1      16.486   9.200  40.556  0.00  0.00    +0.000 A 
ATOM     19  C   UNL     1      17.002   9.930  39.493  0.00  0.00    +0.000 A 
ATOM     20  C   UNL     1      18.122   9.479  38.829  0.00  0.00    +0.000 A 
ATOM     21  C   UNL     1      18.700   8.301  39.248  0.00  0.00    +0.000 A 
ATOM     22  C   UNL     1      18.183   7.576  40.307  0.00  0.00    +0.000 A 
ENDBRANCH  14  20
ENDBRANCH   1  14
TORSDOF 2
ENDMDL
MODEL 8
REMARK VINA RESULT:      -7.3      3.183      7.565
REMARK  Name = 
REMARK  2 active torsions:
REMARK  status: ('A' for Active; 'I' for Inactive)
REMARK    1  A    between atoms: C_5  and  C_6
REMARK    2  A    between atoms: C_6  and  C_8
REMARK                            x       y       z     vdW  Elec       q    Type
REMARK                         _______ _______ _______ _____ _____    ______ ____
ROOT
ATOM      1  C   UNL     1      17.637  10.878  37.749  0.00  0.00    +0.000 A 
ATOM      2  N   UNL     1      18.930  10.519  37.725  0.00  0.00    +0.000 NA
ATOM      3  N   UNL     1      19.508   9.702  38.575  0.00  0.00    +0.000 NA
ATOM      4  C   UNL     1      18.768   9.169  39.562  0.00  0.00    +0.000 A 
ATOM      5  C   UNL     1      19.379   8.311  40.457  0.00  0.00    +0.000 A 
ATOM      6  C   UNL     1      20.826   7.981  40.332  0.00  0.00    +0.000 C 
ATOM      7  C   UNL     1      18.592   7.784  41.457  0.00  0.00    +0.000 A 
ATOM      8  C   UNL     1      17.230   8.098  41.569  0.00  0.00    +0.000 A 
ATOM      9  C   UNL     1      16.660   8.956  40.656  0.00  0.00    +0.000 A 
ATOM     10  C   UNL     1      15.204   9.327  40.733  0.00  0.00    +0.000 C 
ATOM     11  C   UNL     1      17.436   9.494  39.647  0.00  0.00    +0.000 A 
ATOM     12  C   UNL     1      16.845  10.360  38.738  0.00  0.00    +0.000 A 
ATOM     13  N   UNL     1      15.468  10.719  38.795  0.00  0.00    +0.000 NA
ENDROOT
BRANCH   1  14
ATOM     14  C   UNL     1      17.119  11.785  36.762  0.00  0.00    +0.000 C 
ATOM     15  O   UNL     1      16.973  13.019  37.075  0.00  0.00    +0.000 OA
BRANCH  14  20
ATOM     16  C   UNL     1      15.456  10.514  31.416  0.00  0.00    +0.000 C 
ATOM     17  C   UNL     1      15.887  10.846  32.805  0.00  0.00    +0.000 A 
ATOM     18  C   UNL     1      17.026  10.290  33.333  0.00  0.00    +0.000 A 
ATOM     19  C   UNL     1      17.458  10.575  34.622  0.00  0.00    +0.000 A 
ATOM     20  C   UNL     1      16.734  11.442  35.412  0.00  0.00    +0.000 A 
ATOM     21  C   UNL     1      15.590  12.004  34.888  0.00  0.00    +0.000 A 
ATOM     22  C   UNL     1      15.164  11.716  33.604  0.00  0.00    +0.000 A 
ENDBRANCH  14  20
ENDBRANCH   1  14
TORSDOF 2
ENDMDL
MODEL 9
REMARK VINA RESULT:      -7.3     19.669     21.137
REMARK  Name = 
REMARK  2 active torsions:
REMARK  status: ('A' for Active; 'I' for Inactive)
REMARK    1  A    between atoms: C_5  and  C_6
REMARK    2  A    between atoms: C_6  and  C_8
REMARK                            x       y       z     vdW  Elec       q    Type
REMARK                         _______ _______ _______ _____ _____    ______ ____
ROOT
ATOM      1  C   UNL     1      27.226  24.034  23.829  0.00  0.00    +0.000 A 
ATOM      2  N   UNL     1      26.192  24.429  24.588  0.00  0.00    +0.000 NA
ATOM      3  N   UNL     1      26.094  24.262  25.887  0.00  0.00    +0.000 NA
ATOM      4  C   UNL     1      27.097  23.648  26.536  0.00  0.00    +0.000 A 
ATOM      5  C   UNL     1      26.991  23.472  27.902  0.00  0.00    +0.000 A 
ATOM      6  C   UNL     1      25.792  23.954  28.643  0.00  0.00    +0.000 C 
ATOM      7  C   UNL     1      28.037  22.836  28.536  0.00  0.00    +0.000 A 
ATOM      8  C   UNL     1      29.162  22.386  27.832  0.00  0.00    +0.000 A 
ATOM      9  C   UNL     1      29.229  22.582  26.472  0.00  0.00    +0.000 A 
ATOM     10  C   UNL     1      30.415  22.116  25.671  0.00  0.00    +0.000 C 
ATOM     11  C   UNL     1      28.189  23.216  25.821  0.00  0.00    +0.000 A 
ATOM     12  C   UNL     1      28.272  23.402  24.448  0.00  0.00    +0.000 A 
ATOM     13  N   UNL     1      29.387  22.969  23.675  0.00  0.00    +0.000 NA
ENDROOT
BRANCH   1  14
ATOM     14  C   UNL     1      27.218  24.271  22.413  0.00  0.00    +0.000 C 
ATOM     15  O   UNL     1      26.569  23.465  21.657  0.00  0.00    +0.000 OA
BRANCH  14  20
ATOM     16  C   UNL     1      29.741  28.676  19.731  0.00  0.00    +0.000 C 
ATOM     17  C   UNL     1      29.084  27.533  20.429  0.00  0.00    +0.000 A 
ATOM     18  C   UNL     1      29.650  26.282  20.402  0.00  0.00    +0.000 A 
ATOM     19  C   UNL     1      29.067  25.193  21.039  0.00  0.00    +0.000 A 
ATOM     20  C   UNL     1      27.884  25.355  21.728  0.00  0.00    +0.000 A 
ATOM     21  C   UNL     1      27.311  26.608  21.759  0.00  0.00    +0.000 A 
ATOM     22  C   UNL     1      27.896  27.688  21.122  0.00  0.00    +0.000 A 
ENDBRANCH  14  20
ENDBRANCH   1  14
TORSDOF 2
ENDMDL
MODEL 10
REMARK VINA RESULT:      -7.3     18.505     19.834
REMARK  Name = 
REMARK  2 active torsions:
REMARK  status: ('A' for Active; 'I' for Inactive)
REMARK    1  A    between atoms: C_5  and  C_6
REMARK    2  A    between atoms: C_6  and  C_8
REMARK                            x       y       z     vdW  Elec       q    Type
REMARK                         _______ _______ _______ _____ _____    ______ ____
ROOT
ATOM      1  C   UNL     1      25.995  24.212  25.004  0.00  0.00    +0.000 A 
ATOM      2  N   UNL     1      25.085  25.155  25.293  0.00  0.00    +0.000 NA
ATOM      3  N   UNL     1      24.744  25.537  26.502  0.00  0.00    +0.000 NA
ATOM      4  C   UNL     1      25.338  24.952  27.555  0.00  0.00    +0.000 A 
ATOM      5  C   UNL     1      24.976  25.354  28.826  0.00  0.00    +0.000 A 
ATOM      6  C   UNL     1      23.950  26.416  29.027  0.00  0.00    +0.000 C 
ATOM      7  C   UNL     1      25.603  24.732  29.884  0.00  0.00    +0.000 A 
ATOM      8  C   UNL     1      26.568  23.735  29.687  0.00  0.00    +0.000 A 
ATOM      9  C   UNL     1      26.900  23.363  28.404  0.00  0.00    +0.000 A 
ATOM     10  C   UNL     1      27.929  22.297  28.139  0.00  0.00    +0.000 C 
ATOM     11  C   UNL     1      26.280  23.977  27.333  0.00  0.00    +0.000 A 
ATOM     12  C   UNL     1      26.626  23.587  26.046  0.00  0.00    +0.000 A 
ATOM     13  N   UNL     1      27.598  22.581  25.778  0.00  0.00    +0.000 NA
ENDROOT
BRANCH   1  14
ATOM     14  C   UNL     1      26.283  23.877  23.637  0.00  0.00    +0.000 C 
ATOM     15  O   UNL     1      25.692  22.868  23.112  0.00  0.00    +0.000 OA
BRANCH  14  20
ATOM     16  C   UNL     1      29.817  26.800  20.183  0.00  0.00    +0.000 C 
ATOM     17  C   UNL     1      28.897  26.042  21.081  0.00  0.00    +0.000 A 
ATOM     18  C   UNL     1      29.092  24.701  21.306  0.00  0.00    +0.000 A 
ATOM     19  C   UNL     1      28.256  23.963  22.135  0.00  0.00    +0.000 A 
ATOM     20  C   UNL     1      27.194  24.579  22.762  0.00  0.00    +0.000 A 
ATOM     21  C   UNL     1      26.995  25.924  22.541  0.00  0.00    +0.000 A 
ATOM     22  C   UNL     1      27.829  26.654  21.714  0.00  0.00    +0.000 A 
ENDBRANCH  14  20
ENDBRANCH   1  14
TORSDOF 2
ENDMDL
