MODEL 1
REMARK VINA RESULT:      -7.7      0.000      0.000
REMARK  Name = 
REMARK  4 active torsions:
REMARK  status: ('A' for Active; 'I' for Inactive)
REMARK    1  A    between atoms: C_3  and  C_4
REMARK    2  A    between atoms: N_6  and  C_7
REMARK    3  A    between atoms: C_12  and  C_13
REMARK    4  A    between atoms: C_19  and  N_20
REMARK                            x       y       z     vdW  Elec       q    Type
REMARK                         _______ _______ _______ _____ _____    ______ ____
ROOT
ATOM      1  C   UNL     1      15.668  12.337  35.964  0.00  0.00    +0.000 C 
ATOM      2  O   UNL     1      16.340  13.146  36.634  0.00  0.00    +0.000 OA
ATOM      3  N   UNL     1      15.532  10.976  36.322  0.00  0.00    +0.000 NA
ENDROOT
BRANCH   1   6
ATOM      4  C   UNL     1      16.446  11.276  33.526  0.00  0.00    +0.000 C 
ATOM      5  C   UNL     1      15.369  12.297  33.522  0.00  0.00    +0.000 A 
ATOM      6  C   UNL     1      14.971  12.807  34.759  0.00  0.00    +0.000 A 
ATOM      7  C   UNL     1      13.984  13.755  34.797  0.00  0.00    +0.000 A 
ATOM      8  C   UNL     1      13.430  14.181  33.606  0.00  0.00    +0.000 A 
ATOM      9  C   UNL     1      13.822  13.693  32.381  0.00  0.00    +0.000 A 
ATOM     10  C   UNL     1      14.792  12.746  32.341  0.00  0.00    +0.000 A 
BRANCH  10  11
ATOM     11  N   UNL     1      15.237  12.242  31.082  0.00  0.00    +0.000 N 
ATOM     12  O   UNL     1      14.614  11.340  30.564  0.00  0.00    +0.000 OA
ATOM     13  O   UNL     1      16.344  12.791  30.515  0.00  0.00    +0.000 OA
ENDBRANCH  10  11
ENDBRANCH   1   6
BRANCH   3  14
ATOM     14  C   UNL     1      16.172  10.520  37.526  0.00  0.00    +0.000 A 
ATOM     15  C   UNL     1      15.620  10.629  38.782  0.00  0.00    +0.000 A 
ATOM     16  C   UNL     1      16.331  10.068  39.862  0.00  0.00    +0.000 A 
ATOM     17  C   UNL     1      17.530   9.434  39.657  0.00  0.00    +0.000 A 
ATOM     18  C   UNL     1      18.123   9.303  38.389  0.00  0.00    +0.000 A 
ATOM     19  C   UNL     1      17.366   9.886  37.363  0.00  0.00    +0.000 A 
BRANCH  19  20
ATOM     20  C   UNL     1      17.999   9.913  36.003  0.00  0.00    +0.000 C 
ATOM     21  C   UNL     1      17.744   8.599  35.247  0.00  0.00    +0.000 C 
ATOM     22  C   UNL     1      19.551   9.888  36.241  0.00  0.00    +0.000 C 
ENDBRANCH  19  20
ENDBRANCH   3  14
TORSDOF 4
ENDMDL
MODEL 2
REMARK VINA RESULT:      -7.0     18.053     20.202
REMARK  Name = 
REMARK  4 active torsions:
REMARK  status: ('A' for Active; 'I' for Inactive)
REMARK    1  A    between atoms: C_3  and  C_4
REMARK    2  A    between atoms: N_6  and  C_7
REMARK    3  A    between atoms: C_12  and  C_13
REMARK    4  A    between atoms: C_19  and  N_20
REMARK                            x       y       z     vdW  Elec       q    Type
REMARK                         _______ _______ _______ _____ _____    ______ ____
ROOT
ATOM      1  C   UNL     1      28.768  24.145  26.508  0.00  0.00    +0.000 C 
ATOM      2  O   UNL     1      28.853  25.381  26.369  0.00  0.00    +0.000 OA
ATOM      3  N   UNL     1      28.629  23.260  25.414  0.00  0.00    +0.000 NA
ENDROOT
BRANCH   1   6
ATOM      4  C   UNL     1      26.383  23.835  27.885  0.00  0.00    +0.000 C 
ATOM      5  C   UNL     1      27.634  23.427  28.571  0.00  0.00    +0.000 A 
ATOM      6  C   UNL     1      28.825  23.567  27.859  0.00  0.00    +0.000 A 
ATOM      7  C   UNL     1      30.002  23.209  28.460  0.00  0.00    +0.000 A 
ATOM      8  C   UNL     1      29.965  22.733  29.755  0.00  0.00    +0.000 A 
ATOM      9  C   UNL     1      28.797  22.601  30.471  0.00  0.00    +0.000 A 
ATOM     10  C   UNL     1      27.629  22.946  29.874  0.00  0.00    +0.000 A 
BRANCH  10  11
ATOM     11  N   UNL     1      26.406  22.844  30.602  0.00  0.00    +0.000 N 
ATOM     12  O   UNL     1      25.920  23.853  31.066  0.00  0.00    +0.000 OA
ATOM     13  O   UNL     1      25.837  21.618  30.752  0.00  0.00    +0.000 OA
ENDBRANCH  10  11
ENDBRANCH   1   6
BRANCH   3  14
ATOM     14  C   UNL     1      28.620  23.813  24.087  0.00  0.00    +0.000 A 
ATOM     15  C   UNL     1      29.749  24.209  23.408  0.00  0.00    +0.000 A 
ATOM     16  C   UNL     1      29.593  24.663  22.082  0.00  0.00    +0.000 A 
ATOM     17  C   UNL     1      28.352  24.702  21.497  0.00  0.00    +0.000 A 
ATOM     18  C   UNL     1      27.178  24.306  22.161  0.00  0.00    +0.000 A 
ATOM     19  C   UNL     1      27.405  23.870  23.473  0.00  0.00    +0.000 A 
BRANCH  19  20
ATOM     20  C   UNL     1      26.186  23.566  24.294  0.00  0.00    +0.000 C 
ATOM     21  C   UNL     1      25.099  22.892  23.440  0.00  0.00    +0.000 C 
ATOM     22  C   UNL     1      25.543  24.952  24.655  0.00  0.00    +0.000 C 
ENDBRANCH  19  20
ENDBRANCH   3  14
TORSDOF 4
ENDMDL
MODEL 3
REMARK VINA RESULT:      -6.9     18.432     19.792
REMARK  Name = 
REMARK  4 active torsions:
REMARK  status: ('A' for Active; 'I' for Inactive)
REMARK    1  A    between atoms: C_3  and  C_4
REMARK    2  A    between atoms: N_6  and  C_7
REMARK    3  A    between atoms: C_12  and  C_13
REMARK    4  A    between atoms: C_19  and  N_20
REMARK                            x       y       z     vdW  Elec       q    Type
REMARK                         _______ _______ _______ _____ _____    ______ ____
ROOT
ATOM      1  C   UNL     1      28.838  22.860  26.093  0.00  0.00    +0.000 C 
ATOM      2  O   UNL     1      29.642  21.907  26.091  0.00  0.00    +0.000 OA
ATOM      3  N   UNL     1      28.545  23.608  27.256  0.00  0.00    +0.000 NA
ENDROOT
BRANCH   1   6
ATOM      4  C   UNL     1      30.355  24.132  24.154  0.00  0.00    +0.000 C 
ATOM      5  C   UNL     1      28.918  23.902  23.866  0.00  0.00    +0.000 A 
ATOM      6  C   UNL     1      28.170  23.241  24.841  0.00  0.00    +0.000 A 
ATOM      7  C   UNL     1      26.839  23.017  24.615  0.00  0.00    +0.000 A 
ATOM      8  C   UNL     1      26.283  23.467  23.434  0.00  0.00    +0.000 A 
ATOM      9  C   UNL     1      27.008  24.129  22.470  0.00  0.00    +0.000 A 
ATOM     10  C   UNL     1      28.330  24.344  22.687  0.00  0.00    +0.000 A 
BRANCH  10  11
ATOM     11  N   UNL     1      29.099  25.052  21.717  0.00  0.00    +0.000 N 
ATOM     12  O   UNL     1      29.163  26.261  21.794  0.00  0.00    +0.000 OA
ATOM     13  O   UNL     1      29.726  24.345  20.740  0.00  0.00    +0.000 OA
ENDBRANCH  10  11
ENDBRANCH   1   6
BRANCH   3  14
ATOM     14  C   UNL     1      29.230  23.272  28.475  0.00  0.00    +0.000 A 
ATOM     15  C   UNL     1      30.594  23.350  28.640  0.00  0.00    +0.000 A 
ATOM     16  C   UNL     1      31.119  23.060  29.916  0.00  0.00    +0.000 A 
ATOM     17  C   UNL     1      30.288  22.716  30.953  0.00  0.00    +0.000 A 
ATOM     18  C   UNL     1      28.891  22.628  30.820  0.00  0.00    +0.000 A 
ATOM     19  C   UNL     1      28.439  22.924  29.527  0.00  0.00    +0.000 A 
BRANCH  19  20
ATOM     20  C   UNL     1      26.976  22.713  29.269  0.00  0.00    +0.000 C 
ATOM     21  C   UNL     1      26.148  23.906  29.772  0.00  0.00    +0.000 C 
ATOM     22  C   UNL     1      26.527  21.546  30.219  0.00  0.00    +0.000 C 
ENDBRANCH  19  20
ENDBRANCH   3  14
TORSDOF 4
ENDMDL
MODEL 4
REMARK VINA RESULT:      -6.9     20.410     23.019
REMARK  Name = 
REMARK  4 active torsions:
REMARK  status: ('A' for Active; 'I' for Inactive)
REMARK    1  A    between atoms: C_3  and  C_4
REMARK    2  A    between atoms: N_6  and  C_7
REMARK    3  A    between atoms: C_12  and  C_13
REMARK    4  A    between atoms: C_19  and  N_20
REMARK                            x       y       z     vdW  Elec       q    Type
REMARK                         _______ _______ _______ _____ _____    ______ ____
ROOT
ATOM      1  C   UNL     1      21.311  -7.330  24.860  0.00  0.00    +0.000 C 
ATOM      2  O   UNL     1      21.083  -7.649  23.677  0.00  0.00    +0.000 OA
ATOM      3  N   UNL     1      22.614  -7.313  25.408  0.00  0.00    +0.000 NA
ENDROOT
BRANCH   1   6
ATOM      4  C   UNL     1      19.997  -9.334  26.250  0.00  0.00    +0.000 C 
ATOM      5  C   UNL     1      19.508  -7.944  26.417  0.00  0.00    +0.000 A 
ATOM      6  C   UNL     1      20.192  -6.941  25.729  0.00  0.00    +0.000 A 
ATOM      7  C   UNL     1      19.766  -5.646  25.851  0.00  0.00    +0.000 A 
ATOM      8  C   UNL     1      18.666  -5.383  26.643  0.00  0.00    +0.000 A 
ATOM      9  C   UNL     1      17.977  -6.365  27.317  0.00  0.00    +0.000 A 
ATOM     10  C   UNL     1      18.402  -7.648  27.205  0.00  0.00    +0.000 A 
BRANCH  10  11
ATOM     11  N   UNL     1      17.690  -8.689  27.872  0.00  0.00    +0.000 N 
ATOM     12  O   UNL     1      18.029  -8.999  28.994  0.00  0.00    +0.000 OA
ATOM     13  O   UNL     1      16.663  -9.296  27.220  0.00  0.00    +0.000 OA
ENDBRANCH  10  11
ENDBRANCH   1   6
BRANCH   3  14
ATOM     14  C   UNL     1      23.720  -7.647  24.551  0.00  0.00    +0.000 A 
ATOM     15  C   UNL     1      24.409  -6.731  23.790  0.00  0.00    +0.000 A 
ATOM     16  C   UNL     1      25.521  -7.192  23.056  0.00  0.00    +0.000 A 
ATOM     17  C   UNL     1      25.895  -8.511  23.107  0.00  0.00    +0.000 A 
ATOM     18  C   UNL     1      25.215  -9.473  23.874  0.00  0.00    +0.000 A 
ATOM     19  C   UNL     1      24.120  -8.948  24.574  0.00  0.00    +0.000 A 
BRANCH  19  20
ATOM     20  C   UNL     1      23.259  -9.939  25.301  0.00  0.00    +0.000 C 
ATOM     21  C   UNL     1      24.110 -10.879  26.169  0.00  0.00    +0.000 C 
ATOM     22  C   UNL     1      22.675 -10.900  24.206  0.00  0.00    +0.000 C 
ENDBRANCH  19  20
ENDBRANCH   3  14
TORSDOF 4
ENDMDL
MODEL 5
REMARK VINA RESULT:      -6.8     18.490     19.797
REMARK  Name = 
REMARK  4 active torsions:
REMARK  status: ('A' for Active; 'I' for Inactive)
REMARK    1  A    between atoms: C_3  and  C_4
REMARK    2  A    between atoms: N_6  and  C_7
REMARK    3  A    between atoms: C_12  and  C_13
REMARK    4  A    between atoms: C_19  and  N_20
REMARK                            x       y       z     vdW  Elec       q    Type
REMARK                         _______ _______ _______ _____ _____    ______ ____
ROOT
ATOM      1  C   UNL     1      27.300  23.719  26.056  0.00  0.00    +0.000 C 
ATOM      2  O   UNL     1      26.961  24.735  26.693  0.00  0.00    +0.000 OA
ATOM      3  N   UNL     1      27.889  22.591  26.672  0.00  0.00    +0.000 NA
ENDROOT
BRANCH   1   6
ATOM      4  C   UNL     1      29.238  24.816  24.407  0.00  0.00    +0.000 C 
ATOM      5  C   UNL     1      28.031  24.240  23.765  0.00  0.00    +0.000 A 
ATOM      6  C   UNL     1      27.073  23.671  24.604  0.00  0.00    +0.000 A 
ATOM      7  C   UNL     1      25.941  23.136  24.050  0.00  0.00    +0.000 A 
ATOM      8  C   UNL     1      25.786  23.192  22.680  0.00  0.00    +0.000 A 
ATOM      9  C   UNL     1      26.718  23.760  21.843  0.00  0.00    +0.000 A 
ATOM     10  C   UNL     1      27.845  24.282  22.389  0.00  0.00    +0.000 A 
BRANCH  10  11
ATOM     11  N   UNL     1      28.816  24.902  21.547  0.00  0.00    +0.000 N 
ATOM     12  O   UNL     1      29.686  24.213  21.057  0.00  0.00    +0.000 OA
ATOM     13  O   UNL     1      28.731  26.242  21.331  0.00  0.00    +0.000 OA
ENDBRANCH  10  11
ENDBRANCH   1   6
BRANCH   3  14
ATOM     14  C   UNL     1      28.071  22.611  28.099  0.00  0.00    +0.000 A 
ATOM     15  C   UNL     1      27.061  22.397  29.008  0.00  0.00    +0.000 A 
ATOM     16  C   UNL     1      27.404  22.371  30.376  0.00  0.00    +0.000 A 
ATOM     17  C   UNL     1      28.704  22.551  30.775  0.00  0.00    +0.000 A 
ATOM     18  C   UNL     1      29.760  22.771  29.874  0.00  0.00    +0.000 A 
ATOM     19  C   UNL     1      29.349  22.789  28.534  0.00  0.00    +0.000 A 
BRANCH  19  20
ATOM     20  C   UNL     1      30.394  23.160  27.522  0.00  0.00    +0.000 C 
ATOM     21  C   UNL     1      31.732  22.470  27.832  0.00  0.00    +0.000 C 
ATOM     22  C   UNL     1      30.715  24.678  27.760  0.00  0.00    +0.000 C 
ENDBRANCH  19  20
ENDBRANCH   3  14
TORSDOF 4
ENDMDL
MODEL 6
REMARK VINA RESULT:      -6.8     18.225     20.162
REMARK  Name = 
REMARK  4 active torsions:
REMARK  status: ('A' for Active; 'I' for Inactive)
REMARK    1  A    between atoms: C_3  and  C_4
REMARK    2  A    between atoms: N_6  and  C_7
REMARK    3  A    between atoms: C_12  and  C_13
REMARK    4  A    between atoms: C_19  and  N_20
REMARK                            x       y       z     vdW  Elec       q    Type
REMARK                         _______ _______ _______ _____ _____    ______ ____
ROOT
ATOM      1  C   UNL     1      26.635  24.283  25.968  0.00  0.00    +0.000 C 
ATOM      2  O   UNL     1      25.938  23.549  25.241  0.00  0.00    +0.000 OA
ATOM      3  N   UNL     1      27.719  25.043  25.471  0.00  0.00    +0.000 NA
ENDROOT
BRANCH   1   6
ATOM      4  C   UNL     1      27.505  22.241  27.627  0.00  0.00    +0.000 C 
ATOM      5  C   UNL     1      26.736  23.350  28.243  0.00  0.00    +0.000 A 
ATOM      6  C   UNL     1      26.323  24.383  27.401  0.00  0.00    +0.000 A 
ATOM      7  C   UNL     1      25.605  25.421  27.930  0.00  0.00    +0.000 A 
ATOM      8  C   UNL     1      25.305  25.399  29.277  0.00  0.00    +0.000 A 
ATOM      9  C   UNL     1      25.697  24.381  30.115  0.00  0.00    +0.000 A 
ATOM     10  C   UNL     1      26.418  23.356  29.595  0.00  0.00    +0.000 A 
BRANCH  10  11
ATOM     11  N   UNL     1      26.814  22.273  30.436  0.00  0.00    +0.000 N 
ATOM     12  O   UNL     1      25.965  21.503  30.831  0.00  0.00    +0.000 OA
ATOM     13  O   UNL     1      28.128  22.151  30.764  0.00  0.00    +0.000 OA
ENDBRANCH  10  11
ENDBRANCH   1   6
BRANCH   3  14
ATOM     14  C   UNL     1      28.001  24.987  24.062  0.00  0.00    +0.000 A 
ATOM     15  C   UNL     1      27.135  25.419  23.084  0.00  0.00    +0.000 A 
ATOM     16  C   UNL     1      27.580  25.373  21.746  0.00  0.00    +0.000 A 
ATOM     17  C   UNL     1      28.836  24.913  21.442  0.00  0.00    +0.000 A 
ATOM     18  C   UNL     1      29.746  24.464  22.415  0.00  0.00    +0.000 A 
ATOM     19  C   UNL     1      29.239  24.534  23.719  0.00  0.00    +0.000 A 
BRANCH  19  20
ATOM     20  C   UNL     1      30.097  23.941  24.799  0.00  0.00    +0.000 C 
ATOM     21  C   UNL     1      31.583  24.250  24.557  0.00  0.00    +0.000 C 
ATOM     22  C   UNL     1      30.024  22.384  24.611  0.00  0.00    +0.000 C 
ENDBRANCH  19  20
ENDBRANCH   3  14
TORSDOF 4
ENDMDL
MODEL 7
REMARK VINA RESULT:      -6.7      2.077      3.747
REMARK  Name = 
REMARK  4 active torsions:
REMARK  status: ('A' for Active; 'I' for Inactive)
REMARK    1  A    between atoms: C_3  and  C_4
REMARK    2  A    between atoms: N_6  and  C_7
REMARK    3  A    between atoms: C_12  and  C_13
REMARK    4  A    between atoms: C_19  and  N_20
REMARK                            x       y       z     vdW  Elec       q    Type
REMARK                         _______ _______ _______ _____ _____    ______ ____
ROOT
ATOM      1  C   UNL     1      17.576  10.939  37.702  0.00  0.00    +0.000 C 
ATOM      2  O   UNL     1      18.610  11.631  37.775  0.00  0.00    +0.000 OA
ATOM      3  N   UNL     1      17.401   9.745  38.438  0.00  0.00    +0.000 NA
ENDROOT
BRANCH   1   6
ATOM      4  C   UNL     1      17.660  10.174  35.040  0.00  0.00    +0.000 C 
ATOM      5  C   UNL     1      16.521  11.016  35.480  0.00  0.00    +0.000 A 
ATOM      6  C   UNL     1      16.478  11.376  36.827  0.00  0.00    +0.000 A 
ATOM      7  C   UNL     1      15.446  12.158  37.271  0.00  0.00    +0.000 A 
ATOM      8  C   UNL     1      14.492  12.573  36.363  0.00  0.00    +0.000 A 
ATOM      9  C   UNL     1      14.530  12.233  35.030  0.00  0.00    +0.000 A 
ATOM     10  C   UNL     1      15.546  11.450  34.590  0.00  0.00    +0.000 A 
BRANCH  10  11
ATOM     11  N   UNL     1      15.625  11.105  33.207  0.00  0.00    +0.000 N 
ATOM     12  O   UNL     1      15.020  10.130  32.815  0.00  0.00    +0.000 OA
ATOM     13  O   UNL     1      16.380  11.881  32.384  0.00  0.00    +0.000 OA
ENDBRANCH  10  11
ENDBRANCH   1   6
BRANCH   3  14
ATOM     14  C   UNL     1      18.451   9.335  39.332  0.00  0.00    +0.000 A 
ATOM     15  C   UNL     1      19.766   9.182  38.958  0.00  0.00    +0.000 A 
ATOM     16  C   UNL     1      20.699   8.848  39.962  0.00  0.00    +0.000 A 
ATOM     17  C   UNL     1      20.298   8.686  41.264  0.00  0.00    +0.000 A 
ATOM     18  C   UNL     1      18.964   8.835  41.681  0.00  0.00    +0.000 A 
ATOM     19  C   UNL     1      18.092   9.163  40.634  0.00  0.00    +0.000 A 
BRANCH  19  20
ATOM     20  C   UNL     1      16.630   9.199  40.973  0.00  0.00    +0.000 C 
ATOM     21  C   UNL     1      16.398   9.831  42.355  0.00  0.00    +0.000 C 
ATOM     22  C   UNL     1      16.193   7.707  41.189  0.00  0.00    +0.000 C 
ENDBRANCH  19  20
ENDBRANCH   3  14
TORSDOF 4
ENDMDL
MODEL 8
REMARK VINA RESULT:      -6.6     19.594     21.754
REMARK  Name = 
REMARK  4 active torsions:
REMARK  status: ('A' for Active; 'I' for Inactive)
REMARK    1  A    between atoms: C_3  and  C_4
REMARK    2  A    between atoms: N_6  and  C_7
REMARK    3  A    between atoms: C_12  and  C_13
REMARK    4  A    between atoms: C_19  and  N_20
REMARK                            x       y       z     vdW  Elec       q    Type
REMARK                         _______ _______ _______ _____ _____    ______ ____
ROOT
ATOM      1  C   UNL     1      33.335   0.126  34.617  0.00  0.00    +0.000 C 
ATOM      2  O   UNL     1      32.221  -0.292  34.988  0.00  0.00    +0.000 OA
ATOM      3  N   UNL     1      34.398  -0.738  34.270  0.00  0.00    +0.000 NA
ENDROOT
BRANCH   1   6
ATOM      4  C   UNL     1      34.054   1.480  36.925  0.00  0.00    +0.000 C 
ATOM      5  C   UNL     1      33.905   2.272  35.679  0.00  0.00    +0.000 A 
ATOM      6  C   UNL     1      33.564   1.575  34.519  0.00  0.00    +0.000 A 
ATOM      7  C   UNL     1      33.410   2.270  33.350  0.00  0.00    +0.000 A 
ATOM      8  C   UNL     1      33.585   3.640  33.367  0.00  0.00    +0.000 A 
ATOM      9  C   UNL     1      33.910   4.339  34.507  0.00  0.00    +0.000 A 
ATOM     10  C   UNL     1      34.073   3.651  35.664  0.00  0.00    +0.000 A 
BRANCH  10  11
ATOM     11  N   UNL     1      34.384   4.353  36.867  0.00  0.00    +0.000 N 
ATOM     12  O   UNL     1      35.548   4.544  37.145  0.00  0.00    +0.000 OA
ATOM     13  O   UNL     1      33.361   4.778  37.656  0.00  0.00    +0.000 OA
ENDBRANCH  10  11
ENDBRANCH   1   6
BRANCH   3  14
ATOM     14  C   UNL     1      34.168  -2.157  34.317  0.00  0.00    +0.000 A 
ATOM     15  C   UNL     1      33.497  -2.862  33.344  0.00  0.00    +0.000 A 
ATOM     16  C   UNL     1      33.413  -4.262  33.489  0.00  0.00    +0.000 A 
ATOM     17  C   UNL     1      33.986  -4.890  34.566  0.00  0.00    +0.000 A 
ATOM     18  C   UNL     1      34.678  -4.202  35.577  0.00  0.00    +0.000 A 
ATOM     19  C   UNL     1      34.720  -2.816  35.373  0.00  0.00    +0.000 A 
BRANCH  19  20
ATOM     20  C   UNL     1      35.317  -1.998  36.481  0.00  0.00    +0.000 C 
ATOM     21  C   UNL     1      36.647  -2.602  36.959  0.00  0.00    +0.000 C 
ATOM     22  C   UNL     1      34.376  -2.188  37.722  0.00  0.00    +0.000 C 
ENDBRANCH  19  20
ENDBRANCH   3  14
TORSDOF 4
ENDMDL
MODEL 9
REMARK VINA RESULT:      -6.6      2.552      4.270
REMARK  Name = 
REMARK  4 active torsions:
REMARK  status: ('A' for Active; 'I' for Inactive)
REMARK    1  A    between atoms: C_3  and  C_4
REMARK    2  A    between atoms: N_6  and  C_7
REMARK    3  A    between atoms: C_12  and  C_13
REMARK    4  A    between atoms: C_19  and  N_20
REMARK                            x       y       z     vdW  Elec       q    Type
REMARK                         _______ _______ _______ _____ _____    ______ ____
ROOT
ATOM      1  C   UNL     1      18.247   9.989  36.689  0.00  0.00    +0.000 C 
ATOM      2  O   UNL     1      18.382   8.767  36.487  0.00  0.00    +0.000 OA
ATOM      3  N   UNL     1      19.279  10.793  37.226  0.00  0.00    +0.000 NA
ENDROOT
BRANCH   1   6
ATOM      4  C   UNL     1      17.546  10.141  34.013  0.00  0.00    +0.000 C 
ATOM      5  C   UNL     1      16.619  10.741  35.004  0.00  0.00    +0.000 A 
ATOM      6  C   UNL     1      16.973  10.638  36.350  0.00  0.00    +0.000 A 
ATOM      7  C   UNL     1      16.147  11.186  37.295  0.00  0.00    +0.000 A 
ATOM      8  C   UNL     1      15.000  11.831  36.877  0.00  0.00    +0.000 A 
ATOM      9  C   UNL     1      14.647  11.948  35.552  0.00  0.00    +0.000 A 
ATOM     10  C   UNL     1      15.459  11.398  34.615  0.00  0.00    +0.000 A 
BRANCH  10  11
ATOM     11  N   UNL     1      15.131  11.528  33.232  0.00  0.00    +0.000 N 
ATOM     12  O   UNL     1      15.314  12.596  32.689  0.00  0.00    +0.000 OA
ATOM     13  O   UNL     1      14.621  10.450  32.579  0.00  0.00    +0.000 OA
ENDBRANCH  10  11
ENDBRANCH   1   6
BRANCH   3  14
ATOM     14  C   UNL     1      20.544  10.175  37.516  0.00  0.00    +0.000 A 
ATOM     15  C   UNL     1      21.511   9.917  36.572  0.00  0.00    +0.000 A 
ATOM     16  C   UNL     1      22.735   9.375  37.017  0.00  0.00    +0.000 A 
ATOM     17  C   UNL     1      22.944   9.120  38.349  0.00  0.00    +0.000 A 
ATOM     18  C   UNL     1      21.980   9.372  39.339  0.00  0.00    +0.000 A 
ATOM     19  C   UNL     1      20.789   9.905  38.828  0.00  0.00    +0.000 A 
BRANCH  19  20
ATOM     20  C   UNL     1      19.660  10.067  39.804  0.00  0.00    +0.000 C 
ATOM     21  C   UNL     1      20.180  10.493  41.186  0.00  0.00    +0.000 C 
ATOM     22  C   UNL     1      19.097   8.626  40.067  0.00  0.00    +0.000 C 
ENDBRANCH  19  20
ENDBRANCH   3  14
TORSDOF 4
ENDMDL
MODEL 10
REMARK VINA RESULT:      -6.6     17.945     19.312
REMARK  Name = 
REMARK  4 active torsions:
REMARK  status: ('A' for Active; 'I' for Inactive)
REMARK    1  A    between atoms: C_3  and  C_4
REMARK    2  A    between atoms: N_6  and  C_7
REMARK    3  A    between atoms: C_12  and  C_13
REMARK    4  A    between atoms: C_19  and  N_20
REMARK                            x       y       z     vdW  Elec       q    Type
REMARK                         _______ _______ _______ _____ _____    ______ ____
ROOT
ATOM      1  C   UNL     1      29.644  22.609  26.542  0.00  0.00    +0.000 C 
ATOM      2  O   UNL     1      29.963  21.407  26.614  0.00  0.00    +0.000 OA
ATOM      3  N   UNL     1      29.700  23.483  27.652  0.00  0.00    +0.000 NA
ENDROOT
BRANCH   1   6
ATOM      4  C   UNL     1      26.927  22.599  25.997  0.00  0.00    +0.000 C 
ATOM      5  C   UNL     1      27.838  23.140  24.958  0.00  0.00    +0.000 A 
ATOM      6  C   UNL     1      29.201  23.160  25.253  0.00  0.00    +0.000 A 
ATOM      7  C   UNL     1      30.074  23.645  24.317  0.00  0.00    +0.000 A 
ATOM      8  C   UNL     1      29.572  24.084  23.109  0.00  0.00    +0.000 A 
ATOM      9  C   UNL     1      28.231  24.059  22.802  0.00  0.00    +0.000 A 
ATOM     10  C   UNL     1      27.362  23.588  23.732  0.00  0.00    +0.000 A 
BRANCH  10  11
ATOM     11  N   UNL     1      25.969  23.525  23.430  0.00  0.00    +0.000 N 
ATOM     12  O   UNL     1      25.199  24.178  24.101  0.00  0.00    +0.000 OA
ATOM     13  O   UNL     1      25.560  22.732  22.403  0.00  0.00    +0.000 OA
ENDBRANCH  10  11
ENDBRANCH   1   6
BRANCH   3  14
ATOM     14  C   UNL     1      30.178  22.964  28.906  0.00  0.00    +0.000 A 
ATOM     15  C   UNL     1      31.483  22.598  29.142  0.00  0.00    +0.000 A 
ATOM     16  C   UNL     1      31.821  22.176  30.444  0.00  0.00    +0.000 A 
ATOM     17  C   UNL     1      30.873  22.138  31.436  0.00  0.00    +0.000 A 
ATOM     18  C   UNL     1      29.532  22.504  31.230  0.00  0.00    +0.000 A 
ATOM     19  C   UNL     1      29.265  22.909  29.915  0.00  0.00    +0.000 A 
BRANCH  19  20
ATOM     20  C   UNL     1      27.827  23.179  29.580  0.00  0.00    +0.000 C 
ATOM     21  C   UNL     1      27.220  24.212  30.543  0.00  0.00    +0.000 C 
ATOM     22  C   UNL     1      27.041  21.866  29.930  0.00  0.00    +0.000 C 
ENDBRANCH  19  20
ENDBRANCH   3  14
TORSDOF 4
ENDMDL
