MODEL 1
REMARK VINA RESULT:      -7.2      0.000      0.000
REMARK  Name = 
REMARK  7 active torsions:
REMARK  status: ('A' for Active; 'I' for Inactive)
REMARK    1  A    between atoms: S_2  and  N_4
REMARK    2  A    between atoms: S_2  and  C_19
REMARK    3  A    between atoms: N_4  and  C_5
REMARK    4  A    between atoms: C_9  and  C_10
REMARK    5  A    between atoms: C_10  and  C_11
REMARK    6  A    between atoms: C_11  and  C_12
REMARK    7  A    between atoms: C_22  and  C_23
REMARK                            x       y       z     vdW  Elec       q    Type
REMARK                         _______ _______ _______ _____ _____    ______ ____
ROOT
ATOM      1  O   UNL     1      36.057  -4.948  14.869  0.00  0.00    +0.000 OA
ATOM      2  S   UNL     1      36.630  -4.040  15.932  0.00  0.00    +0.000 S 
ATOM      3  O   UNL     1      37.344  -4.946  16.911  0.00  0.00    +0.000 OA
ENDROOT
BRANCH   2   4
ATOM      4  C   UNL     1      37.826  -2.955  15.277  0.00  0.00    +0.000 A 
ATOM      5  C   UNL     1      38.836  -2.402  16.033  0.00  0.00    +0.000 A 
ATOM      6  C   UNL     1      39.760  -1.548  15.465  0.00  0.00    +0.000 A 
ATOM      7  C   UNL     1      39.724  -1.204  14.130  0.00  0.00    +0.000 A 
ATOM      8  C   UNL     1      38.709  -1.759  13.375  0.00  0.00    +0.000 A 
ATOM      9  C   UNL     1      37.778  -2.619  13.941  0.00  0.00    +0.000 A 
BRANCH   7  10
ATOM     10  C   UNL     1      40.722  -0.282  13.524  0.00  0.00    +0.000 C 
ATOM     11  C   UNL     1      42.078  -0.481  14.117  0.00  0.00    +0.000 C 
ATOM     12  C   UNL     1      42.486  -1.940  14.018  0.00  0.00    +0.000 C 
ATOM     13  C   UNL     1      42.049  -2.544  12.706  0.00  0.00    +0.000 C 
ATOM     14  C   UNL     1      41.882  -1.476  11.655  0.00  0.00    +0.000 C 
ATOM     15  C   UNL     1      40.790  -0.500  12.028  0.00  0.00    +0.000 C 
ENDBRANCH   7  10
ENDBRANCH   2   4
BRANCH   2  16
ATOM     16  N   UNL     1      35.327  -3.226  16.679  0.00  0.00    +0.000 NA
BRANCH  16  17
ATOM     17  C   UNL     1      35.551  -1.948  17.260  0.00  0.00    +0.000 A 
ATOM     18  C   UNL     1      36.241  -1.916  18.455  0.00  0.00    +0.000 A 
ATOM     19  C   UNL     1      36.502  -0.720  19.087  0.00  0.00    +0.000 A 
ATOM     20  C   UNL     1      36.053   0.425  18.488  0.00  0.00    +0.000 A 
ATOM     21  C   UNL     1      35.364   0.470  17.306  0.00  0.00    +0.000 A 
ATOM     22  C   UNL     1      35.125  -0.775  16.705  0.00  0.00    +0.000 A 
BRANCH  21  23
ATOM     23  C   UNL     1      34.878   1.690  16.656  0.00  0.00    +0.000 C 
BRANCH  23  24
ATOM     24  C   UNL     1      35.883   2.747  16.419  0.00  0.00    +0.000 C 
BRANCH  24  25
ATOM     25  C   UNL     1      36.423   2.799  15.061  0.00  0.00    +0.000 A 
ATOM     26  C   UNL     1      37.117   1.751  14.512  0.00  0.00    +0.000 A 
ATOM     27  C   UNL     1      37.643   1.739  13.251  0.00  0.00    +0.000 A 
ATOM     28  C   UNL     1      37.462   2.868  12.476  0.00  0.00    +0.000 A 
ATOM     29  C   UNL     1      36.767   3.901  13.042  0.00  0.00    +0.000 A 
ATOM     30  N   UNL     1      36.255   3.903  14.277  0.00  0.00    +0.000 NA
ENDBRANCH  24  25
ENDBRANCH  23  24
ENDBRANCH  21  23
ENDBRANCH  16  17
ENDBRANCH   2  16
TORSDOF 7
ENDMDL
MODEL 2
REMARK VINA RESULT:      -7.1      5.333      8.337
REMARK  Name = 
REMARK  7 active torsions:
REMARK  status: ('A' for Active; 'I' for Inactive)
REMARK    1  A    between atoms: S_2  and  N_4
REMARK    2  A    between atoms: S_2  and  C_19
REMARK    3  A    between atoms: N_4  and  C_5
REMARK    4  A    between atoms: C_9  and  C_10
REMARK    5  A    between atoms: C_10  and  C_11
REMARK    6  A    between atoms: C_11  and  C_12
REMARK    7  A    between atoms: C_22  and  C_23
REMARK                            x       y       z     vdW  Elec       q    Type
REMARK                         _______ _______ _______ _____ _____    ______ ____
ROOT
ATOM      1  O   UNL     1      37.577   6.641  13.627  0.00  0.00    +0.000 OA
ATOM      2  S   UNL     1      37.646   5.448  14.552  0.00  0.00    +0.000 S 
ATOM      3  O   UNL     1      38.681   4.519  13.957  0.00  0.00    +0.000 OA
ENDROOT
BRANCH   2   4
ATOM      4  C   UNL     1      38.213   5.895  16.138  0.00  0.00    +0.000 A 
ATOM      5  C   UNL     1      38.122   7.176  16.638  0.00  0.00    +0.000 A 
ATOM      6  C   UNL     1      38.586   7.477  17.903  0.00  0.00    +0.000 A 
ATOM      7  C   UNL     1      39.160   6.529  18.724  0.00  0.00    +0.000 A 
ATOM      8  C   UNL     1      39.251   5.247  18.219  0.00  0.00    +0.000 A 
ATOM      9  C   UNL     1      38.785   4.939  16.948  0.00  0.00    +0.000 A 
BRANCH   7  10
ATOM     10  C   UNL     1      39.659   6.862  20.084  0.00  0.00    +0.000 C 
ATOM     11  C   UNL     1      41.011   6.276  20.327  0.00  0.00    +0.000 C 
ATOM     12  C   UNL     1      41.970   6.695  19.228  0.00  0.00    +0.000 C 
ATOM     13  C   UNL     1      41.741   8.128  18.816  0.00  0.00    +0.000 C 
ATOM     14  C   UNL     1      41.093   8.908  19.932  0.00  0.00    +0.000 C 
ATOM     15  C   UNL     1      39.722   8.363  20.263  0.00  0.00    +0.000 C 
ENDBRANCH   7  10
ENDBRANCH   2   4
BRANCH   2  16
ATOM     16  N   UNL     1      36.102   4.719  14.576  0.00  0.00    +0.000 NA
BRANCH  16  17
ATOM     17  C   UNL     1      36.003   3.311  14.748  0.00  0.00    +0.000 A 
ATOM     18  C   UNL     1      36.435   2.521  13.702  0.00  0.00    +0.000 A 
ATOM     19  C   UNL     1      36.376   1.148  13.784  0.00  0.00    +0.000 A 
ATOM     20  C   UNL     1      35.876   0.602  14.934  0.00  0.00    +0.000 A 
ATOM     21  C   UNL     1      35.430   1.321  16.010  0.00  0.00    +0.000 A 
ATOM     22  C   UNL     1      35.512   2.714  15.874  0.00  0.00    +0.000 A 
BRANCH  21  23
ATOM     23  C   UNL     1      34.892   0.747  17.247  0.00  0.00    +0.000 C 
BRANCH  23  24
ATOM     24  C   UNL     1      34.756  -0.723  17.278  0.00  0.00    +0.000 C 
BRANCH  24  25
ATOM     25  C   UNL     1      35.934  -1.447  17.756  0.00  0.00    +0.000 A 
ATOM     26  C   UNL     1      36.653  -1.029  18.847  0.00  0.00    +0.000 A 
ATOM     27  C   UNL     1      37.759  -1.662  19.341  0.00  0.00    +0.000 A 
ATOM     28  C   UNL     1      38.181  -2.804  18.690  0.00  0.00    +0.000 A 
ATOM     29  C   UNL     1      37.452  -3.202  17.605  0.00  0.00    +0.000 A 
ATOM     30  N   UNL     1      36.370  -2.577  17.129  0.00  0.00    +0.000 NA
ENDBRANCH  24  25
ENDBRANCH  23  24
ENDBRANCH  21  23
ENDBRANCH  16  17
ENDBRANCH   2  16
TORSDOF 7
ENDMDL
MODEL 3
REMARK VINA RESULT:      -7.0      3.174      4.339
REMARK  Name = 
REMARK  7 active torsions:
REMARK  status: ('A' for Active; 'I' for Inactive)
REMARK    1  A    between atoms: S_2  and  N_4
REMARK    2  A    between atoms: S_2  and  C_19
REMARK    3  A    between atoms: N_4  and  C_5
REMARK    4  A    between atoms: C_9  and  C_10
REMARK    5  A    between atoms: C_10  and  C_11
REMARK    6  A    between atoms: C_11  and  C_12
REMARK    7  A    between atoms: C_22  and  C_23
REMARK                            x       y       z     vdW  Elec       q    Type
REMARK                         _______ _______ _______ _____ _____    ______ ____
ROOT
ATOM      1  O   UNL     1      34.389  -1.046  17.197  0.00  0.00    +0.000 OA
ATOM      2  S   UNL     1      35.775  -0.652  17.649  0.00  0.00    +0.000 S 
ATOM      3  O   UNL     1      36.062  -1.482  18.882  0.00  0.00    +0.000 OA
ENDROOT
BRANCH   2   4
ATOM      4  C   UNL     1      36.983  -1.069  16.464  0.00  0.00    +0.000 A 
ATOM      5  C   UNL     1      38.238  -1.528  16.797  0.00  0.00    +0.000 A 
ATOM      6  C   UNL     1      39.159  -1.846  15.817  0.00  0.00    +0.000 A 
ATOM      7  C   UNL     1      38.879  -1.721  14.473  0.00  0.00    +0.000 A 
ATOM      8  C   UNL     1      37.620  -1.259  14.143  0.00  0.00    +0.000 A 
ATOM      9  C   UNL     1      36.691  -0.939  15.123  0.00  0.00    +0.000 A 
BRANCH   7  10
ATOM     10  C   UNL     1      39.876  -2.063  13.424  0.00  0.00    +0.000 C 
ATOM     11  C   UNL     1      39.894  -1.041  12.335  0.00  0.00    +0.000 C 
ATOM     12  C   UNL     1      40.103   0.344  12.919  0.00  0.00    +0.000 C 
ATOM     13  C   UNL     1      41.093   0.317  14.057  0.00  0.00    +0.000 C 
ATOM     14  C   UNL     1      42.016  -0.870  13.935  0.00  0.00    +0.000 C 
ATOM     15  C   UNL     1      41.256  -2.173  14.034  0.00  0.00    +0.000 C 
ENDBRANCH   7  10
ENDBRANCH   2   4
BRANCH   2  16
ATOM     16  N   UNL     1      35.749   1.015  18.019  0.00  0.00    +0.000 NA
BRANCH  16  17
ATOM     17  C   UNL     1      35.781   1.960  16.956  0.00  0.00    +0.000 A 
ATOM     18  C   UNL     1      34.685   1.997  16.119  0.00  0.00    +0.000 A 
ATOM     19  C   UNL     1      34.633   2.882  15.065  0.00  0.00    +0.000 A 
ATOM     20  C   UNL     1      35.702   3.716  14.882  0.00  0.00    +0.000 A 
ATOM     21  C   UNL     1      36.820   3.734  15.671  0.00  0.00    +0.000 A 
ATOM     22  C   UNL     1      36.822   2.814  16.729  0.00  0.00    +0.000 A 
BRANCH  21  23
ATOM     23  C   UNL     1      37.972   4.622  15.485  0.00  0.00    +0.000 C 
BRANCH  23  24
ATOM     24  C   UNL     1      39.003   4.582  16.542  0.00  0.00    +0.000 C 
BRANCH  24  25
ATOM     25  C   UNL     1      38.912   5.646  17.541  0.00  0.00    +0.000 A 
ATOM     26  C   UNL     1      39.609   5.600  18.721  0.00  0.00    +0.000 A 
ATOM     27  C   UNL     1      39.565   6.561  19.691  0.00  0.00    +0.000 A 
ATOM     28  C   UNL     1      38.757   7.658  19.463  0.00  0.00    +0.000 A 
ATOM     29  C   UNL     1      38.071   7.684  18.281  0.00  0.00    +0.000 A 
ATOM     30  N   UNL     1      38.121   6.739  17.337  0.00  0.00    +0.000 NA
ENDBRANCH  24  25
ENDBRANCH  23  24
ENDBRANCH  21  23
ENDBRANCH  16  17
ENDBRANCH   2  16
TORSDOF 7
ENDMDL
MODEL 4
REMARK VINA RESULT:      -7.0      5.110      8.109
REMARK  Name = 
REMARK  7 active torsions:
REMARK  status: ('A' for Active; 'I' for Inactive)
REMARK    1  A    between atoms: S_2  and  N_4
REMARK    2  A    between atoms: S_2  and  C_19
REMARK    3  A    between atoms: N_4  and  C_5
REMARK    4  A    between atoms: C_9  and  C_10
REMARK    5  A    between atoms: C_10  and  C_11
REMARK    6  A    between atoms: C_11  and  C_12
REMARK    7  A    between atoms: C_22  and  C_23
REMARK                            x       y       z     vdW  Elec       q    Type
REMARK                         _______ _______ _______ _____ _____    ______ ____
ROOT
ATOM      1  O   UNL     1      37.611   5.969  13.459  0.00  0.00    +0.000 OA
ATOM      2  S   UNL     1      37.584   4.891  14.516  0.00  0.00    +0.000 S 
ATOM      3  O   UNL     1      38.594   3.853  14.078  0.00  0.00    +0.000 OA
ENDROOT
BRANCH   2   4
ATOM      4  C   UNL     1      38.110   5.493  16.064  0.00  0.00    +0.000 A 
ATOM      5  C   UNL     1      38.091   6.829  16.399  0.00  0.00    +0.000 A 
ATOM      6  C   UNL     1      38.519   7.255  17.641  0.00  0.00    +0.000 A 
ATOM      7  C   UNL     1      38.983   6.380  18.601  0.00  0.00    +0.000 A 
ATOM      8  C   UNL     1      39.002   5.041  18.262  0.00  0.00    +0.000 A 
ATOM      9  C   UNL     1      38.573   4.609  17.015  0.00  0.00    +0.000 A 
BRANCH   7  10
ATOM     10  C   UNL     1      39.443   6.845  19.936  0.00  0.00    +0.000 C 
ATOM     11  C   UNL     1      40.796   6.304  20.266  0.00  0.00    +0.000 C 
ATOM     12  C   UNL     1      41.777   6.632  19.156  0.00  0.00    +0.000 C 
ATOM     13  C   UNL     1      41.541   8.017  18.606  0.00  0.00    +0.000 C 
ATOM     14  C   UNL     1      40.856   8.889  19.628  0.00  0.00    +0.000 C 
ATOM     15  C   UNL     1      39.483   8.358  19.975  0.00  0.00    +0.000 C 
ENDBRANCH   7  10
ENDBRANCH   2   4
BRANCH   2  16
ATOM     16  N   UNL     1      36.006   4.239  14.554  0.00  0.00    +0.000 NA
BRANCH  16  17
ATOM     17  C   UNL     1      35.810   2.927  15.068  0.00  0.00    +0.000 A 
ATOM     18  C   UNL     1      35.061   2.813  16.221  0.00  0.00    +0.000 A 
ATOM     19  C   UNL     1      34.822   1.580  16.788  0.00  0.00    +0.000 A 
ATOM     20  C   UNL     1      35.353   0.483  16.166  0.00  0.00    +0.000 A 
ATOM     21  C   UNL     1      36.105   0.521  15.023  0.00  0.00    +0.000 A 
ATOM     22  C   UNL     1      36.317   1.800  14.489  0.00  0.00    +0.000 A 
BRANCH  21  23
ATOM     23  C   UNL     1      36.679  -0.648  14.349  0.00  0.00    +0.000 C 
BRANCH  23  24
ATOM     24  C   UNL     1      36.304  -1.967  14.899  0.00  0.00    +0.000 C 
BRANCH  24  25
ATOM     25  C   UNL     1      37.190  -2.480  15.943  0.00  0.00    +0.000 A 
ATOM     26  C   UNL     1      38.369  -3.117  15.650  0.00  0.00    +0.000 A 
ATOM     27  C   UNL     1      39.237  -3.617  16.579  0.00  0.00    +0.000 A 
ATOM     28  C   UNL     1      38.898  -3.468  17.911  0.00  0.00    +0.000 A 
ATOM     29  C   UNL     1      37.719  -2.830  18.180  0.00  0.00    +0.000 A 
ATOM     30  N   UNL     1      36.877  -2.344  17.264  0.00  0.00    +0.000 NA
ENDBRANCH  24  25
ENDBRANCH  23  24
ENDBRANCH  21  23
ENDBRANCH  16  17
ENDBRANCH   2  16
TORSDOF 7
ENDMDL
MODEL 5
REMARK VINA RESULT:      -7.0      5.137      8.127
REMARK  Name = 
REMARK  7 active torsions:
REMARK  status: ('A' for Active; 'I' for Inactive)
REMARK    1  A    between atoms: S_2  and  N_4
REMARK    2  A    between atoms: S_2  and  C_19
REMARK    3  A    between atoms: N_4  and  C_5
REMARK    4  A    between atoms: C_9  and  C_10
REMARK    5  A    between atoms: C_10  and  C_11
REMARK    6  A    between atoms: C_11  and  C_12
REMARK    7  A    between atoms: C_22  and  C_23
REMARK                            x       y       z     vdW  Elec       q    Type
REMARK                         _______ _______ _______ _____ _____    ______ ____
ROOT
ATOM      1  O   UNL     1      36.718   5.815  13.903  0.00  0.00    +0.000 OA
ATOM      2  S   UNL     1      37.522   4.761  14.629  0.00  0.00    +0.000 S 
ATOM      3  O   UNL     1      38.736   4.497  13.766  0.00  0.00    +0.000 OA
ENDROOT
BRANCH   2   4
ATOM      4  C   UNL     1      38.104   5.340  16.165  0.00  0.00    +0.000 A 
ATOM      5  C   UNL     1      38.569   4.505  17.158  0.00  0.00    +0.000 A 
ATOM      6  C   UNL     1      39.021   5.016  18.359  0.00  0.00    +0.000 A 
ATOM      7  C   UNL     1      39.032   6.368  18.629  0.00  0.00    +0.000 A 
ATOM      8  C   UNL     1      38.564   7.202  17.632  0.00  0.00    +0.000 A 
ATOM      9  C   UNL     1      38.109   6.694  16.423  0.00  0.00    +0.000 A 
BRANCH   7  10
ATOM     10  C   UNL     1      39.519   6.910  19.924  0.00  0.00    +0.000 C 
ATOM     11  C   UNL     1      40.848   6.336  20.291  0.00  0.00    +0.000 C 
ATOM     12  C   UNL     1      41.838   6.536  19.158  0.00  0.00    +0.000 C 
ATOM     13  C   UNL     1      41.661   7.885  18.506  0.00  0.00    +0.000 C 
ATOM     14  C   UNL     1      41.020   8.860  19.461  0.00  0.00    +0.000 C 
ATOM     15  C   UNL     1      39.627   8.418  19.849  0.00  0.00    +0.000 C 
ENDBRANCH   7  10
ENDBRANCH   2   4
BRANCH   2  16
ATOM     16  N   UNL     1      36.547   3.366  14.767  0.00  0.00    +0.000 NA
BRANCH  16  17
ATOM     17  C   UNL     1      37.039   2.125  14.276  0.00  0.00    +0.000 A 
ATOM     18  C   UNL     1      36.698   1.784  12.983  0.00  0.00    +0.000 A 
ATOM     19  C   UNL     1      37.132   0.601  12.428  0.00  0.00    +0.000 A 
ATOM     20  C   UNL     1      37.909  -0.217  13.203  0.00  0.00    +0.000 A 
ATOM     21  C   UNL     1      38.286   0.056  14.490  0.00  0.00    +0.000 A 
ATOM     22  C   UNL     1      37.817   1.273  15.006  0.00  0.00    +0.000 A 
BRANCH  21  23
ATOM     23  C   UNL     1      39.117  -0.812  15.330  0.00  0.00    +0.000 C 
BRANCH  23  24
ATOM     24  C   UNL     1      38.417  -1.916  16.019  0.00  0.00    +0.000 C 
BRANCH  24  25
ATOM     25  C   UNL     1      37.376  -1.501  16.959  0.00  0.00    +0.000 A 
ATOM     26  C   UNL     1      36.041  -1.612  16.663  0.00  0.00    +0.000 A 
ATOM     27  C   UNL     1      35.024  -1.243  17.497  0.00  0.00    +0.000 A 
ATOM     28  C   UNL     1      35.370  -0.720  18.728  0.00  0.00    +0.000 A 
ATOM     29  C   UNL     1      36.705  -0.618  19.003  0.00  0.00    +0.000 A 
ATOM     30  N   UNL     1      37.693  -0.982  18.180  0.00  0.00    +0.000 NA
ENDBRANCH  24  25
ENDBRANCH  23  24
ENDBRANCH  21  23
ENDBRANCH  16  17
ENDBRANCH   2  16
TORSDOF 7
ENDMDL
MODEL 6
REMARK VINA RESULT:      -6.9      5.405      7.922
REMARK  Name = 
REMARK  7 active torsions:
REMARK  status: ('A' for Active; 'I' for Inactive)
REMARK    1  A    between atoms: S_2  and  N_4
REMARK    2  A    between atoms: S_2  and  C_19
REMARK    3  A    between atoms: N_4  and  C_5
REMARK    4  A    between atoms: C_9  and  C_10
REMARK    5  A    between atoms: C_10  and  C_11
REMARK    6  A    between atoms: C_11  and  C_12
REMARK    7  A    between atoms: C_22  and  C_23
REMARK                            x       y       z     vdW  Elec       q    Type
REMARK                         _______ _______ _______ _____ _____    ______ ____
ROOT
ATOM      1  O   UNL     1      39.078   3.085  13.792  0.00  0.00    +0.000 OA
ATOM      2  S   UNL     1      37.634   3.428  14.075  0.00  0.00    +0.000 S 
ATOM      3  O   UNL     1      36.930   3.400  12.736  0.00  0.00    +0.000 OA
ENDROOT
BRANCH   2   4
ATOM      4  C   UNL     1      36.870   2.224  15.077  0.00  0.00    +0.000 A 
ATOM      5  C   UNL     1      36.448   1.003  14.599  0.00  0.00    +0.000 A 
ATOM      6  C   UNL     1      35.849   0.083  15.437  0.00  0.00    +0.000 A 
ATOM      7  C   UNL     1      35.641   0.331  16.777  0.00  0.00    +0.000 A 
ATOM      8  C   UNL     1      36.065   1.557  17.253  0.00  0.00    +0.000 A 
ATOM      9  C   UNL     1      36.668   2.485  16.416  0.00  0.00    +0.000 A 
BRANCH   7  10
ATOM     10  C   UNL     1      34.994  -0.664  17.673  0.00  0.00    +0.000 C 
ATOM     11  C   UNL     1      35.263  -2.061  17.220  0.00  0.00    +0.000 C 
ATOM     12  C   UNL     1      36.757  -2.287  17.069  0.00  0.00    +0.000 C 
ATOM     13  C   UNL     1      37.529  -1.600  18.168  0.00  0.00    +0.000 C 
ATOM     14  C   UNL     1      36.663  -1.401  19.387  0.00  0.00    +0.000 C 
ATOM     15  C   UNL     1      35.494  -0.490  19.091  0.00  0.00    +0.000 C 
ENDBRANCH   7  10
ENDBRANCH   2   4
BRANCH   2  16
ATOM     16  N   UNL     1      37.595   4.992  14.761  0.00  0.00    +0.000 NA
BRANCH  16  17
ATOM     17  C   UNL     1      38.681   5.418  15.575  0.00  0.00    +0.000 A 
ATOM     18  C   UNL     1      39.789   5.923  14.924  0.00  0.00    +0.000 A 
ATOM     19  C   UNL     1      40.885   6.359  15.635  0.00  0.00    +0.000 A 
ATOM     20  C   UNL     1      40.833   6.272  16.999  0.00  0.00    +0.000 A 
ATOM     21  C   UNL     1      39.770   5.784  17.710  0.00  0.00    +0.000 A 
ATOM     22  C   UNL     1      38.681   5.354  16.939  0.00  0.00    +0.000 A 
BRANCH  21  23
ATOM     23  C   UNL     1      39.703   5.686  19.171  0.00  0.00    +0.000 C 
BRANCH  23  24
ATOM     24  C   UNL     1      40.565   6.617  19.927  0.00  0.00    +0.000 C 
BRANCH  24  25
ATOM     25  C   UNL     1      39.967   7.920  20.220  0.00  0.00    +0.000 A 
ATOM     26  C   UNL     1      38.614   8.082  20.376  0.00  0.00    +0.000 A 
ATOM     27  C   UNL     1      37.998   9.270  20.650  0.00  0.00    +0.000 A 
ATOM     28  C   UNL     1      38.800  10.387  20.779  0.00  0.00    +0.000 A 
ATOM     29  C   UNL     1      40.145  10.204  20.619  0.00  0.00    +0.000 A 
ATOM     30  N   UNL     1      40.739   9.037  20.352  0.00  0.00    +0.000 NA
ENDBRANCH  24  25
ENDBRANCH  23  24
ENDBRANCH  21  23
ENDBRANCH  16  17
ENDBRANCH   2  16
TORSDOF 7
ENDMDL
MODEL 7
REMARK VINA RESULT:      -6.8      4.374      6.232
REMARK  Name = 
REMARK  7 active torsions:
REMARK  status: ('A' for Active; 'I' for Inactive)
REMARK    1  A    between atoms: S_2  and  N_4
REMARK    2  A    between atoms: S_2  and  C_19
REMARK    3  A    between atoms: N_4  and  C_5
REMARK    4  A    between atoms: C_9  and  C_10
REMARK    5  A    between atoms: C_10  and  C_11
REMARK    6  A    between atoms: C_11  and  C_12
REMARK    7  A    between atoms: C_22  and  C_23
REMARK                            x       y       z     vdW  Elec       q    Type
REMARK                         _______ _______ _______ _____ _____    ______ ____
ROOT
ATOM      1  O   UNL     1      39.676   2.772  12.367  0.00  0.00    +0.000 OA
ATOM      2  S   UNL     1      38.327   2.118  12.561  0.00  0.00    +0.000 S 
ATOM      3  O   UNL     1      37.831   1.770  11.175  0.00  0.00    +0.000 OA
ENDROOT
BRANCH   2   4
ATOM      4  C   UNL     1      38.457   0.623  13.446  0.00  0.00    +0.000 A 
ATOM      5  C   UNL     1      39.507   0.336  14.291  0.00  0.00    +0.000 A 
ATOM      6  C   UNL     1      39.562  -0.864  14.971  0.00  0.00    +0.000 A 
ATOM      7  C   UNL     1      38.584  -1.829  14.845  0.00  0.00    +0.000 A 
ATOM      8  C   UNL     1      37.534  -1.539  13.997  0.00  0.00    +0.000 A 
ATOM      9  C   UNL     1      37.474  -0.333  13.311  0.00  0.00    +0.000 A 
BRANCH   7  10
ATOM     10  C   UNL     1      38.650  -3.120  15.579  0.00  0.00    +0.000 C 
ATOM     11  C   UNL     1      39.018  -2.914  17.012  0.00  0.00    +0.000 C 
ATOM     12  C   UNL     1      38.076  -1.915  17.658  0.00  0.00    +0.000 C 
ATOM     13  C   UNL     1      36.659  -2.107  17.178  0.00  0.00    +0.000 C 
ATOM     14  C   UNL     1      36.445  -3.519  16.694  0.00  0.00    +0.000 C 
ATOM     15  C   UNL     1      37.317  -3.832  15.500  0.00  0.00    +0.000 C 
ENDBRANCH   7  10
ENDBRANCH   2   4
BRANCH   2  16
ATOM     16  N   UNL     1      37.302   3.256  13.316  0.00  0.00    +0.000 NA
BRANCH  16  17
ATOM     17  C   UNL     1      37.431   3.483  14.715  0.00  0.00    +0.000 A 
ATOM     18  C   UNL     1      36.573   2.787  15.542  0.00  0.00    +0.000 A 
ATOM     19  C   UNL     1      36.629   2.947  16.909  0.00  0.00    +0.000 A 
ATOM     20  C   UNL     1      37.560   3.816  17.409  0.00  0.00    +0.000 A 
ATOM     21  C   UNL     1      38.440   4.538  16.650  0.00  0.00    +0.000 A 
ATOM     22  C   UNL     1      38.341   4.339  15.266  0.00  0.00    +0.000 A 
BRANCH  21  23
ATOM     23  C   UNL     1      39.441   5.472  17.175  0.00  0.00    +0.000 C 
BRANCH  23  24
ATOM     24  C   UNL     1      39.522   5.582  18.645  0.00  0.00    +0.000 C 
BRANCH  24  25
ATOM     25  C   UNL     1      38.921   6.789  19.213  0.00  0.00    +0.000 A 
ATOM     26  C   UNL     1      37.918   7.473  18.575  0.00  0.00    +0.000 A 
ATOM     27  C   UNL     1      37.317   8.603  19.053  0.00  0.00    +0.000 A 
ATOM     28  C   UNL     1      37.756   9.090  20.269  0.00  0.00    +0.000 A 
ATOM     29  C   UNL     1      38.757   8.394  20.888  0.00  0.00    +0.000 A 
ATOM     30  N   UNL     1      39.338   7.288  20.412  0.00  0.00    +0.000 NA
ENDBRANCH  24  25
ENDBRANCH  23  24
ENDBRANCH  21  23
ENDBRANCH  16  17
ENDBRANCH   2  16
TORSDOF 7
ENDMDL
MODEL 8
REMARK VINA RESULT:      -6.8      1.622      2.183
REMARK  Name = 
REMARK  7 active torsions:
REMARK  status: ('A' for Active; 'I' for Inactive)
REMARK    1  A    between atoms: S_2  and  N_4
REMARK    2  A    between atoms: S_2  and  C_19
REMARK    3  A    between atoms: N_4  and  C_5
REMARK    4  A    between atoms: C_9  and  C_10
REMARK    5  A    between atoms: C_10  and  C_11
REMARK    6  A    between atoms: C_11  and  C_12
REMARK    7  A    between atoms: C_22  and  C_23
REMARK                            x       y       z     vdW  Elec       q    Type
REMARK                         _______ _______ _______ _____ _____    ______ ____
ROOT
ATOM      1  O   UNL     1      37.064  -3.727  16.318  0.00  0.00    +0.000 OA
ATOM      2  S   UNL     1      38.436  -3.112  16.469  0.00  0.00    +0.000 S 
ATOM      3  O   UNL     1      39.334  -4.220  16.975  0.00  0.00    +0.000 OA
ENDROOT
BRANCH   2   4
ATOM      4  C   UNL     1      39.081  -2.592  14.937  0.00  0.00    +0.000 A 
ATOM      5  C   UNL     1      38.575  -3.009  13.725  0.00  0.00    +0.000 A 
ATOM      6  C   UNL     1      39.123  -2.565  12.538  0.00  0.00    +0.000 A 
ATOM      7  C   UNL     1      40.192  -1.695  12.498  0.00  0.00    +0.000 A 
ATOM      8  C   UNL     1      40.698  -1.280  13.715  0.00  0.00    +0.000 A 
ATOM      9  C   UNL     1      40.151  -1.723  14.911  0.00  0.00    +0.000 A 
BRANCH   7  10
ATOM     10  C   UNL     1      40.779  -1.222  11.216  0.00  0.00    +0.000 C 
ATOM     11  C   UNL     1      42.271  -1.279  11.245  0.00  0.00    +0.000 C 
ATOM     12  C   UNL     1      42.736  -2.672  11.629  0.00  0.00    +0.000 C 
ATOM     13  C   UNL     1      41.870  -3.734  10.997  0.00  0.00    +0.000 C 
ATOM     14  C   UNL     1      41.203  -3.208   9.751  0.00  0.00    +0.000 C 
ATOM     15  C   UNL     1      40.265  -2.064  10.068  0.00  0.00    +0.000 C 
ENDBRANCH   7  10
ENDBRANCH   2   4
BRANCH   2  16
ATOM     16  N   UNL     1      38.315  -1.846  17.609  0.00  0.00    +0.000 NA
BRANCH  16  17
ATOM     17  C   UNL     1      37.186  -0.982  17.567  0.00  0.00    +0.000 A 
ATOM     18  C   UNL     1      36.403  -0.922  18.702  0.00  0.00    +0.000 A 
ATOM     19  C   UNL     1      35.291  -0.111  18.749  0.00  0.00    +0.000 A 
ATOM     20  C   UNL     1      34.995   0.626  17.635  0.00  0.00    +0.000 A 
ATOM     21  C   UNL     1      35.725   0.617  16.477  0.00  0.00    +0.000 A 
ATOM     22  C   UNL     1      36.846  -0.225  16.483  0.00  0.00    +0.000 A 
BRANCH  21  23
ATOM     23  C   UNL     1      35.418   1.402  15.277  0.00  0.00    +0.000 C 
BRANCH  23  24
ATOM     24  C   UNL     1      36.502   2.268  14.771  0.00  0.00    +0.000 C 
BRANCH  24  25
ATOM     25  C   UNL     1      36.937   1.985  13.403  0.00  0.00    +0.000 A 
ATOM     26  C   UNL     1      36.900   0.720  12.874  0.00  0.00    +0.000 A 
ATOM     27  C   UNL     1      37.291   0.393  11.606  0.00  0.00    +0.000 A 
ATOM     28  C   UNL     1      37.758   1.415  10.802  0.00  0.00    +0.000 A 
ATOM     29  C   UNL     1      37.787   2.667  11.349  0.00  0.00    +0.000 A 
ATOM     30  N   UNL     1      37.401   2.977  12.591  0.00  0.00    +0.000 NA
ENDBRANCH  24  25
ENDBRANCH  23  24
ENDBRANCH  21  23
ENDBRANCH  16  17
ENDBRANCH   2  16
TORSDOF 7
ENDMDL
MODEL 9
REMARK VINA RESULT:      -6.8     20.838     24.640
REMARK  Name = 
REMARK  7 active torsions:
REMARK  status: ('A' for Active; 'I' for Inactive)
REMARK    1  A    between atoms: S_2  and  N_4
REMARK    2  A    between atoms: S_2  and  C_19
REMARK    3  A    between atoms: N_4  and  C_5
REMARK    4  A    between atoms: C_9  and  C_10
REMARK    5  A    between atoms: C_10  and  C_11
REMARK    6  A    between atoms: C_11  and  C_12
REMARK    7  A    between atoms: C_22  and  C_23
REMARK                            x       y       z     vdW  Elec       q    Type
REMARK                         _______ _______ _______ _____ _____    ______ ____
ROOT
ATOM      1  O   UNL     1      25.906  20.977  20.534  0.00  0.00    +0.000 OA
ATOM      2  S   UNL     1      24.744  20.408  21.314  0.00  0.00    +0.000 S 
ATOM      3  O   UNL     1      24.098  21.583  22.015  0.00  0.00    +0.000 OA
ENDROOT
BRANCH   2   4
ATOM      4  C   UNL     1      23.539  19.717  20.262  0.00  0.00    +0.000 A 
ATOM      5  C   UNL     1      22.432  19.041  20.727  0.00  0.00    +0.000 A 
ATOM      6  C   UNL     1      21.505  18.512  19.851  0.00  0.00    +0.000 A 
ATOM      7  C   UNL     1      21.634  18.628  18.482  0.00  0.00    +0.000 A 
ATOM      8  C   UNL     1      22.745  19.305  18.020  0.00  0.00    +0.000 A 
ATOM      9  C   UNL     1      23.679  19.839  18.897  0.00  0.00    +0.000 A 
BRANCH   7  10
ATOM     10  C   UNL     1      20.633  18.055  17.544  0.00  0.00    +0.000 C 
ATOM     11  C   UNL     1      19.240  18.250  18.047  0.00  0.00    +0.000 C 
ATOM     12  C   UNL     1      18.992  19.717  18.351  0.00  0.00    +0.000 C 
ATOM     13  C   UNL     1      19.644  20.608  17.323  0.00  0.00    +0.000 C 
ATOM     14  C   UNL     1      19.833  19.873  16.020  0.00  0.00    +0.000 C 
ATOM     15  C   UNL     1      20.770  18.697  16.181  0.00  0.00    +0.000 C 
ENDBRANCH   7  10
ENDBRANCH   2   4
BRANCH   2  16
ATOM     16  N   UNL     1      25.372  19.287  22.439  0.00  0.00    +0.000 NA
BRANCH  16  17
ATOM     17  C   UNL     1      26.201  18.230  21.974  0.00  0.00    +0.000 A 
ATOM     18  C   UNL     1      25.569  17.075  21.559  0.00  0.00    +0.000 A 
ATOM     19  C   UNL     1      26.295  16.002  21.094  0.00  0.00    +0.000 A 
ATOM     20  C   UNL     1      27.658  16.124  21.060  0.00  0.00    +0.000 A 
ATOM     21  C   UNL     1      28.352  17.236  21.455  0.00  0.00    +0.000 A 
ATOM     22  C   UNL     1      27.564  18.299  21.920  0.00  0.00    +0.000 A 
BRANCH  21  23
ATOM     23  C   UNL     1      29.810  17.378  21.423  0.00  0.00    +0.000 C 
BRANCH  23  24
ATOM     24  C   UNL     1      30.389  18.366  22.357  0.00  0.00    +0.000 C 
BRANCH  24  25
ATOM     25  C   UNL     1      31.366  17.828  23.303  0.00  0.00    +0.000 A 
ATOM     26  C   UNL     1      31.925  16.585  23.147  0.00  0.00    +0.000 A 
ATOM     27  C   UNL     1      32.841  16.030  23.995  0.00  0.00    +0.000 A 
ATOM     28  C   UNL     1      33.229  16.779  25.090  0.00  0.00    +0.000 A 
ATOM     29  C   UNL     1      32.660  18.014  25.227  0.00  0.00    +0.000 A 
ATOM     30  N   UNL     1      31.764  18.549  24.391  0.00  0.00    +0.000 NA
ENDBRANCH  24  25
ENDBRANCH  23  24
ENDBRANCH  21  23
ENDBRANCH  16  17
ENDBRANCH   2  16
TORSDOF 7
ENDMDL
MODEL 10
REMARK VINA RESULT:      -6.7      4.898      6.658
REMARK  Name = 
REMARK  7 active torsions:
REMARK  status: ('A' for Active; 'I' for Inactive)
REMARK    1  A    between atoms: S_2  and  N_4
REMARK    2  A    between atoms: S_2  and  C_19
REMARK    3  A    between atoms: N_4  and  C_5
REMARK    4  A    between atoms: C_9  and  C_10
REMARK    5  A    between atoms: C_10  and  C_11
REMARK    6  A    between atoms: C_11  and  C_12
REMARK    7  A    between atoms: C_22  and  C_23
REMARK                            x       y       z     vdW  Elec       q    Type
REMARK                         _______ _______ _______ _____ _____    ______ ____
ROOT
ATOM      1  O   UNL     1      35.539   3.716  14.443  0.00  0.00    +0.000 OA
ATOM      2  S   UNL     1      35.474   2.766  15.616  0.00  0.00    +0.000 S 
ATOM      3  O   UNL     1      34.015   2.692  16.012  0.00  0.00    +0.000 OA
ENDROOT
BRANCH   2   4
ATOM      4  C   UNL     1      35.961   1.154  15.168  0.00  0.00    +0.000 A 
ATOM      5  C   UNL     1      36.642   0.869  14.004  0.00  0.00    +0.000 A 
ATOM      6  C   UNL     1      37.006  -0.427  13.696  0.00  0.00    +0.000 A 
ATOM      7  C   UNL     1      36.713  -1.492  14.521  0.00  0.00    +0.000 A 
ATOM      8  C   UNL     1      36.030  -1.203  15.686  0.00  0.00    +0.000 A 
ATOM      9  C   UNL     1      35.662   0.097  16.001  0.00  0.00    +0.000 A 
BRANCH   7  10
ATOM     10  C   UNL     1      37.108  -2.885  14.182  0.00  0.00    +0.000 C 
ATOM     11  C   UNL     1      38.488  -2.938  13.613  0.00  0.00    +0.000 C 
ATOM     12  C   UNL     1      39.469  -2.258  14.551  0.00  0.00    +0.000 C 
ATOM     13  C   UNL     1      39.147  -2.558  15.994  0.00  0.00    +0.000 C 
ATOM     14  C   UNL     1      38.376  -3.849  16.113  0.00  0.00    +0.000 C 
ATOM     15  C   UNL     1      37.038  -3.760  15.415  0.00  0.00    +0.000 C 
ENDBRANCH   7  10
ENDBRANCH   2   4
BRANCH   2  16
ATOM     16  N   UNL     1      36.423   3.425  16.873  0.00  0.00    +0.000 NA
BRANCH  16  17
ATOM     17  C   UNL     1      37.643   4.081  16.549  0.00  0.00    +0.000 A 
ATOM     18  C   UNL     1      38.066   4.001  15.238  0.00  0.00    +0.000 A 
ATOM     19  C   UNL     1      39.236   4.607  14.836  0.00  0.00    +0.000 A 
ATOM     20  C   UNL     1      39.956   5.285  15.782  0.00  0.00    +0.000 A 
ATOM     21  C   UNL     1      39.599   5.406  17.097  0.00  0.00    +0.000 A 
ATOM     22  C   UNL     1      38.400   4.770  17.452  0.00  0.00    +0.000 A 
BRANCH  21  23
ATOM     23  C   UNL     1      40.362   6.129  18.118  0.00  0.00    +0.000 C 
BRANCH  23  24
ATOM     24  C   UNL     1      39.720   6.259  19.442  0.00  0.00    +0.000 C 
BRANCH  24  25
ATOM     25  C   UNL     1      39.176   7.583  19.743  0.00  0.00    +0.000 A 
ATOM     26  C   UNL     1      37.913   7.957  19.359  0.00  0.00    +0.000 A 
ATOM     27  C   UNL     1      37.350   9.176  19.610  0.00  0.00    +0.000 A 
ATOM     28  C   UNL     1      38.113  10.098  20.301  0.00  0.00    +0.000 A 
ATOM     29  C   UNL     1      39.368   9.705  20.674  0.00  0.00    +0.000 A 
ATOM     30  N   UNL     1      39.910   8.509  20.424  0.00  0.00    +0.000 NA
ENDBRANCH  24  25
ENDBRANCH  23  24
ENDBRANCH  21  23
ENDBRANCH  16  17
ENDBRANCH   2  16
TORSDOF 7
ENDMDL
