MODEL 1
REMARK VINA RESULT:      -6.2      0.000      0.000
REMARK  Name = 
REMARK  3 active torsions:
REMARK  status: ('A' for Active; 'I' for Inactive)
REMARK    1  A    between atoms: C_5  and  C_6
REMARK    2  A    between atoms: N_7  and  C_8
REMARK    3  A    between atoms: C_12  and  C_13
REMARK                            x       y       z     vdW  Elec       q    Type
REMARK                         _______ _______ _______ _____ _____    ______ ____
ROOT
ATOM      1  C   UNL     1      15.563  11.068  37.991  0.00  0.00    +0.000 A 
ATOM      2  S   UNL     1      14.595  10.469  39.243  0.00  0.00    +0.000 S 
ATOM      3  C   UNL     1      15.795   9.655  40.154  0.00  0.00    +0.000 A 
ATOM      4  C   UNL     1      16.933   9.881  39.440  0.00  0.00    +0.000 A 
ATOM      5  C   UNL     1      16.819  10.623  38.300  0.00  0.00    +0.000 A 
ATOM      6  C   UNL     1      18.254   9.291  39.961  0.00  0.00    +0.000 C 
ATOM      7  C   UNL     1      18.133   9.144  41.438  0.00  0.00    +0.000 C 
ATOM      8  C   UNL     1      17.000   8.139  41.658  0.00  0.00    +0.000 C 
ATOM      9  C   UNL     1      15.730   8.861  41.441  0.00  0.00    +0.000 C 
ENDROOT
BRANCH   5  10
ATOM     10  C   UNL     1      17.962  10.959  37.410  0.00  0.00    +0.000 C 
ATOM     11  N   UNL     1      18.438  10.078  36.417  0.00  0.00    +0.000 NA
ATOM     12  O   UNL     1      18.518  12.058  37.543  0.00  0.00    +0.000 OA
ENDBRANCH   5  10
BRANCH   1  14
ATOM     13  C   UNL     1      15.186  11.461  35.670  0.00  0.00    +0.000 C 
ATOM     14  N   UNL     1      15.126  11.868  36.864  0.00  0.00    +0.000 NA
BRANCH  13  19
ATOM     15  C   UNL     1      13.962  14.000  30.899  0.00  0.00    +0.000 C 
ATOM     16  C   UNL     1      14.177  13.479  32.282  0.00  0.00    +0.000 A 
ATOM     17  C   UNL     1      13.702  14.049  33.429  0.00  0.00    +0.000 A 
ATOM     18  C   UNL     1      13.987  13.453  34.584  0.00  0.00    +0.000 A 
ATOM     19  C   UNL     1      14.727  12.319  34.560  0.00  0.00    +0.000 A 
ATOM     20  S   UNL     1      15.008  12.117  32.891  0.00  0.00    +0.000 S 
ENDBRANCH  13  19
ENDBRANCH   1  14
TORSDOF 3
ENDMDL
MODEL 2
REMARK VINA RESULT:      -6.0     20.161     22.266
REMARK  Name = 
REMARK  3 active torsions:
REMARK  status: ('A' for Active; 'I' for Inactive)
REMARK    1  A    between atoms: C_5  and  C_6
REMARK    2  A    between atoms: N_7  and  C_8
REMARK    3  A    between atoms: C_12  and  C_13
REMARK                            x       y       z     vdW  Elec       q    Type
REMARK                         _______ _______ _______ _____ _____    ______ ____
ROOT
ATOM      1  C   UNL     1      29.750  22.567  26.725  0.00  0.00    +0.000 A 
ATOM      2  S   UNL     1      28.123  22.244  27.058  0.00  0.00    +0.000 S 
ATOM      3  C   UNL     1      27.418  22.876  25.631  0.00  0.00    +0.000 A 
ATOM      4  C   UNL     1      28.495  23.327  24.927  0.00  0.00    +0.000 A 
ATOM      5  C   UNL     1      29.725  23.168  25.497  0.00  0.00    +0.000 A 
ATOM      6  C   UNL     1      28.253  23.976  23.554  0.00  0.00    +0.000 C 
ATOM      7  C   UNL     1      26.988  23.413  23.003  0.00  0.00    +0.000 C 
ATOM      8  C   UNL     1      25.889  23.845  23.976  0.00  0.00    +0.000 C 
ATOM      9  C   UNL     1      25.984  22.964  25.158  0.00  0.00    +0.000 C 
ENDROOT
BRANCH   5  10
ATOM     10  C   UNL     1      30.997  23.604  24.860  0.00  0.00    +0.000 C 
ATOM     11  N   UNL     1      31.501  24.914  24.988  0.00  0.00    +0.000 NA
ATOM     12  O   UNL     1      31.641  22.782  24.193  0.00  0.00    +0.000 OA
ENDBRANCH   5  10
BRANCH   1  14
ATOM     13  C   UNL     1      30.889  22.469  28.816  0.00  0.00    +0.000 C 
ATOM     14  N   UNL     1      30.886  22.260  27.572  0.00  0.00    +0.000 NA
BRANCH  13  19
ATOM     15  C   UNL     1      34.658  20.753  32.499  0.00  0.00    +0.000 C 
ATOM     16  C   UNL     1      33.814  21.305  31.397  0.00  0.00    +0.000 A 
ATOM     17  C   UNL     1      34.271  22.021  30.327  0.00  0.00    +0.000 A 
ATOM     18  C   UNL     1      33.380  22.441  29.433  0.00  0.00    +0.000 A 
ATOM     19  C   UNL     1      32.075  22.138  29.631  0.00  0.00    +0.000 A 
ATOM     20  S   UNL     1      32.135  21.258  31.090  0.00  0.00    +0.000 S 
ENDBRANCH  13  19
ENDBRANCH   1  14
TORSDOF 3
ENDMDL
MODEL 3
REMARK VINA RESULT:      -6.0      2.245      7.500
REMARK  Name = 
REMARK  3 active torsions:
REMARK  status: ('A' for Active; 'I' for Inactive)
REMARK    1  A    between atoms: C_5  and  C_6
REMARK    2  A    between atoms: N_7  and  C_8
REMARK    3  A    between atoms: C_12  and  C_13
REMARK                            x       y       z     vdW  Elec       q    Type
REMARK                         _______ _______ _______ _____ _____    ______ ____
ROOT
ATOM      1  C   UNL     1      16.559  11.132  36.440  0.00  0.00    +0.000 A 
ATOM      2  S   UNL     1      15.417  12.221  35.831  0.00  0.00    +0.000 S 
ATOM      3  C   UNL     1      15.590  11.897  34.158  0.00  0.00    +0.000 A 
ATOM      4  C   UNL     1      16.552  10.931  34.128  0.00  0.00    +0.000 A 
ATOM      5  C   UNL     1      17.067  10.524  35.325  0.00  0.00    +0.000 A 
ATOM      6  C   UNL     1      16.985  10.372  32.763  0.00  0.00    +0.000 C 
ATOM      7  C   UNL     1      15.840  10.532  31.823  0.00  0.00    +0.000 C 
ATOM      8  C   UNL     1      15.612  12.041  31.710  0.00  0.00    +0.000 C 
ATOM      9  C   UNL     1      14.905  12.467  32.935  0.00  0.00    +0.000 C 
ENDROOT
BRANCH   5  10
ATOM     10  C   UNL     1      18.118   9.482  35.464  0.00  0.00    +0.000 C 
ATOM     11  N   UNL     1      19.439   9.781  35.857  0.00  0.00    +0.000 NA
ATOM     12  O   UNL     1      17.823   8.302  35.229  0.00  0.00    +0.000 OA
ENDBRANCH   5  10
BRANCH   1  14
ATOM     13  C   UNL     1      16.583   9.870  38.462  0.00  0.00    +0.000 C 
ATOM     14  N   UNL     1      16.897  10.919  37.833  0.00  0.00    +0.000 NA
BRANCH  13  19
ATOM     15  C   UNL     1      16.948   9.143  43.943  0.00  0.00    +0.000 C 
ATOM     16  C   UNL     1      17.071   9.358  42.471  0.00  0.00    +0.000 A 
ATOM     17  C   UNL     1      18.239   9.556  41.790  0.00  0.00    +0.000 A 
ATOM     18  C   UNL     1      18.170   9.733  40.473  0.00  0.00    +0.000 A 
ATOM     19  C   UNL     1      16.952   9.706  39.882  0.00  0.00    +0.000 A 
ATOM     20  S   UNL     1      15.920   9.430  41.211  0.00  0.00    +0.000 S 
ENDBRANCH  13  19
ENDBRANCH   1  14
TORSDOF 3
ENDMDL
MODEL 4
REMARK VINA RESULT:      -5.9     19.806     22.251
REMARK  Name = 
REMARK  3 active torsions:
REMARK  status: ('A' for Active; 'I' for Inactive)
REMARK    1  A    between atoms: C_5  and  C_6
REMARK    2  A    between atoms: N_7  and  C_8
REMARK    3  A    between atoms: C_12  and  C_13
REMARK                            x       y       z     vdW  Elec       q    Type
REMARK                         _______ _______ _______ _____ _____    ______ ____
ROOT
ATOM      1  C   UNL     1      33.670   0.130  34.651  0.00  0.00    +0.000 A 
ATOM      2  S   UNL     1      33.476   1.195  33.351  0.00  0.00    +0.000 S 
ATOM      3  C   UNL     1      33.625   2.682  34.187  0.00  0.00    +0.000 A 
ATOM      4  C   UNL     1      33.824   2.293  35.478  0.00  0.00    +0.000 A 
ATOM      5  C   UNL     1      33.849   0.951  35.730  0.00  0.00    +0.000 A 
ATOM      6  C   UNL     1      34.007   3.380  36.551  0.00  0.00    +0.000 C 
ATOM      7  C   UNL     1      34.558   4.590  35.880  0.00  0.00    +0.000 C 
ATOM      8  C   UNL     1      33.484   5.030  34.882  0.00  0.00    +0.000 C 
ATOM      9  C   UNL     1      33.571   4.121  33.721  0.00  0.00    +0.000 C 
ENDROOT
BRANCH   5  10
ATOM     10  C   UNL     1      34.057   0.364  37.080  0.00  0.00    +0.000 C 
ATOM     11  N   UNL     1      32.989   0.047  37.945  0.00  0.00    +0.000 NA
ATOM     12  O   UNL     1      35.214   0.142  37.462  0.00  0.00    +0.000 OA
ENDBRANCH   5  10
BRANCH   1  14
ATOM     13  C   UNL     1      33.586  -1.963  33.513  0.00  0.00    +0.000 C 
ATOM     14  N   UNL     1      33.647  -1.318  34.597  0.00  0.00    +0.000 NA
BRANCH  13  19
ATOM     15  C   UNL     1      33.459  -7.403  34.561  0.00  0.00    +0.000 C 
ATOM     16  C   UNL     1      33.503  -5.995  34.064  0.00  0.00    +0.000 A 
ATOM     17  C   UNL     1      33.571  -5.616  32.753  0.00  0.00    +0.000 A 
ATOM     18  C   UNL     1      33.603  -4.313  32.483  0.00  0.00    +0.000 A 
ATOM     19  C   UNL     1      33.565  -3.439  33.517  0.00  0.00    +0.000 A 
ATOM     20  S   UNL     1      33.486  -4.485  34.861  0.00  0.00    +0.000 S 
ENDBRANCH  13  19
ENDBRANCH   1  14
TORSDOF 3
ENDMDL
MODEL 5
REMARK VINA RESULT:      -5.8     19.688     20.509
REMARK  Name = 
REMARK  3 active torsions:
REMARK  status: ('A' for Active; 'I' for Inactive)
REMARK    1  A    between atoms: C_5  and  C_6
REMARK    2  A    between atoms: N_7  and  C_8
REMARK    3  A    between atoms: C_12  and  C_13
REMARK                            x       y       z     vdW  Elec       q    Type
REMARK                         _______ _______ _______ _____ _____    ______ ____
ROOT
ATOM      1  C   UNL     1      10.121  22.928  22.343  0.00  0.00    +0.000 A 
ATOM      2  S   UNL     1      11.145  24.253  22.582  0.00  0.00    +0.000 S 
ATOM      3  C   UNL     1      12.502  23.719  21.685  0.00  0.00    +0.000 A 
ATOM      4  C   UNL     1      12.106  22.501  21.219  0.00  0.00    +0.000 A 
ATOM      5  C   UNL     1      10.854  22.078  21.562  0.00  0.00    +0.000 A 
ATOM      6  C   UNL     1      13.085  21.696  20.349  0.00  0.00    +0.000 C 
ATOM      7  C   UNL     1      13.995  22.665  19.676  0.00  0.00    +0.000 C 
ATOM      8  C   UNL     1      14.763  23.358  20.804  0.00  0.00    +0.000 C 
ATOM      9  C   UNL     1      13.849  24.350  21.406  0.00  0.00    +0.000 C 
ENDROOT
BRANCH   5  10
ATOM     10  C   UNL     1      10.273  20.777  21.135  0.00  0.00    +0.000 C 
ATOM     11  N   UNL     1       9.618  20.606  19.898  0.00  0.00    +0.000 NA
ATOM     12  O   UNL     1      10.369  19.804  21.896  0.00  0.00    +0.000 OA
ENDBRANCH   5  10
BRANCH   1  14
ATOM     13  C   UNL     1       8.312  23.478  23.794  0.00  0.00    +0.000 C 
ATOM     14  N   UNL     1       8.778  22.765  22.863  0.00  0.00    +0.000 NA
BRANCH  13  19
ATOM     15  C   UNL     1       2.903  22.609  24.630  0.00  0.00    +0.000 C 
ATOM     16  C   UNL     1       4.376  22.854  24.626  0.00  0.00    +0.000 A 
ATOM     17  C   UNL     1       5.156  23.028  25.734  0.00  0.00    +0.000 A 
ATOM     18  C   UNL     1       6.458  23.239  25.552  0.00  0.00    +0.000 A 
ATOM     19  C   UNL     1       6.936  23.267  24.285  0.00  0.00    +0.000 A 
ATOM     20  S   UNL     1       5.524  22.995  23.369  0.00  0.00    +0.000 S 
ENDBRANCH  13  19
ENDBRANCH   1  14
TORSDOF 3
ENDMDL
MODEL 6
REMARK VINA RESULT:      -5.7     20.485     21.406
REMARK  Name = 
REMARK  3 active torsions:
REMARK  status: ('A' for Active; 'I' for Inactive)
REMARK    1  A    between atoms: C_5  and  C_6
REMARK    2  A    between atoms: N_7  and  C_8
REMARK    3  A    between atoms: C_12  and  C_13
REMARK                            x       y       z     vdW  Elec       q    Type
REMARK                         _______ _______ _______ _____ _____    ______ ____
ROOT
ATOM      1  C   UNL     1      26.229  24.681  25.104  0.00  0.00    +0.000 A 
ATOM      2  S   UNL     1      26.980  24.516  26.611  0.00  0.00    +0.000 S 
ATOM      3  C   UNL     1      28.383  23.661  26.128  0.00  0.00    +0.000 A 
ATOM      4  C   UNL     1      28.217  23.529  24.781  0.00  0.00    +0.000 A 
ATOM      5  C   UNL     1      27.086  24.063  24.235  0.00  0.00    +0.000 A 
ATOM      6  C   UNL     1      29.305  22.797  23.978  0.00  0.00    +0.000 C 
ATOM      7  C   UNL     1      30.590  22.943  24.717  0.00  0.00    +0.000 C 
ATOM      8  C   UNL     1      30.376  22.233  26.056  0.00  0.00    +0.000 C 
ATOM      9  C   UNL     1      29.572  23.138  26.904  0.00  0.00    +0.000 C 
ENDROOT
BRANCH   5  10
ATOM     10  C   UNL     1      26.757  24.005  22.786  0.00  0.00    +0.000 C 
ATOM     11  N   UNL     1      27.273  24.926  21.851  0.00  0.00    +0.000 NA
ATOM     12  O   UNL     1      26.001  23.110  22.382  0.00  0.00    +0.000 OA
ENDBRANCH   5  10
BRANCH   1  14
ATOM     13  C   UNL     1      24.427  26.149  25.634  0.00  0.00    +0.000 C 
ATOM     14  N   UNL     1      24.964  25.335  24.832  0.00  0.00    +0.000 NA
BRANCH  13  19
ATOM     15  C   UNL     1      20.161  29.193  23.833  0.00  0.00    +0.000 C 
ATOM     16  C   UNL     1      21.158  28.254  24.428  0.00  0.00    +0.000 A 
ATOM     17  C   UNL     1      20.870  27.211  25.262  0.00  0.00    +0.000 A 
ATOM     18  C   UNL     1      21.882  26.470  25.705  0.00  0.00    +0.000 A 
ATOM     19  C   UNL     1      23.137  26.787  25.305  0.00  0.00    +0.000 A 
ATOM     20  S   UNL     1      22.858  28.139  24.305  0.00  0.00    +0.000 S 
ENDBRANCH  13  19
ENDBRANCH   1  14
TORSDOF 3
ENDMDL
MODEL 7
REMARK VINA RESULT:      -5.7     20.777     23.859
REMARK  Name = 
REMARK  3 active torsions:
REMARK  status: ('A' for Active; 'I' for Inactive)
REMARK    1  A    between atoms: C_5  and  C_6
REMARK    2  A    between atoms: N_7  and  C_8
REMARK    3  A    between atoms: C_12  and  C_13
REMARK                            x       y       z     vdW  Elec       q    Type
REMARK                         _______ _______ _______ _____ _____    ______ ____
ROOT
ATOM      1  C   UNL     1      27.035  26.029  23.157  0.00  0.00    +0.000 A 
ATOM      2  S   UNL     1      26.780  27.068  24.467  0.00  0.00    +0.000 S 
ATOM      3  C   UNL     1      26.252  25.925  25.628  0.00  0.00    +0.000 A 
ATOM      4  C   UNL     1      26.293  24.747  24.944  0.00  0.00    +0.000 A 
ATOM      5  C   UNL     1      26.704  24.794  23.642  0.00  0.00    +0.000 A 
ATOM      6  C   UNL     1      25.879  23.460  25.676  0.00  0.00    +0.000 C 
ATOM      7  C   UNL     1      26.129  23.665  27.130  0.00  0.00    +0.000 C 
ATOM      8  C   UNL     1      25.205  24.812  27.546  0.00  0.00    +0.000 C 
ATOM      9  C   UNL     1      25.828  26.065  27.074  0.00  0.00    +0.000 C 
ENDROOT
BRANCH   5  10
ATOM     10  C   UNL     1      26.804  23.601  22.761  0.00  0.00    +0.000 C 
ATOM     11  N   UNL     1      25.683  23.023  22.131  0.00  0.00    +0.000 NA
ATOM     12  O   UNL     1      27.919  23.094  22.569  0.00  0.00    +0.000 OA
ENDBRANCH   5  10
BRANCH   1  14
ATOM     13  C   UNL     1      28.578  27.025  21.638  0.00  0.00    +0.000 C 
ATOM     14  N   UNL     1      27.501  26.398  21.835  0.00  0.00    +0.000 NA
BRANCH  13  19
ATOM     15  C   UNL     1      29.366  28.992  16.518  0.00  0.00    +0.000 C 
ATOM     16  C   UNL     1      29.332  28.336  17.859  0.00  0.00    +0.000 A 
ATOM     17  C   UNL     1      30.212  27.390  18.304  0.00  0.00    +0.000 A 
ATOM     18  C   UNL     1      30.038  26.906  19.531  0.00  0.00    +0.000 A 
ATOM     19  C   UNL     1      29.004  27.376  20.269  0.00  0.00    +0.000 A 
ATOM     20  S   UNL     1      28.292  28.500  19.203  0.00  0.00    +0.000 S 
ENDBRANCH  13  19
ENDBRANCH   1  14
TORSDOF 3
ENDMDL
MODEL 8
REMARK VINA RESULT:      -5.7     19.136     20.196
REMARK  Name = 
REMARK  3 active torsions:
REMARK  status: ('A' for Active; 'I' for Inactive)
REMARK    1  A    between atoms: C_5  and  C_6
REMARK    2  A    between atoms: N_7  and  C_8
REMARK    3  A    between atoms: C_12  and  C_13
REMARK                            x       y       z     vdW  Elec       q    Type
REMARK                         _______ _______ _______ _____ _____    ______ ____
ROOT
ATOM      1  C   UNL     1      34.287   3.194  35.819  0.00  0.00    +0.000 A 
ATOM      2  S   UNL     1      34.358   2.037  37.050  0.00  0.00    +0.000 S 
ATOM      3  C   UNL     1      33.656   0.711  36.224  0.00  0.00    +0.000 A 
ATOM      4  C   UNL     1      33.383   1.224  34.991  0.00  0.00    +0.000 A 
ATOM      5  C   UNL     1      33.712   2.531  34.770  0.00  0.00    +0.000 A 
ATOM      6  C   UNL     1      32.731   0.306  33.943  0.00  0.00    +0.000 C 
ATOM      7  C   UNL     1      33.112  -1.097  34.271  0.00  0.00    +0.000 C 
ATOM      8  C   UNL     1      32.503  -1.375  35.647  0.00  0.00    +0.000 C 
ATOM      9  C   UNL     1      33.366  -0.712  36.646  0.00  0.00    +0.000 C 
ENDROOT
BRANCH   5  10
ATOM     10  C   UNL     1      33.481   3.239  33.483  0.00  0.00    +0.000 C 
ATOM     11  N   UNL     1      32.639   4.364  33.374  0.00  0.00    +0.000 NA
ATOM     12  O   UNL     1      34.054   2.826  32.465  0.00  0.00    +0.000 OA
ENDBRANCH   5  10
BRANCH   1  14
ATOM     13  C   UNL     1      34.086   5.478  36.474  0.00  0.00    +0.000 C 
ATOM     14  N   UNL     1      34.742   4.569  35.894  0.00  0.00    +0.000 NA
BRANCH  13  19
ATOM     15  C   UNL     1      36.740  10.319  35.999  0.00  0.00    +0.000 C 
ATOM     16  C   UNL     1      35.885   9.123  36.263  0.00  0.00    +0.000 A 
ATOM     17  C   UNL     1      34.780   9.096  37.065  0.00  0.00    +0.000 A 
ATOM     18  C   UNL     1      34.131   7.941  37.191  0.00  0.00    +0.000 A 
ATOM     19  C   UNL     1      34.597   6.862  36.519  0.00  0.00    +0.000 A 
ATOM     20  S   UNL     1      35.957   7.506  35.718  0.00  0.00    +0.000 S 
ENDBRANCH  13  19
ENDBRANCH   1  14
TORSDOF 3
ENDMDL
MODEL 9
REMARK VINA RESULT:      -5.6     19.799     22.048
REMARK  Name = 
REMARK  3 active torsions:
REMARK  status: ('A' for Active; 'I' for Inactive)
REMARK    1  A    between atoms: C_5  and  C_6
REMARK    2  A    between atoms: N_7  and  C_8
REMARK    3  A    between atoms: C_12  and  C_13
REMARK                            x       y       z     vdW  Elec       q    Type
REMARK                         _______ _______ _______ _____ _____    ______ ____
ROOT
ATOM      1  C   UNL     1      30.031  22.454  26.681  0.00  0.00    +0.000 A 
ATOM      2  S   UNL     1      30.324  22.506  25.016  0.00  0.00    +0.000 S 
ATOM      3  C   UNL     1      28.783  23.027  24.480  0.00  0.00    +0.000 A 
ATOM      4  C   UNL     1      28.076  23.146  25.639  0.00  0.00    +0.000 A 
ATOM      5  C   UNL     1      28.726  22.846  26.802  0.00  0.00    +0.000 A 
ATOM      6  C   UNL     1      26.611  23.606  25.560  0.00  0.00    +0.000 C 
ATOM      7  C   UNL     1      26.459  24.425  24.325  0.00  0.00    +0.000 C 
ATOM      8  C   UNL     1      26.762  23.475  23.164  0.00  0.00    +0.000 C 
ATOM      9  C   UNL     1      28.230  23.319  23.102  0.00  0.00    +0.000 C 
ENDROOT
BRANCH   5  10
ATOM     10  C   UNL     1      28.099  22.925  28.148  0.00  0.00    +0.000 C 
ATOM     11  N   UNL     1      28.112  24.101  28.925  0.00  0.00    +0.000 NA
ATOM     12  O   UNL     1      27.539  21.918  28.605  0.00  0.00    +0.000 OA
ENDBRANCH   5  10
BRANCH   1  14
ATOM     13  C   UNL     1      31.714  22.911  28.307  0.00  0.00    +0.000 C 
ATOM     14  N   UNL     1      30.973  22.077  27.716  0.00  0.00    +0.000 NA
BRANCH  13  19
ATOM     15  C   UNL     1      35.771  22.124  31.998  0.00  0.00    +0.000 C 
ATOM     16  C   UNL     1      34.594  22.144  31.079  0.00  0.00    +0.000 A 
ATOM     17  C   UNL     1      33.613  21.195  31.021  0.00  0.00    +0.000 A 
ATOM     18  C   UNL     1      32.631  21.368  30.140  0.00  0.00    +0.000 A 
ATOM     19  C   UNL     1      32.656  22.470  29.354  0.00  0.00    +0.000 A 
ATOM     20  S   UNL     1      34.081  23.246  29.879  0.00  0.00    +0.000 S 
ENDBRANCH  13  19
ENDBRANCH   1  14
TORSDOF 3
ENDMDL
MODEL 10
REMARK VINA RESULT:      -5.5      3.179      4.564
REMARK  Name = 
REMARK  3 active torsions:
REMARK  status: ('A' for Active; 'I' for Inactive)
REMARK    1  A    between atoms: C_5  and  C_6
REMARK    2  A    between atoms: N_7  and  C_8
REMARK    3  A    between atoms: C_12  and  C_13
REMARK                            x       y       z     vdW  Elec       q    Type
REMARK                         _______ _______ _______ _____ _____    ______ ____
ROOT
ATOM      1  C   UNL     1      18.284   9.889  38.679  0.00  0.00    +0.000 A 
ATOM      2  S   UNL     1      19.674  10.171  37.757  0.00  0.00    +0.000 S 
ATOM      3  C   UNL     1      20.842   9.474  38.797  0.00  0.00    +0.000 A 
ATOM      4  C   UNL     1      20.097   9.036  39.850  0.00  0.00    +0.000 A 
ATOM      5  C   UNL     1      18.750   9.251  39.795  0.00  0.00    +0.000 A 
ATOM      6  C   UNL     1      20.816   8.335  41.015  0.00  0.00    +0.000 C 
ATOM      7  C   UNL     1      22.061   7.721  40.475  0.00  0.00    +0.000 C 
ATOM      8  C   UNL     1      22.912   8.890  39.976  0.00  0.00    +0.000 C 
ATOM      9  C   UNL     1      22.343   9.321  38.682  0.00  0.00    +0.000 C 
ENDROOT
BRANCH   5  10
ATOM     10  C   UNL     1      17.799   8.834  40.860  0.00  0.00    +0.000 C 
ATOM     11  N   UNL     1      17.143   7.586  40.849  0.00  0.00    +0.000 NA
ATOM     12  O   UNL     1      17.575   9.613  41.797  0.00  0.00    +0.000 OA
ENDBRANCH   5  10
BRANCH   1  14
ATOM     13  C   UNL     1      16.645  11.248  37.607  0.00  0.00    +0.000 C 
ATOM     14  N   UNL     1      16.925  10.254  38.333  0.00  0.00    +0.000 NA
BRANCH  13  19
ATOM     15  C   UNL     1      11.150  11.825  37.186  0.00  0.00    +0.000 C 
ATOM     16  C   UNL     1      12.642  11.812  37.129  0.00  0.00    +0.000 A 
ATOM     17  C   UNL     1      13.411  12.517  36.247  0.00  0.00    +0.000 A 
ATOM     18  C   UNL     1      14.733  12.390  36.334  0.00  0.00    +0.000 A 
ATOM     19  C   UNL     1      15.242  11.574  37.287  0.00  0.00    +0.000 A 
ATOM     20  S   UNL     1      13.829  10.996  38.047  0.00  0.00    +0.000 S 
ENDBRANCH  13  19
ENDBRANCH   1  14
TORSDOF 3
ENDMDL
