MODEL 1
REMARK VINA RESULT:      -6.2      0.000      0.000
REMARK  Name = 
REMARK  3 active torsions:
REMARK  status: ('A' for Active; 'I' for Inactive)
REMARK    1  A    between atoms: C_2  and  C_5
REMARK    2  A    between atoms: C_5  and  C_7
REMARK    3  A    between atoms: N_10  and  C_11
REMARK                            x       y       z     vdW  Elec       q    Type
REMARK                         _______ _______ _______ _____ _____    ______ ____
ROOT
ATOM      1  C   UNL     1      28.527  24.317  22.627  0.00  0.00    +0.000 A 
ATOM      2  S   UNL     1      29.204  24.024  24.167  0.00  0.00    +0.000 S 
ATOM      3  C   UNL     1      27.965  23.046  24.817  0.00  0.00    +0.000 A 
ATOM      4  N   UNL     1      27.869  22.424  26.121  0.00  0.00    +0.000 NA
ATOM      5  N   UNL     1      27.102  22.998  23.820  0.00  0.00    +0.000 NA
ATOM      6  C   UNL     1      27.354  23.621  22.714  0.00  0.00    +0.000 A 
ATOM      7  N   UNL     1      26.427  23.591  21.595  0.00  0.00    +0.000 NA
ENDROOT
BRANCH   4   8
ATOM      8  C   UNL     1      28.960  22.633  27.040  0.00  0.00    +0.000 A 
ATOM      9  C   UNL     1      30.150  21.944  26.958  0.00  0.00    +0.000 A 
ATOM     10  C   UNL     1      31.177  22.166  27.852  0.00  0.00    +0.000 A 
ATOM     11  C   UNL     1      31.047  23.093  28.865  0.00  0.00    +0.000 A 
ATOM     12  C   UNL     1      29.859  23.787  28.954  0.00  0.00    +0.000 A 
ATOM     13  C   UNL     1      28.828  23.557  28.050  0.00  0.00    +0.000 A 
ENDBRANCH   4   8
BRANCH   1  14
ATOM     14  C   UNL     1      29.055  25.108  21.492  0.00  0.00    +0.000 C 
ATOM     15  O   UNL     1      29.710  24.485  20.623  0.00  0.00    +0.000 OA
BRANCH  14  17
ATOM     16  C   UNL     1      29.296  27.239  22.651  0.00  0.00    +0.000 C 
ATOM     17  C   UNL     1      28.820  26.552  21.393  0.00  0.00    +0.000 C 
ATOM     18  C   UNL     1      29.590  27.089  20.227  0.00  0.00    +0.000 C 
ATOM     19  C   UNL     1      27.363  26.900  21.204  0.00  0.00    +0.000 C 
ENDBRANCH  14  17
ENDBRANCH   1  14
TORSDOF 3
ENDMDL
MODEL 2
REMARK VINA RESULT:      -5.8      1.107      1.652
REMARK  Name = 
REMARK  3 active torsions:
REMARK  status: ('A' for Active; 'I' for Inactive)
REMARK    1  A    between atoms: C_2  and  C_5
REMARK    2  A    between atoms: C_5  and  C_7
REMARK    3  A    between atoms: N_10  and  C_11
REMARK                            x       y       z     vdW  Elec       q    Type
REMARK                         _______ _______ _______ _____ _____    ______ ____
ROOT
ATOM      1  C   UNL     1      27.966  24.365  22.563  0.00  0.00    +0.000 A 
ATOM      2  S   UNL     1      28.227  24.217  24.244  0.00  0.00    +0.000 S 
ATOM      3  C   UNL     1      26.818  23.344  24.653  0.00  0.00    +0.000 A 
ATOM      4  N   UNL     1      26.373  22.863  25.944  0.00  0.00    +0.000 NA
ATOM      5  N   UNL     1      26.225  23.215  23.481  0.00  0.00    +0.000 NA
ATOM      6  C   UNL     1      26.773  23.714  22.420  0.00  0.00    +0.000 A 
ATOM      7  N   UNL     1      26.150  23.591  21.112  0.00  0.00    +0.000 NA
ENDROOT
BRANCH   4   8
ATOM      8  C   UNL     1      27.213  23.138  27.083  0.00  0.00    +0.000 A 
ATOM      9  C   UNL     1      28.294  22.355  27.421  0.00  0.00    +0.000 A 
ATOM     10  C   UNL     1      29.081  22.643  28.517  0.00  0.00    +0.000 A 
ATOM     11  C   UNL     1      28.812  23.734  29.316  0.00  0.00    +0.000 A 
ATOM     12  C   UNL     1      27.731  24.524  28.983  0.00  0.00    +0.000 A 
ATOM     13  C   UNL     1      26.942  24.227  27.878  0.00  0.00    +0.000 A 
ENDBRANCH   4   8
BRANCH   1  14
ATOM     14  C   UNL     1      28.796  25.020  21.527  0.00  0.00    +0.000 C 
ATOM     15  O   UNL     1      29.521  24.274  20.827  0.00  0.00    +0.000 OA
BRANCH  14  17
ATOM     16  C   UNL     1      29.619  26.849  20.142  0.00  0.00    +0.000 C 
ATOM     17  C   UNL     1      28.769  26.473  21.331  0.00  0.00    +0.000 C 
ATOM     18  C   UNL     1      27.358  26.900  21.074  0.00  0.00    +0.000 C 
ATOM     19  C   UNL     1      29.287  27.237  22.526  0.00  0.00    +0.000 C 
ENDBRANCH  14  17
ENDBRANCH   1  14
TORSDOF 3
ENDMDL
MODEL 3
REMARK VINA RESULT:      -5.7     31.686     33.510
REMARK  Name = 
REMARK  3 active torsions:
REMARK  status: ('A' for Active; 'I' for Inactive)
REMARK    1  A    between atoms: C_2  and  C_5
REMARK    2  A    between atoms: C_5  and  C_7
REMARK    3  A    between atoms: N_10  and  C_11
REMARK                            x       y       z     vdW  Elec       q    Type
REMARK                         _______ _______ _______ _____ _____    ______ ____
ROOT
ATOM      1  C   UNL     1      19.345  -7.781  26.536  0.00  0.00    +0.000 A 
ATOM      2  S   UNL     1      20.770  -7.905  25.602  0.00  0.00    +0.000 S 
ATOM      3  C   UNL     1      20.865  -6.292  25.052  0.00  0.00    +0.000 A 
ATOM      4  N   UNL     1      21.849  -5.667  24.193  0.00  0.00    +0.000 NA
ATOM      5  N   UNL     1      19.802  -5.747  25.613  0.00  0.00    +0.000 NA
ATOM      6  C   UNL     1      19.025  -6.464  26.359  0.00  0.00    +0.000 A 
ATOM      7  N   UNL     1      17.845  -5.899  26.994  0.00  0.00    +0.000 NA
ENDROOT
BRANCH   4   8
ATOM      8  C   UNL     1      22.927  -6.491  23.706  0.00  0.00    +0.000 A 
ATOM      9  C   UNL     1      24.204  -6.433  24.220  0.00  0.00    +0.000 A 
ATOM     10  C   UNL     1      25.216  -7.235  23.734  0.00  0.00    +0.000 A 
ATOM     11  C   UNL     1      24.983  -8.129  22.710  0.00  0.00    +0.000 A 
ATOM     12  C   UNL     1      23.706  -8.193  22.191  0.00  0.00    +0.000 A 
ATOM     13  C   UNL     1      22.692  -7.381  22.685  0.00  0.00    +0.000 A 
ENDBRANCH   4   8
BRANCH   1  14
ATOM     14  C   UNL     1      18.637  -8.810  27.329  0.00  0.00    +0.000 C 
ATOM     15  O   UNL     1      18.825  -8.799  28.569  0.00  0.00    +0.000 OA
BRANCH  14  17
ATOM     16  C   UNL     1      18.557 -11.007  26.275  0.00  0.00    +0.000 C 
ATOM     17  C   UNL     1      17.758  -9.795  26.691  0.00  0.00    +0.000 C 
ATOM     18  C   UNL     1      16.712 -10.219  27.673  0.00  0.00    +0.000 C 
ATOM     19  C   UNL     1      17.067  -9.257  25.461  0.00  0.00    +0.000 C 
ENDBRANCH  14  17
ENDBRANCH   1  14
TORSDOF 3
ENDMDL
MODEL 4
REMARK VINA RESULT:      -5.6      2.957      4.552
REMARK  Name = 
REMARK  3 active torsions:
REMARK  status: ('A' for Active; 'I' for Inactive)
REMARK    1  A    between atoms: C_2  and  C_5
REMARK    2  A    between atoms: C_5  and  C_7
REMARK    3  A    between atoms: N_10  and  C_11
REMARK                            x       y       z     vdW  Elec       q    Type
REMARK                         _______ _______ _______ _____ _____    ______ ____
ROOT
ATOM      1  C   UNL     1      28.997  27.448  20.808  0.00  0.00    +0.000 A 
ATOM      2  S   UNL     1      28.296  26.392  21.954  0.00  0.00    +0.000 S 
ATOM      3  C   UNL     1      28.958  24.921  21.395  0.00  0.00    +0.000 A 
ATOM      4  N   UNL     1      28.784  23.578  21.908  0.00  0.00    +0.000 NA
ATOM      5  N   UNL     1      29.677  25.318  20.363  0.00  0.00    +0.000 NA
ATOM      6  C   UNL     1      29.718  26.572  20.046  0.00  0.00    +0.000 A 
ATOM      7  N   UNL     1      30.499  27.046  18.915  0.00  0.00    +0.000 NA
ENDROOT
BRANCH   4   8
ATOM      8  C   UNL     1      27.936  23.411  23.062  0.00  0.00    +0.000 A 
ATOM      9  C   UNL     1      28.431  23.217  24.332  0.00  0.00    +0.000 A 
ATOM     10  C   UNL     1      27.594  23.060  25.418  0.00  0.00    +0.000 A 
ATOM     11  C   UNL     1      26.223  23.093  25.268  0.00  0.00    +0.000 A 
ATOM     12  C   UNL     1      25.720  23.287  23.998  0.00  0.00    +0.000 A 
ATOM     13  C   UNL     1      26.569  23.443  22.909  0.00  0.00    +0.000 A 
ENDBRANCH   4   8
BRANCH   1  14
ATOM     14  C   UNL     1      28.869  28.916  20.666  0.00  0.00    +0.000 C 
ATOM     15  O   UNL     1      29.690  29.620  21.301  0.00  0.00    +0.000 OA
BRANCH  14  17
ATOM     16  C   UNL     1      27.218  30.703  20.522  0.00  0.00    +0.000 C 
ATOM     17  C   UNL     1      27.830  29.514  19.822  0.00  0.00    +0.000 C 
ATOM     18  C   UNL     1      28.453  29.973  18.541  0.00  0.00    +0.000 C 
ATOM     19  C   UNL     1      26.715  28.551  19.492  0.00  0.00    +0.000 C 
ENDBRANCH  14  17
ENDBRANCH   1  14
TORSDOF 3
ENDMDL
MODEL 5
REMARK VINA RESULT:      -5.5     22.333     24.362
REMARK  Name = 
REMARK  3 active torsions:
REMARK  status: ('A' for Active; 'I' for Inactive)
REMARK    1  A    between atoms: C_2  and  C_5
REMARK    2  A    between atoms: C_5  and  C_7
REMARK    3  A    between atoms: N_10  and  C_11
REMARK                            x       y       z     vdW  Elec       q    Type
REMARK                         _______ _______ _______ _____ _____    ______ ____
ROOT
ATOM      1  C   UNL     1      34.838   5.360  36.544  0.00  0.00    +0.000 A 
ATOM      2  S   UNL     1      34.621   3.852  35.772  0.00  0.00    +0.000 S 
ATOM      3  C   UNL     1      33.707   4.374  34.428  0.00  0.00    +0.000 A 
ATOM      4  N   UNL     1      33.163   3.606  33.328  0.00  0.00    +0.000 NA
ATOM      5  N   UNL     1      33.618   5.672  34.644  0.00  0.00    +0.000 NA
ATOM      6  C   UNL     1      34.172   6.194  35.692  0.00  0.00    +0.000 A 
ATOM      7  N   UNL     1      34.095   7.621  35.963  0.00  0.00    +0.000 NA
ENDROOT
BRANCH   4   8
ATOM      8  C   UNL     1      33.404   2.184  33.325  0.00  0.00    +0.000 A 
ATOM      9  C   UNL     1      34.279   1.576  32.452  0.00  0.00    +0.000 A 
ATOM     10  C   UNL     1      34.490   0.213  32.473  0.00  0.00    +0.000 A 
ATOM     11  C   UNL     1      33.830  -0.594  33.375  0.00  0.00    +0.000 A 
ATOM     12  C   UNL     1      32.953   0.008  34.253  0.00  0.00    +0.000 A 
ATOM     13  C   UNL     1      32.744   1.382  34.226  0.00  0.00    +0.000 A 
ENDBRANCH   4   8
BRANCH   1  14
ATOM     14  C   UNL     1      35.552   5.690  37.799  0.00  0.00    +0.000 C 
ATOM     15  O   UNL     1      34.881   5.660  38.857  0.00  0.00    +0.000 OA
BRANCH  14  17
ATOM     16  C   UNL     1      37.550   5.865  39.184  0.00  0.00    +0.000 C 
ATOM     17  C   UNL     1      36.977   6.037  37.798  0.00  0.00    +0.000 C 
ATOM     18  C   UNL     1      37.697   5.122  36.858  0.00  0.00    +0.000 C 
ATOM     19  C   UNL     1      37.235   7.462  37.369  0.00  0.00    +0.000 C 
ENDBRANCH  14  17
ENDBRANCH   1  14
TORSDOF 3
ENDMDL
MODEL 6
REMARK VINA RESULT:      -5.5     34.082     35.601
REMARK  Name = 
REMARK  3 active torsions:
REMARK  status: ('A' for Active; 'I' for Inactive)
REMARK    1  A    between atoms: C_2  and  C_5
REMARK    2  A    between atoms: C_5  and  C_7
REMARK    3  A    between atoms: N_10  and  C_11
REMARK                            x       y       z     vdW  Elec       q    Type
REMARK                         _______ _______ _______ _____ _____    ______ ____
ROOT
ATOM      1  C   UNL     1      14.571  -9.701  25.352  0.00  0.00    +0.000 A 
ATOM      2  S   UNL     1      15.835  -8.558  25.475  0.00  0.00    +0.000 S 
ATOM      3  C   UNL     1      16.622  -9.184  26.854  0.00  0.00    +0.000 A 
ATOM      4  N   UNL     1      17.803  -8.703  27.540  0.00  0.00    +0.000 NA
ATOM      5  N   UNL     1      15.875 -10.231  27.145  0.00  0.00    +0.000 NA
ATOM      6  C   UNL     1      14.845 -10.515  26.414  0.00  0.00    +0.000 A 
ATOM      7  N   UNL     1      13.998 -11.661  26.704  0.00  0.00    +0.000 NA
ENDROOT
BRANCH   4   8
ATOM      8  C   UNL     1      18.443  -7.523  27.015  0.00  0.00    +0.000 A 
ATOM      9  C   UNL     1      18.011  -6.247  27.302  0.00  0.00    +0.000 A 
ATOM     10  C   UNL     1      18.645  -5.136  26.785  0.00  0.00    +0.000 A 
ATOM     11  C   UNL     1      19.741  -5.264  25.958  0.00  0.00    +0.000 A 
ATOM     12  C   UNL     1      20.180  -6.539  25.666  0.00  0.00    +0.000 A 
ATOM     13  C   UNL     1      19.536  -7.655  26.190  0.00  0.00    +0.000 A 
ENDBRANCH   4   8
BRANCH   1  14
ATOM     14  C   UNL     1      13.470  -9.796  24.367  0.00  0.00    +0.000 C 
ATOM     15  O   UNL     1      13.713 -10.413  23.303  0.00  0.00    +0.000 OA
BRANCH  14  17
ATOM     16  C   UNL     1      11.843  -8.164  23.572  0.00  0.00    +0.000 C 
ATOM     17  C   UNL     1      12.158  -9.196  24.629  0.00  0.00    +0.000 C 
ATOM     18  C   UNL     1      11.117 -10.270  24.583  0.00  0.00    +0.000 C 
ATOM     19  C   UNL     1      12.080  -8.514  25.973  0.00  0.00    +0.000 C 
ENDBRANCH  14  17
ENDBRANCH   1  14
TORSDOF 3
ENDMDL
MODEL 7
REMARK VINA RESULT:      -5.4      3.728      7.530
REMARK  Name = 
REMARK  3 active torsions:
REMARK  status: ('A' for Active; 'I' for Inactive)
REMARK    1  A    between atoms: C_2  and  C_5
REMARK    2  A    between atoms: C_5  and  C_7
REMARK    3  A    between atoms: N_10  and  C_11
REMARK                            x       y       z     vdW  Elec       q    Type
REMARK                         _______ _______ _______ _____ _____    ______ ____
ROOT
ATOM      1  C   UNL     1      27.048  23.467  29.160  0.00  0.00    +0.000 A 
ATOM      2  S   UNL     1      27.052  23.570  27.455  0.00  0.00    +0.000 S 
ATOM      3  C   UNL     1      25.740  24.644  27.254  0.00  0.00    +0.000 A 
ATOM      4  N   UNL     1      25.167  25.182  26.038  0.00  0.00    +0.000 NA
ATOM      5  N   UNL     1      25.371  24.863  28.501  0.00  0.00    +0.000 NA
ATOM      6  C   UNL     1      26.005  24.291  29.474  0.00  0.00    +0.000 A 
ATOM      7  N   UNL     1      25.627  24.509  30.861  0.00  0.00    +0.000 NA
ENDROOT
BRANCH   4   8
ATOM      8  C   UNL     1      25.761  24.781  24.787  0.00  0.00    +0.000 A 
ATOM      9  C   UNL     1      26.747  25.509  24.160  0.00  0.00    +0.000 A 
ATOM     10  C   UNL     1      27.298  25.099  22.963  0.00  0.00    +0.000 A 
ATOM     11  C   UNL     1      26.878  23.938  22.349  0.00  0.00    +0.000 A 
ATOM     12  C   UNL     1      25.891  23.203  22.972  0.00  0.00    +0.000 A 
ATOM     13  C   UNL     1      25.340  23.622  24.178  0.00  0.00    +0.000 A 
ENDBRANCH   4   8
BRANCH   1  14
ATOM     14  C   UNL     1      27.930  22.697  30.067  0.00  0.00    +0.000 C 
ATOM     15  O   UNL     1      27.448  21.660  30.580  0.00  0.00    +0.000 OA
BRANCH  14  17
ATOM     16  C   UNL     1      29.827  22.418  31.571  0.00  0.00    +0.000 C 
ATOM     17  C   UNL     1      29.301  23.132  30.349  0.00  0.00    +0.000 C 
ATOM     18  C   UNL     1      30.168  22.791  29.178  0.00  0.00    +0.000 C 
ATOM     19  C   UNL     1      29.407  24.616  30.604  0.00  0.00    +0.000 C 
ENDBRANCH  14  17
ENDBRANCH   1  14
TORSDOF 3
ENDMDL
MODEL 8
REMARK VINA RESULT:      -5.4     22.990     26.148
REMARK  Name = 
REMARK  3 active torsions:
REMARK  status: ('A' for Active; 'I' for Inactive)
REMARK    1  A    between atoms: C_2  and  C_5
REMARK    2  A    between atoms: C_5  and  C_7
REMARK    3  A    between atoms: N_10  and  C_11
REMARK                            x       y       z     vdW  Elec       q    Type
REMARK                         _______ _______ _______ _____ _____    ______ ____
ROOT
ATOM      1  C   UNL     1      33.488   0.585  36.175  0.00  0.00    +0.000 A 
ATOM      2  S   UNL     1      34.077   2.159  35.870  0.00  0.00    +0.000 S 
ATOM      3  C   UNL     1      34.416   2.629  37.475  0.00  0.00    +0.000 A 
ATOM      4  N   UNL     1      34.954   3.876  37.977  0.00  0.00    +0.000 NA
ATOM      5  N   UNL     1      34.059   1.557  38.157  0.00  0.00    +0.000 NA
ATOM      6  C   UNL     1      33.593   0.521  37.536  0.00  0.00    +0.000 A 
ATOM      7  N   UNL     1      33.190  -0.678  38.253  0.00  0.00    +0.000 NA
ENDROOT
BRANCH   4   8
ATOM      8  C   UNL     1      35.266   4.902  37.014  0.00  0.00    +0.000 A 
ATOM      9  C   UNL     1      36.468   4.958  36.344  0.00  0.00    +0.000 A 
ATOM     10  C   UNL     1      36.738   5.953  35.427  0.00  0.00    +0.000 A 
ATOM     11  C   UNL     1      35.808   6.930  35.145  0.00  0.00    +0.000 A 
ATOM     12  C   UNL     1      34.601   6.880  35.811  0.00  0.00    +0.000 A 
ATOM     13  C   UNL     1      34.336   5.876  36.735  0.00  0.00    +0.000 A 
ENDBRANCH   4   8
BRANCH   1  14
ATOM     14  C   UNL     1      32.994  -0.444  35.233  0.00  0.00    +0.000 C 
ATOM     15  O   UNL     1      31.759  -0.660  35.226  0.00  0.00    +0.000 OA
BRANCH  14  17
ATOM     16  C   UNL     1      34.217  -0.343  33.127  0.00  0.00    +0.000 C 
ATOM     17  C   UNL     1      33.909  -1.174  34.350  0.00  0.00    +0.000 C 
ATOM     18  C   UNL     1      35.183  -1.441  35.088  0.00  0.00    +0.000 C 
ATOM     19  C   UNL     1      33.345  -2.493  33.878  0.00  0.00    +0.000 C 
ENDBRANCH  14  17
ENDBRANCH   1  14
TORSDOF 3
ENDMDL
MODEL 9
REMARK VINA RESULT:      -5.4     28.280     30.686
REMARK  Name = 
REMARK  3 active torsions:
REMARK  status: ('A' for Active; 'I' for Inactive)
REMARK    1  A    between atoms: C_2  and  C_5
REMARK    2  A    between atoms: C_5  and  C_7
REMARK    3  A    between atoms: N_10  and  C_11
REMARK                            x       y       z     vdW  Elec       q    Type
REMARK                         _______ _______ _______ _____ _____    ______ ____
ROOT
ATOM      1  C   UNL     1      33.586  -3.774  34.412  0.00  0.00    +0.000 A 
ATOM      2  S   UNL     1      33.807  -4.474  32.869  0.00  0.00    +0.000 S 
ATOM      3  C   UNL     1      32.715  -5.778  33.013  0.00  0.00    +0.000 A 
ATOM      4  N   UNL     1      32.383  -6.813  32.056  0.00  0.00    +0.000 NA
ATOM      5  N   UNL     1      32.243  -5.607  34.233  0.00  0.00    +0.000 NA
ATOM      6  C   UNL     1      32.658  -4.616  34.955  0.00  0.00    +0.000 A 
ATOM      7  N   UNL     1      32.160  -4.396  36.304  0.00  0.00    +0.000 NA
ENDROOT
BRANCH   4   8
ATOM      8  C   UNL     1      33.047  -6.775  30.778  0.00  0.00    +0.000 A 
ATOM      9  C   UNL     1      34.096  -7.609  30.455  0.00  0.00    +0.000 A 
ATOM     10  C   UNL     1      34.712  -7.550  29.222  0.00  0.00    +0.000 A 
ATOM     11  C   UNL     1      34.297  -6.650  28.263  0.00  0.00    +0.000 A 
ATOM     12  C   UNL     1      33.248  -5.813  28.579  0.00  0.00    +0.000 A 
ATOM     13  C   UNL     1      32.631  -5.877  29.824  0.00  0.00    +0.000 A 
ENDBRANCH   4   8
BRANCH   1  14
ATOM     14  C   UNL     1      34.221  -2.579  35.012  0.00  0.00    +0.000 C 
ATOM     15  O   UNL     1      35.228  -2.775  35.733  0.00  0.00    +0.000 OA
BRANCH  14  17
ATOM     16  C   UNL     1      34.312  -0.256  35.745  0.00  0.00    +0.000 C 
ATOM     17  C   UNL     1      33.694  -1.232  34.773  0.00  0.00    +0.000 C 
ATOM     18  C   UNL     1      34.046  -0.816  33.379  0.00  0.00    +0.000 C 
ATOM     19  C   UNL     1      32.195  -1.151  34.931  0.00  0.00    +0.000 C 
ENDBRANCH  14  17
ENDBRANCH   1  14
TORSDOF 3
ENDMDL
MODEL 10
REMARK VINA RESULT:      -5.3      4.545      6.249
REMARK  Name = 
REMARK  3 active torsions:
REMARK  status: ('A' for Active; 'I' for Inactive)
REMARK    1  A    between atoms: C_2  and  C_5
REMARK    2  A    between atoms: C_5  and  C_7
REMARK    3  A    between atoms: N_10  and  C_11
REMARK                            x       y       z     vdW  Elec       q    Type
REMARK                         _______ _______ _______ _____ _____    ______ ____
ROOT
ATOM      1  C   UNL     1      26.940  24.361  29.075  0.00  0.00    +0.000 A 
ATOM      2  S   UNL     1      28.253  24.327  27.983  0.00  0.00    +0.000 S 
ATOM      3  C   UNL     1      28.738  22.706  28.205  0.00  0.00    +0.000 A 
ATOM      4  N   UNL     1      29.820  21.973  27.581  0.00  0.00    +0.000 NA
ATOM      5  N   UNL     1      27.870  22.280  29.103  0.00  0.00    +0.000 NA
ATOM      6  C   UNL     1      26.961  23.082  29.555  0.00  0.00    +0.000 A 
ATOM      7  N   UNL     1      25.987  22.648  30.545  0.00  0.00    +0.000 NA
ENDROOT
BRANCH   4   8
ATOM      8  C   UNL     1      30.634  22.677  26.621  0.00  0.00    +0.000 A 
ATOM      9  C   UNL     1      30.437  22.580  25.261  0.00  0.00    +0.000 A 
ATOM     10  C   UNL     1      31.232  23.266  24.366  0.00  0.00    +0.000 A 
ATOM     11  C   UNL     1      32.257  24.078  24.804  0.00  0.00    +0.000 A 
ATOM     12  C   UNL     1      32.459  24.180  26.165  0.00  0.00    +0.000 A 
ATOM     13  C   UNL     1      31.655  23.485  27.061  0.00  0.00    +0.000 A 
ENDBRANCH   4   8
BRANCH   1  14
ATOM     14  C   UNL     1      26.019  25.468  29.419  0.00  0.00    +0.000 C 
ATOM     15  O   UNL     1      26.089  25.921  30.586  0.00  0.00    +0.000 OA
BRANCH  14  17
ATOM     16  C   UNL     1      23.809  26.456  29.135  0.00  0.00    +0.000 C 
ATOM     17  C   UNL     1      25.071  26.005  28.438  0.00  0.00    +0.000 C 
ATOM     18  C   UNL     1      25.695  27.182  27.757  0.00  0.00    +0.000 C 
ATOM     19  C   UNL     1      24.678  24.997  27.386  0.00  0.00    +0.000 C 
ENDBRANCH  14  17
ENDBRANCH   1  14
TORSDOF 3
ENDMDL
