MODEL 1
REMARK VINA RESULT:      -7.0      0.000      0.000
REMARK  Name = 
REMARK  5 active torsions:
REMARK  status: ('A' for Active; 'I' for Inactive)
REMARK    1  A    between atoms: C_2  and  O_3
REMARK    2  A    between atoms: O_3  and  C_4
REMARK    3  A    between atoms: C_6  and  O_7
REMARK    4  A    between atoms: O_7  and  C_8
REMARK    5  A    between atoms: C_16  and  C_17
REMARK                            x       y       z     vdW  Elec       q    Type
REMARK                         _______ _______ _______ _____ _____    ______ ____
ROOT
ATOM      1  C   UNL     1      27.903  22.915  26.237  0.00  0.00    +0.000 A 
ATOM      2  C   UNL     1      27.489  22.900  27.550  0.00  0.00    +0.000 A 
ATOM      3  C   UNL     1      26.391  23.653  27.979  0.00  0.00    +0.000 A 
ATOM      4  C   UNL     1      25.736  24.415  27.032  0.00  0.00    +0.000 A 
ATOM      5  C   UNL     1      24.646  25.169  27.429  0.00  0.00    +0.000 A 
ATOM      6  C   UNL     1      23.973  25.942  26.501  0.00  0.00    +0.000 A 
ATOM      7  C   UNL     1      24.386  25.958  25.184  0.00  0.00    +0.000 A 
ATOM      8  C   UNL     1      25.474  25.194  24.831  0.00  0.00    +0.000 A 
ATOM      9  C   UNL     1      26.167  24.413  25.729  0.00  0.00    +0.000 A 
ATOM     10  C   UNL     1      27.253  23.673  25.290  0.00  0.00    +0.000 A 
ENDROOT
BRANCH  10  11
ATOM     11  C   UNL     1      27.653  23.722  23.888  0.00  0.00    +0.000 A 
ATOM     12  C   UNL     1      28.702  24.403  23.303  0.00  0.00    +0.000 A 
ATOM     13  C   UNL     1      28.681  24.146  21.948  0.00  0.00    +0.000 A 
ATOM     14  N   UNL     1      29.591  24.647  20.948  0.00  0.00    +0.000 NA
ATOM     15  O   UNL     1      27.660  23.347  21.752  0.00  0.00    +0.000 OA
ATOM     16  N   UNL     1      27.045  23.085  22.859  0.00  0.00    +0.000 NA
ENDBRANCH  10  11
BRANCH   1  17
ATOM     17  O   UNL     1      28.994  22.164  25.823  0.00  0.00    +0.000 OA
BRANCH  17  19
ATOM     18  C   UNL     1      31.239  22.997  25.528  0.00  0.00    +0.000 C 
ATOM     19  C   UNL     1      30.255  22.291  26.467  0.00  0.00    +0.000 C 
ENDBRANCH  17  19
ENDBRANCH   1  17
BRANCH   3  20
ATOM     20  O   UNL     1      25.955  23.653  29.298  0.00  0.00    +0.000 OA
BRANCH  20  21
ATOM     21  C   UNL     1      26.756  22.961  30.236  0.00  0.00    +0.000 C 
ATOM     22  C   UNL     1      26.231  21.585  30.538  0.00  0.00    +0.000 C 
ENDBRANCH  20  21
ENDBRANCH   3  20
TORSDOF 5
ENDMDL
MODEL 2
REMARK VINA RESULT:      -6.4      2.812      6.701
REMARK  Name = 
REMARK  5 active torsions:
REMARK  status: ('A' for Active; 'I' for Inactive)
REMARK    1  A    between atoms: C_2  and  O_3
REMARK    2  A    between atoms: O_3  and  C_4
REMARK    3  A    between atoms: C_6  and  O_7
REMARK    4  A    between atoms: O_7  and  C_8
REMARK    5  A    between atoms: C_16  and  C_17
REMARK                            x       y       z     vdW  Elec       q    Type
REMARK                         _______ _______ _______ _____ _____    ______ ____
ROOT
ATOM      1  C   UNL     1      25.800  23.978  26.326  0.00  0.00    +0.000 A 
ATOM      2  C   UNL     1      26.062  23.872  24.978  0.00  0.00    +0.000 A 
ATOM      3  C   UNL     1      27.282  23.377  24.507  0.00  0.00    +0.000 A 
ATOM      4  C   UNL     1      28.218  22.999  25.447  0.00  0.00    +0.000 A 
ATOM      5  C   UNL     1      29.435  22.505  25.008  0.00  0.00    +0.000 A 
ATOM      6  C   UNL     1      30.390  22.119  25.930  0.00  0.00    +0.000 A 
ATOM      7  C   UNL     1      30.131  22.224  27.281  0.00  0.00    +0.000 A 
ATOM      8  C   UNL     1      28.910  22.719  27.676  0.00  0.00    +0.000 A 
ATOM      9  C   UNL     1      27.935  23.112  26.786  0.00  0.00    +0.000 A 
ATOM     10  C   UNL     1      26.732  23.601  27.267  0.00  0.00    +0.000 A 
ENDROOT
BRANCH  10  11
ATOM     11  C   UNL     1      26.503  23.694  28.705  0.00  0.00    +0.000 A 
ATOM     12  C   UNL     1      26.565  24.800  29.529  0.00  0.00    +0.000 A 
ATOM     13  C   UNL     1      26.272  24.397  30.815  0.00  0.00    +0.000 A 
ATOM     14  N   UNL     1      26.220  25.218  32.000  0.00  0.00    +0.000 NA
ATOM     15  O   UNL     1      26.047  23.108  30.743  0.00  0.00    +0.000 OA
ATOM     16  N   UNL     1      26.174  22.672  29.531  0.00  0.00    +0.000 NA
ENDBRANCH  10  11
BRANCH   1  17
ATOM     17  O   UNL     1      24.587  24.470  26.783  0.00  0.00    +0.000 OA
BRANCH  17  19
ATOM     18  C   UNL     1      23.149  26.223  27.608  0.00  0.00    +0.000 C 
ATOM     19  C   UNL     1      24.239  25.837  26.604  0.00  0.00    +0.000 C 
ENDBRANCH  17  19
ENDBRANCH   1  17
BRANCH   3  20
ATOM     20  O   UNL     1      27.567  23.261  23.152  0.00  0.00    +0.000 OA
BRANCH  20  21
ATOM     21  C   UNL     1      27.728  24.464  22.427  0.00  0.00    +0.000 C 
ATOM     22  C   UNL     1      29.034  24.518  21.682  0.00  0.00    +0.000 C 
ENDBRANCH  20  21
ENDBRANCH   3  20
TORSDOF 5
ENDMDL
MODEL 3
REMARK VINA RESULT:      -6.3     18.433     20.682
REMARK  Name = 
REMARK  5 active torsions:
REMARK  status: ('A' for Active; 'I' for Inactive)
REMARK    1  A    between atoms: C_2  and  O_3
REMARK    2  A    between atoms: O_3  and  C_4
REMARK    3  A    between atoms: C_6  and  O_7
REMARK    4  A    between atoms: O_7  and  C_8
REMARK    5  A    between atoms: C_16  and  C_17
REMARK                            x       y       z     vdW  Elec       q    Type
REMARK                         _______ _______ _______ _____ _____    ______ ____
ROOT
ATOM      1  C   UNL     1      14.623  11.597  37.128  0.00  0.00    +0.000 A 
ATOM      2  C   UNL     1      15.049  11.079  38.331  0.00  0.00    +0.000 A 
ATOM      3  C   UNL     1      16.262  10.391  38.443  0.00  0.00    +0.000 A 
ATOM      4  C   UNL     1      17.019  10.250  37.298  0.00  0.00    +0.000 A 
ATOM      5  C   UNL     1      18.224   9.575  37.380  0.00  0.00    +0.000 A 
ATOM      6  C   UNL     1      19.001   9.419  36.248  0.00  0.00    +0.000 A 
ATOM      7  C   UNL     1      18.578   9.938  35.041  0.00  0.00    +0.000 A 
ATOM      8  C   UNL     1      17.374  10.602  35.001  0.00  0.00    +0.000 A 
ATOM      9  C   UNL     1      16.575  10.776  36.110  0.00  0.00    +0.000 A 
ATOM     10  C   UNL     1      15.376  11.458  35.983  0.00  0.00    +0.000 A 
ENDROOT
BRANCH  10  11
ATOM     11  C   UNL     1      14.969  11.988  34.686  0.00  0.00    +0.000 A 
ATOM     12  C   UNL     1      14.456  13.231  34.374  0.00  0.00    +0.000 A 
ATOM     13  C   UNL     1      14.221  13.272  33.016  0.00  0.00    +0.000 A 
ATOM     14  N   UNL     1      13.687  14.373  32.252  0.00  0.00    +0.000 NA
ATOM     15  O   UNL     1      14.584  12.099  32.555  0.00  0.00    +0.000 OA
ATOM     16  N   UNL     1      15.022  11.334  33.501  0.00  0.00    +0.000 NA
ENDBRANCH  10  11
BRANCH   1  17
ATOM     17  O   UNL     1      13.419  12.277  37.028  0.00  0.00    +0.000 OA
BRANCH  17  19
ATOM     18  C   UNL     1      11.567  10.734  36.918  0.00  0.00    +0.000 C 
ATOM     19  C   UNL     1      12.267  11.828  37.730  0.00  0.00    +0.000 C 
ENDBRANCH  17  19
ENDBRANCH   1  17
BRANCH   3  20
ATOM     20  O   UNL     1      16.711   9.861  39.646  0.00  0.00    +0.000 OA
BRANCH  20  21
ATOM     21  C   UNL     1      15.730   9.568  40.621  0.00  0.00    +0.000 C 
ATOM     22  C   UNL     1      16.283   9.589  42.020  0.00  0.00    +0.000 C 
ENDBRANCH  20  21
ENDBRANCH   3  20
TORSDOF 5
ENDMDL
MODEL 4
REMARK VINA RESULT:      -6.0     31.370     33.110
REMARK  Name = 
REMARK  5 active torsions:
REMARK  status: ('A' for Active; 'I' for Inactive)
REMARK    1  A    between atoms: C_2  and  O_3
REMARK    2  A    between atoms: O_3  and  C_4
REMARK    3  A    between atoms: C_6  and  O_7
REMARK    4  A    between atoms: O_7  and  C_8
REMARK    5  A    between atoms: C_16  and  C_17
REMARK                            x       y       z     vdW  Elec       q    Type
REMARK                         _______ _______ _______ _____ _____    ______ ____
ROOT
ATOM      1  C   UNL     1      20.306  -9.911  26.278  0.00  0.00    +0.000 A 
ATOM      2  C   UNL     1      19.261 -10.049  27.165  0.00  0.00    +0.000 A 
ATOM      3  C   UNL     1      18.499  -8.949  27.572  0.00  0.00    +0.000 A 
ATOM      4  C   UNL     1      18.834  -7.717  27.050  0.00  0.00    +0.000 A 
ATOM      5  C   UNL     1      18.096  -6.611  27.435  0.00  0.00    +0.000 A 
ATOM      6  C   UNL     1      18.412  -5.365  26.928  0.00  0.00    +0.000 A 
ATOM      7  C   UNL     1      19.458  -5.224  26.039  0.00  0.00    +0.000 A 
ATOM      8  C   UNL     1      20.167  -6.347  25.681  0.00  0.00    +0.000 A 
ATOM      9  C   UNL     1      19.879  -7.604  26.167  0.00  0.00    +0.000 A 
ATOM     10  C   UNL     1      20.644  -8.683  25.755  0.00  0.00    +0.000 A 
ENDROOT
BRANCH  10  11
ATOM     11  C   UNL     1      21.741  -8.486  24.813  0.00  0.00    +0.000 A 
ATOM     12  C   UNL     1      21.737  -8.587  23.436  0.00  0.00    +0.000 A 
ATOM     13  C   UNL     1      23.009  -8.312  22.981  0.00  0.00    +0.000 A 
ATOM     14  N   UNL     1      23.466  -8.301  21.613  0.00  0.00    +0.000 NA
ATOM     15  O   UNL     1      23.726  -8.061  24.050  0.00  0.00    +0.000 OA
ATOM     16  N   UNL     1      23.016  -8.155  25.127  0.00  0.00    +0.000 NA
ENDBRANCH  10  11
BRANCH   1  17
ATOM     17  O   UNL     1      21.056 -11.009  25.880  0.00  0.00    +0.000 OA
BRANCH  17  19
ATOM     18  C   UNL     1      22.806 -10.936  27.540  0.00  0.00    +0.000 C 
ATOM     19  C   UNL     1      21.755 -11.798  26.833  0.00  0.00    +0.000 C 
ENDBRANCH  17  19
ENDBRANCH   1  17
BRANCH   3  20
ATOM     20  O   UNL     1      17.441  -9.064  28.465  0.00  0.00    +0.000 OA
BRANCH  20  21
ATOM     21  C   UNL     1      17.606  -9.969  29.539  0.00  0.00    +0.000 C 
ATOM     22  C   UNL     1      18.543  -9.447  30.594  0.00  0.00    +0.000 C 
ENDBRANCH  20  21
ENDBRANCH   3  20
TORSDOF 5
ENDMDL
MODEL 5
REMARK VINA RESULT:      -5.9     18.633     21.392
REMARK  Name = 
REMARK  5 active torsions:
REMARK  status: ('A' for Active; 'I' for Inactive)
REMARK    1  A    between atoms: C_2  and  O_3
REMARK    2  A    between atoms: O_3  and  C_4
REMARK    3  A    between atoms: C_6  and  O_7
REMARK    4  A    between atoms: O_7  and  C_8
REMARK    5  A    between atoms: C_16  and  C_17
REMARK                            x       y       z     vdW  Elec       q    Type
REMARK                         _______ _______ _______ _____ _____    ______ ____
ROOT
ATOM      1  C   UNL     1      19.448   9.575  38.256  0.00  0.00    +0.000 A 
ATOM      2  C   UNL     1      19.989   8.752  39.220  0.00  0.00    +0.000 A 
ATOM      3  C   UNL     1      19.241   8.332  40.325  0.00  0.00    +0.000 A 
ATOM      4  C   UNL     1      17.937   8.773  40.413  0.00  0.00    +0.000 A 
ATOM      5  C   UNL     1      17.174   8.371  41.495  0.00  0.00    +0.000 A 
ATOM      6  C   UNL     1      15.865   8.800  41.608  0.00  0.00    +0.000 A 
ATOM      7  C   UNL     1      15.321   9.624  40.644  0.00  0.00    +0.000 A 
ATOM      8  C   UNL     1      16.112  10.000  39.584  0.00  0.00    +0.000 A 
ATOM      9  C   UNL     1      17.419   9.592  39.440  0.00  0.00    +0.000 A 
ATOM     10  C   UNL     1      18.147  10.017  38.341  0.00  0.00    +0.000 A 
ENDROOT
BRANCH  10  11
ATOM     11  C   UNL     1      17.530  10.889  37.347  0.00  0.00    +0.000 A 
ATOM     12  C   UNL     1      16.725  10.557  36.275  0.00  0.00    +0.000 A 
ATOM     13  C   UNL     1      16.381  11.719  35.618  0.00  0.00    +0.000 A 
ATOM     14  N   UNL     1      15.553  11.849  34.444  0.00  0.00    +0.000 NA
ATOM     15  O   UNL     1      16.962  12.690  36.280  0.00  0.00    +0.000 OA
ATOM     16  N   UNL     1      17.636  12.238  37.288  0.00  0.00    +0.000 NA
ENDBRANCH  10  11
BRANCH   1  17
ATOM     17  O   UNL     1      20.199   9.986  37.165  0.00  0.00    +0.000 OA
BRANCH  17  19
ATOM     18  C   UNL     1      22.472   9.676  36.417  0.00  0.00    +0.000 C 
ATOM     19  C   UNL     1      21.528  10.464  37.330  0.00  0.00    +0.000 C 
ENDBRANCH  17  19
ENDBRANCH   1  17
BRANCH   3  20
ATOM     20  O   UNL     1      19.765   7.502  41.308  0.00  0.00    +0.000 OA
BRANCH  20  21
ATOM     21  C   UNL     1      20.322   6.274  40.879  0.00  0.00    +0.000 C 
ATOM     22  C   UNL     1      19.289   5.341  40.308  0.00  0.00    +0.000 C 
ENDBRANCH  20  21
ENDBRANCH   3  20
TORSDOF 5
ENDMDL
MODEL 6
REMARK VINA RESULT:      -5.9     31.588     33.604
REMARK  Name = 
REMARK  5 active torsions:
REMARK  status: ('A' for Active; 'I' for Inactive)
REMARK    1  A    between atoms: C_2  and  O_3
REMARK    2  A    between atoms: O_3  and  C_4
REMARK    3  A    between atoms: C_6  and  O_7
REMARK    4  A    between atoms: O_7  and  C_8
REMARK    5  A    between atoms: C_16  and  C_17
REMARK                            x       y       z     vdW  Elec       q    Type
REMARK                         _______ _______ _______ _____ _____    ______ ____
ROOT
ATOM      1  C   UNL     1      20.385  -9.511  26.332  0.00  0.00    +0.000 A 
ATOM      2  C   UNL     1      21.310  -8.816  25.584  0.00  0.00    +0.000 A 
ATOM      3  C   UNL     1      21.201  -7.436  25.385  0.00  0.00    +0.000 A 
ATOM      4  C   UNL     1      20.128  -6.794  25.968  0.00  0.00    +0.000 A 
ATOM      5  C   UNL     1      19.997  -5.428  25.787  0.00  0.00    +0.000 A 
ATOM      6  C   UNL     1      18.930  -4.760  26.360  0.00  0.00    +0.000 A 
ATOM      7  C   UNL     1      18.002  -5.453  27.110  0.00  0.00    +0.000 A 
ATOM      8  C   UNL     1      18.169  -6.809  27.266  0.00  0.00    +0.000 A 
ATOM      9  C   UNL     1      19.219  -7.506  26.710  0.00  0.00    +0.000 A 
ATOM     10  C   UNL     1      19.313  -8.873  26.916  0.00  0.00    +0.000 A 
ENDROOT
BRANCH  10  11
ATOM     11  C   UNL     1      18.307  -9.563  27.716  0.00  0.00    +0.000 A 
ATOM     12  C   UNL     1      17.142 -10.183  27.310  0.00  0.00    +0.000 A 
ATOM     13  C   UNL     1      16.515 -10.696  28.425  0.00  0.00    +0.000 A 
ATOM     14  N   UNL     1      15.270 -11.423  28.473  0.00  0.00    +0.000 NA
ATOM     15  O   UNL     1      17.283 -10.388  29.442  0.00  0.00    +0.000 OA
ATOM     16  N   UNL     1      18.330  -9.730  29.061  0.00  0.00    +0.000 NA
ENDBRANCH  10  11
BRANCH   1  17
ATOM     17  O   UNL     1      20.502 -10.879  26.524  0.00  0.00    +0.000 OA
BRANCH  17  19
ATOM     18  C   UNL     1      21.665 -11.361  28.583  0.00  0.00    +0.000 C 
ATOM     19  C   UNL     1      21.695 -11.443  27.053  0.00  0.00    +0.000 C 
ENDBRANCH  17  19
ENDBRANCH   1  17
BRANCH   3  20
ATOM     20  O   UNL     1      22.122  -6.716  24.635  0.00  0.00    +0.000 OA
BRANCH  20  21
ATOM     21  C   UNL     1      23.248  -7.424  24.154  0.00  0.00    +0.000 C 
ATOM     22  C   UNL     1      24.488  -6.574  24.110  0.00  0.00    +0.000 C 
ENDBRANCH  20  21
ENDBRANCH   3  20
TORSDOF 5
ENDMDL
MODEL 7
REMARK VINA RESULT:      -5.8     18.755     21.730
REMARK  Name = 
REMARK  5 active torsions:
REMARK  status: ('A' for Active; 'I' for Inactive)
REMARK    1  A    between atoms: C_2  and  O_3
REMARK    2  A    between atoms: O_3  and  C_4
REMARK    3  A    between atoms: C_6  and  O_7
REMARK    4  A    between atoms: O_7  and  C_8
REMARK    5  A    between atoms: C_16  and  C_17
REMARK                            x       y       z     vdW  Elec       q    Type
REMARK                         _______ _______ _______ _____ _____    ______ ____
ROOT
ATOM      1  C   UNL     1      15.576  10.449  38.707  0.00  0.00    +0.000 A 
ATOM      2  C   UNL     1      15.555  10.045  40.023  0.00  0.00    +0.000 A 
ATOM      3  C   UNL     1      16.716   9.614  40.674  0.00  0.00    +0.000 A 
ATOM      4  C   UNL     1      17.887   9.609  39.945  0.00  0.00    +0.000 A 
ATOM      5  C   UNL     1      19.051   9.189  40.565  0.00  0.00    +0.000 A 
ATOM      6  C   UNL     1      20.238   9.174  39.856  0.00  0.00    +0.000 A 
ATOM      7  C   UNL     1      20.262   9.579  38.537  0.00  0.00    +0.000 A 
ATOM      8  C   UNL     1      19.084   9.990  37.958  0.00  0.00    +0.000 A 
ATOM      9  C   UNL     1      17.884  10.018  38.634  0.00  0.00    +0.000 A 
ATOM     10  C   UNL     1      16.743  10.446  37.976  0.00  0.00    +0.000 A 
ENDROOT
BRANCH  10  11
ATOM     11  C   UNL     1      16.817  10.865  36.580  0.00  0.00    +0.000 A 
ATOM     12  C   UNL     1      16.750  10.098  35.434  0.00  0.00    +0.000 A 
ATOM     13  C   UNL     1      16.867  10.937  34.346  0.00  0.00    +0.000 A 
ATOM     14  N   UNL     1      16.851  10.570  32.952  0.00  0.00    +0.000 NA
ATOM     15  O   UNL     1      16.997  12.145  34.839  0.00  0.00    +0.000 OA
ATOM     16  N   UNL     1      16.972  12.134  36.132  0.00  0.00    +0.000 NA
ENDBRANCH  10  11
BRANCH   1  17
ATOM     17  O   UNL     1      14.419  10.875  38.071  0.00  0.00    +0.000 OA
BRANCH  17  19
ATOM     18  C   UNL     1      12.042  10.801  37.664  0.00  0.00    +0.000 C 
ATOM     19  C   UNL     1      13.155  10.782  38.716  0.00  0.00    +0.000 C 
ENDBRANCH  17  19
ENDBRANCH   1  17
BRANCH   3  20
ATOM     20  O   UNL     1      16.718   9.203  42.001  0.00  0.00    +0.000 OA
BRANCH  20  21
ATOM     21  C   UNL     1      15.963   8.048  42.314  0.00  0.00    +0.000 C 
ATOM     22  C   UNL     1      16.776   6.786  42.229  0.00  0.00    +0.000 C 
ENDBRANCH  20  21
ENDBRANCH   3  20
TORSDOF 5
ENDMDL
MODEL 8
REMARK VINA RESULT:      -5.8     23.033     25.754
REMARK  Name = 
REMARK  5 active torsions:
REMARK  status: ('A' for Active; 'I' for Inactive)
REMARK    1  A    between atoms: C_2  and  O_3
REMARK    2  A    between atoms: O_3  and  C_4
REMARK    3  A    between atoms: C_6  and  O_7
REMARK    4  A    between atoms: O_7  and  C_8
REMARK    5  A    between atoms: C_16  and  C_17
REMARK                            x       y       z     vdW  Elec       q    Type
REMARK                         _______ _______ _______ _____ _____    ______ ____
ROOT
ATOM      1  C   UNL     1      34.464   1.144  37.189  0.00  0.00    +0.000 A 
ATOM      2  C   UNL     1      34.898   2.315  37.769  0.00  0.00    +0.000 A 
ATOM      3  C   UNL     1      34.814   3.539  37.096  0.00  0.00    +0.000 A 
ATOM      4  C   UNL     1      34.279   3.528  35.824  0.00  0.00    +0.000 A 
ATOM      5  C   UNL     1      34.183   4.725  35.136  0.00  0.00    +0.000 A 
ATOM      6  C   UNL     1      33.651   4.741  33.861  0.00  0.00    +0.000 A 
ATOM      7  C   UNL     1      33.215   3.569  33.277  0.00  0.00    +0.000 A 
ATOM      8  C   UNL     1      33.327   2.401  33.994  0.00  0.00    +0.000 A 
ATOM      9  C   UNL     1      33.852   2.348  35.267  0.00  0.00    +0.000 A 
ATOM     10  C   UNL     1      33.929   1.129  35.920  0.00  0.00    +0.000 A 
ENDROOT
BRANCH  10  11
ATOM     11  C   UNL     1      33.456  -0.085  35.263  0.00  0.00    +0.000 A 
ATOM     12  C   UNL     1      34.135  -0.943  34.420  0.00  0.00    +0.000 A 
ATOM     13  C   UNL     1      33.273  -1.952  34.048  0.00  0.00    +0.000 A 
ATOM     14  N   UNL     1      33.555  -3.067  33.176  0.00  0.00    +0.000 NA
ATOM     15  O   UNL     1      32.137  -1.693  34.649  0.00  0.00    +0.000 OA
ATOM     16  N   UNL     1      32.214  -0.616  35.360  0.00  0.00    +0.000 NA
ENDBRANCH  10  11
BRANCH   1  17
ATOM     17  O   UNL     1      34.552  -0.064  37.865  0.00  0.00    +0.000 OA
BRANCH  17  19
ATOM     18  C   UNL     1      35.085  -0.723  40.124  0.00  0.00    +0.000 C 
ATOM     19  C   UNL     1      34.002  -0.213  39.167  0.00  0.00    +0.000 C 
ENDBRANCH  17  19
ENDBRANCH   1  17
BRANCH   3  20
ATOM     20  O   UNL     1      35.245   4.732  37.661  0.00  0.00    +0.000 OA
BRANCH  20  21
ATOM     21  C   UNL     1      36.608   4.809  38.032  0.00  0.00    +0.000 C 
ATOM     22  C   UNL     1      37.510   5.073  36.859  0.00  0.00    +0.000 C 
ENDBRANCH  20  21
ENDBRANCH   3  20
TORSDOF 5
ENDMDL
MODEL 9
REMARK VINA RESULT:      -5.7     19.130     21.586
REMARK  Name = 
REMARK  5 active torsions:
REMARK  status: ('A' for Active; 'I' for Inactive)
REMARK    1  A    between atoms: C_2  and  O_3
REMARK    2  A    between atoms: O_3  and  C_4
REMARK    3  A    between atoms: C_6  and  O_7
REMARK    4  A    between atoms: O_7  and  C_8
REMARK    5  A    between atoms: C_16  and  C_17
REMARK                            x       y       z     vdW  Elec       q    Type
REMARK                         _______ _______ _______ _____ _____    ______ ____
ROOT
ATOM      1  C   UNL     1      18.492   9.925  37.496  0.00  0.00    +0.000 A 
ATOM      2  C   UNL     1      18.025  10.548  36.360  0.00  0.00    +0.000 A 
ATOM      3  C   UNL     1      16.713  11.026  36.276  0.00  0.00    +0.000 A 
ATOM      4  C   UNL     1      15.902  10.850  37.378  0.00  0.00    +0.000 A 
ATOM      5  C   UNL     1      14.599  11.315  37.323  0.00  0.00    +0.000 A 
ATOM      6  C   UNL     1      13.766  11.150  38.413  0.00  0.00    +0.000 A 
ATOM      7  C   UNL     1      14.232  10.528  39.553  0.00  0.00    +0.000 A 
ATOM      8  C   UNL     1      15.533  10.081  39.568  0.00  0.00    +0.000 A 
ATOM      9  C   UNL     1      16.390  10.228  38.501  0.00  0.00    +0.000 A 
ATOM     10  C   UNL     1      17.686   9.748  38.598  0.00  0.00    +0.000 A 
ENDROOT
BRANCH  10  11
ATOM     11  C   UNL     1      18.134   9.096  39.824  0.00  0.00    +0.000 A 
ATOM     12  C   UNL     1      18.745   9.647  40.933  0.00  0.00    +0.000 A 
ATOM     13  C   UNL     1      18.983   8.638  41.841  0.00  0.00    +0.000 A 
ATOM     14  N   UNL     1      19.603   8.754  43.138  0.00  0.00    +0.000 NA
ATOM     15  O   UNL     1      18.528   7.541  41.284  0.00  0.00    +0.000 OA
ATOM     16  N   UNL     1      18.030   7.776  40.113  0.00  0.00    +0.000 NA
ENDBRANCH  10  11
BRANCH   1  17
ATOM     17  O   UNL     1      19.795   9.455  37.569  0.00  0.00    +0.000 OA
BRANCH  17  19
ATOM     18  C   UNL     1      21.968   9.763  36.567  0.00  0.00    +0.000 C 
ATOM     19  C   UNL     1      20.899  10.348  37.496  0.00  0.00    +0.000 C 
ENDBRANCH  17  19
ENDBRANCH   1  17
BRANCH   3  20
ATOM     20  O   UNL     1      16.220  11.657  35.141  0.00  0.00    +0.000 OA
BRANCH  20  21
ATOM     21  C   UNL     1      16.751  11.242  33.897  0.00  0.00    +0.000 C 
ATOM     22  C   UNL     1      15.697  10.690  32.976  0.00  0.00    +0.000 C 
ENDBRANCH  20  21
ENDBRANCH   3  20
TORSDOF 5
ENDMDL
MODEL 10
REMARK VINA RESULT:      -5.7      3.357      5.489
REMARK  Name = 
REMARK  5 active torsions:
REMARK  status: ('A' for Active; 'I' for Inactive)
REMARK    1  A    between atoms: C_2  and  O_3
REMARK    2  A    between atoms: O_3  and  C_4
REMARK    3  A    between atoms: C_6  and  O_7
REMARK    4  A    between atoms: O_7  and  C_8
REMARK    5  A    between atoms: C_16  and  C_17
REMARK                            x       y       z     vdW  Elec       q    Type
REMARK                         _______ _______ _______ _____ _____    ______ ____
ROOT
ATOM      1  C   UNL     1      29.809  22.700  26.115  0.00  0.00    +0.000 A 
ATOM      2  C   UNL     1      28.604  22.661  25.448  0.00  0.00    +0.000 A 
ATOM      3  C   UNL     1      27.392  22.857  26.119  0.00  0.00    +0.000 A 
ATOM      4  C   UNL     1      27.449  23.091  27.477  0.00  0.00    +0.000 A 
ATOM      5  C   UNL     1      26.264  23.289  28.165  0.00  0.00    +0.000 A 
ATOM      6  C   UNL     1      26.293  23.524  29.526  0.00  0.00    +0.000 A 
ATOM      7  C   UNL     1      27.499  23.564  30.197  0.00  0.00    +0.000 A 
ATOM      8  C   UNL     1      28.653  23.362  29.477  0.00  0.00    +0.000 A 
ATOM      9  C   UNL     1      28.661  23.126  28.120  0.00  0.00    +0.000 A 
ATOM     10  C   UNL     1      29.869  22.932  27.471  0.00  0.00    +0.000 A 
ENDROOT
BRANCH  10  11
ATOM     11  C   UNL     1      31.120  22.982  28.221  0.00  0.00    +0.000 A 
ATOM     12  C   UNL     1      31.843  21.949  28.782  0.00  0.00    +0.000 A 
ATOM     13  C   UNL     1      32.957  22.484  29.392  0.00  0.00    +0.000 A 
ATOM     14  N   UNL     1      33.992  21.774  30.104  0.00  0.00    +0.000 NA
ATOM     15  O   UNL     1      32.886  23.778  29.195  0.00  0.00    +0.000 OA
ATOM     16  N   UNL     1      31.831  24.096  28.519  0.00  0.00    +0.000 NA
ENDBRANCH  10  11
BRANCH   1  17
ATOM     17  O   UNL     1      31.005  22.504  25.441  0.00  0.00    +0.000 OA
BRANCH  17  19
ATOM     18  C   UNL     1      32.227  24.530  24.969  0.00  0.00    +0.000 C 
ATOM     19  C   UNL     1      31.402  23.376  24.391  0.00  0.00    +0.000 C 
ENDBRANCH  17  19
ENDBRANCH   1  17
BRANCH   3  20
ATOM     20  O   UNL     1      26.165  22.824  25.467  0.00  0.00    +0.000 OA
BRANCH  20  21
ATOM     21  C   UNL     1      25.994  23.712  24.380  0.00  0.00    +0.000 C 
ATOM     22  C   UNL     1      25.493  25.063  24.812  0.00  0.00    +0.000 C 
ENDBRANCH  20  21
ENDBRANCH   3  20
TORSDOF 5
ENDMDL
