MODEL 1
REMARK VINA RESULT:      -7.4      0.000      0.000
REMARK  Name = 
REMARK  8 active torsions:
REMARK  status: ('A' for Active; 'I' for Inactive)
REMARK    1  A    between atoms: C_2  and  O_3
REMARK    2  A    between atoms: O_3  and  C_4
REMARK    3  A    between atoms: C_7  and  C_8
REMARK    4  A    between atoms: C_10  and  C_11
REMARK    5  A    between atoms: N_13  and  C_14
REMARK    6  A    between atoms: C_14  and  C_15
REMARK    7  A    between atoms: C_23  and  O_24
REMARK    8  A    between atoms: C_26  and  O_27
REMARK                            x       y       z     vdW  Elec       q    Type
REMARK                         _______ _______ _______ _____ _____    ______ ____
ROOT
ATOM      1  C   UNL     1      38.307   4.328  15.924  0.00  0.00    +0.000 A 
ATOM      2  C   UNL     1      38.370   2.937  15.849  0.00  0.00    +0.000 A 
ATOM      3  C   UNL     1      37.598   2.220  14.958  0.00  0.00    +0.000 A 
ATOM      4  C   UNL     1      36.756   2.932  14.141  0.00  0.00    +0.000 A 
ATOM      5  C   UNL     1      36.655   4.306  14.175  0.00  0.00    +0.000 A 
ATOM      6  C   UNL     1      35.813   5.033  13.359  0.00  0.00    +0.000 A 
ATOM      7  C   UNL     1      35.724   6.407  13.405  0.00  0.00    +0.000 A 
ATOM      8  C   UNL     1      36.520   7.078  14.314  0.00  0.00    +0.000 A 
ATOM      9  C   UNL     1      37.364   6.371  15.136  0.00  0.00    +0.000 A 
ATOM     10  C   UNL     1      37.442   4.988  15.077  0.00  0.00    +0.000 A 
ENDROOT
BRANCH   1  14
ATOM     11  C   UNL     1      40.729   6.522  18.692  0.00  0.00    +0.000 A 
ATOM     12  C   UNL     1      41.107   6.399  17.367  0.00  0.00    +0.000 A 
ATOM     13  C   UNL     1      40.311   5.683  16.478  0.00  0.00    +0.000 A 
ATOM     14  C   UNL     1      39.135   5.079  16.876  0.00  0.00    +0.000 A 
ATOM     15  C   UNL     1      38.759   5.201  18.186  0.00  0.00    +0.000 A 
ATOM     16  C   UNL     1      39.550   5.908  19.052  0.00  0.00    +0.000 A 
BRANCH  11  17
ATOM     17  O   UNL     1      41.494   7.227  19.608  0.00  0.00    +0.000 OA
BRANCH  17  19
ATOM     18  C   UNL     1      42.983   6.071  21.114  0.00  0.00    +0.000 C 
ATOM     19  C   UNL     1      42.830   6.817  19.827  0.00  0.00    +0.000 C 
ENDBRANCH  17  19
ENDBRANCH  11  17
ENDBRANCH   1  14
BRANCH   3  20
ATOM     20  C   UNL     1      37.680   0.758  14.897  0.00  0.00    +0.000 C 
ATOM     21  O   UNL     1      36.712   0.105  14.457  0.00  0.00    +0.000 OA
ATOM     22  N   UNL     1      38.832   0.081  15.323  0.00  0.00    +0.000 NA
BRANCH  22  23
ATOM     23  C   UNL     1      38.864  -1.366  15.242  0.00  0.00    +0.000 C 
BRANCH  23  24
ATOM     24  C   UNL     1      38.707  -2.008  16.569  0.00  0.00    +0.000 A 
ATOM     25  C   UNL     1      39.035  -3.322  16.881  0.00  0.00    +0.000 A 
ATOM     26  C   UNL     1      38.717  -3.463  18.219  0.00  0.00    +0.000 A 
ATOM     27  C   UNL     1      38.224  -2.255  18.643  0.00  0.00    +0.000 A 
ATOM     28  O   UNL     1      38.233  -1.419  17.637  0.00  0.00    +0.000 OA
ENDBRANCH  23  24
ENDBRANCH  22  23
ENDBRANCH   3  20
BRANCH   7  29
ATOM     29  O   UNL     1      34.855   7.102  12.557  0.00  0.00    +0.000 OA
ATOM     30  C   UNL     1      33.482   7.088  12.841  0.00  0.00    +0.000 C 
ENDBRANCH   7  29
BRANCH   8  31
ATOM     31  O   UNL     1      36.432   8.460  14.364  0.00  0.00    +0.000 OA
ATOM     32  C   UNL     1      35.791   9.059  15.497  0.00  0.00    +0.000 C 
ENDBRANCH   8  31
TORSDOF 8
ENDMDL
MODEL 2
REMARK VINA RESULT:      -7.3      3.262      8.675
REMARK  Name = 
REMARK  8 active torsions:
REMARK  status: ('A' for Active; 'I' for Inactive)
REMARK    1  A    between atoms: C_2  and  O_3
REMARK    2  A    between atoms: O_3  and  C_4
REMARK    3  A    between atoms: C_7  and  C_8
REMARK    4  A    between atoms: C_10  and  C_11
REMARK    5  A    between atoms: N_13  and  C_14
REMARK    6  A    between atoms: C_14  and  C_15
REMARK    7  A    between atoms: C_23  and  O_24
REMARK    8  A    between atoms: C_26  and  O_27
REMARK                            x       y       z     vdW  Elec       q    Type
REMARK                         _______ _______ _______ _____ _____    ______ ____
ROOT
ATOM      1  C   UNL     1      37.516   0.111  15.218  0.00  0.00    +0.000 A 
ATOM      2  C   UNL     1      37.727   1.489  15.235  0.00  0.00    +0.000 A 
ATOM      3  C   UNL     1      36.889   2.346  15.917  0.00  0.00    +0.000 A 
ATOM      4  C   UNL     1      35.827   1.788  16.583  0.00  0.00    +0.000 A 
ATOM      5  C   UNL     1      35.572   0.435  16.599  0.00  0.00    +0.000 A 
ATOM      6  C   UNL     1      34.509  -0.138  17.265  0.00  0.00    +0.000 A 
ATOM      7  C   UNL     1      34.268  -1.495  17.271  0.00  0.00    +0.000 A 
ATOM      8  C   UNL     1      35.139  -2.310  16.573  0.00  0.00    +0.000 A 
ATOM      9  C   UNL     1      36.203  -1.759  15.903  0.00  0.00    +0.000 A 
ATOM     10  C   UNL     1      36.432  -0.390  15.907  0.00  0.00    +0.000 A 
ENDROOT
BRANCH   1  14
ATOM     11  C   UNL     1      40.137  -2.520  13.084  0.00  0.00    +0.000 A 
ATOM     12  C   UNL     1      39.033  -1.964  12.461  0.00  0.00    +0.000 A 
ATOM     13  C   UNL     1      38.190  -1.112  13.166  0.00  0.00    +0.000 A 
ATOM     14  C   UNL     1      38.417  -0.792  14.490  0.00  0.00    +0.000 A 
ATOM     15  C   UNL     1      39.508  -1.340  15.108  0.00  0.00    +0.000 A 
ATOM     16  C   UNL     1      40.332  -2.178  14.404  0.00  0.00    +0.000 A 
BRANCH  11  17
ATOM     17  O   UNL     1      41.001  -3.374  12.417  0.00  0.00    +0.000 OA
BRANCH  17  19
ATOM     18  C   UNL     1      42.540  -1.743  11.527  0.00  0.00    +0.000 C 
ATOM     19  C   UNL     1      42.363  -3.005  12.311  0.00  0.00    +0.000 C 
ENDBRANCH  17  19
ENDBRANCH  11  17
ENDBRANCH   1  14
BRANCH   3  20
ATOM     20  C   UNL     1      37.131   3.792  15.920  0.00  0.00    +0.000 C 
ATOM     21  O   UNL     1      36.609   4.505  15.039  0.00  0.00    +0.000 OA
ATOM     22  N   UNL     1      37.938   4.387  16.900  0.00  0.00    +0.000 NA
BRANCH  22  23
ATOM     23  C   UNL     1      38.146   5.820  16.861  0.00  0.00    +0.000 C 
BRANCH  23  24
ATOM     24  C   UNL     1      38.699   6.344  18.132  0.00  0.00    +0.000 A 
ATOM     25  C   UNL     1      39.790   5.826  18.820  0.00  0.00    +0.000 A 
ATOM     26  C   UNL     1      39.929   6.635  19.933  0.00  0.00    +0.000 A 
ATOM     27  C   UNL     1      38.938   7.582  19.866  0.00  0.00    +0.000 A 
ATOM     28  O   UNL     1      38.231   7.377  18.786  0.00  0.00    +0.000 OA
ENDBRANCH  23  24
ENDBRANCH  22  23
ENDBRANCH   3  20
BRANCH   7  29
ATOM     29  O   UNL     1      33.176  -2.030  17.962  0.00  0.00    +0.000 OA
ATOM     30  C   UNL     1      31.920  -2.034  17.338  0.00  0.00    +0.000 C 
ENDBRANCH   7  29
BRANCH   8  31
ATOM     31  O   UNL     1      34.899  -3.675  16.577  0.00  0.00    +0.000 OA
ATOM     32  C   UNL     1      35.978  -4.554  16.232  0.00  0.00    +0.000 C 
ENDBRANCH   8  31
TORSDOF 8
ENDMDL
MODEL 3
REMARK VINA RESULT:      -7.3      1.618      2.076
REMARK  Name = 
REMARK  8 active torsions:
REMARK  status: ('A' for Active; 'I' for Inactive)
REMARK    1  A    between atoms: C_2  and  O_3
REMARK    2  A    between atoms: O_3  and  C_4
REMARK    3  A    between atoms: C_7  and  C_8
REMARK    4  A    between atoms: C_10  and  C_11
REMARK    5  A    between atoms: N_13  and  C_14
REMARK    6  A    between atoms: C_14  and  C_15
REMARK    7  A    between atoms: C_23  and  O_24
REMARK    8  A    between atoms: C_26  and  O_27
REMARK                            x       y       z     vdW  Elec       q    Type
REMARK                         _______ _______ _______ _____ _____    ______ ____
ROOT
ATOM      1  C   UNL     1      37.795   4.364  16.694  0.00  0.00    +0.000 A 
ATOM      2  C   UNL     1      37.365   3.151  17.232  0.00  0.00    +0.000 A 
ATOM      3  C   UNL     1      36.320   2.440  16.681  0.00  0.00    +0.000 A 
ATOM      4  C   UNL     1      35.710   2.975  15.574  0.00  0.00    +0.000 A 
ATOM      5  C   UNL     1      36.094   4.168  15.004  0.00  0.00    +0.000 A 
ATOM      6  C   UNL     1      35.490   4.716  13.892  0.00  0.00    +0.000 A 
ATOM      7  C   UNL     1      35.886   5.912  13.333  0.00  0.00    +0.000 A 
ATOM      8  C   UNL     1      36.939   6.584  13.922  0.00  0.00    +0.000 A 
ATOM      9  C   UNL     1      37.554   6.055  15.031  0.00  0.00    +0.000 A 
ATOM     10  C   UNL     1      37.143   4.850  15.581  0.00  0.00    +0.000 A 
ENDROOT
BRANCH   1  14
ATOM     11  C   UNL     1      41.043   6.543  18.440  0.00  0.00    +0.000 A 
ATOM     12  C   UNL     1      39.971   6.134  19.213  0.00  0.00    +0.000 A 
ATOM     13  C   UNL     1      38.922   5.427  18.633  0.00  0.00    +0.000 A 
ATOM     14  C   UNL     1      38.910   5.111  17.290  0.00  0.00    +0.000 A 
ATOM     15  C   UNL     1      39.970   5.514  16.523  0.00  0.00    +0.000 A 
ATOM     16  C   UNL     1      40.997   6.209  17.105  0.00  0.00    +0.000 A 
BRANCH  11  17
ATOM     17  O   UNL     1      42.107   7.249  18.979  0.00  0.00    +0.000 OA
BRANCH  17  19
ATOM     18  C   UNL     1      43.091   6.370  20.999  0.00  0.00    +0.000 C 
ATOM     19  C   UNL     1      42.181   7.386  20.385  0.00  0.00    +0.000 C 
ENDBRANCH  17  19
ENDBRANCH  11  17
ENDBRANCH   1  14
BRANCH   3  20
ATOM     20  C   UNL     1      35.885   1.167  17.264  0.00  0.00    +0.000 C 
ATOM     21  O   UNL     1      35.006   0.495  16.686  0.00  0.00    +0.000 OA
ATOM     22  N   UNL     1      36.443   0.692  18.459  0.00  0.00    +0.000 NA
BRANCH  22  23
ATOM     23  C   UNL     1      35.980  -0.573  18.994  0.00  0.00    +0.000 C 
BRANCH  23  24
ATOM     24  C   UNL     1      37.036  -1.614  18.974  0.00  0.00    +0.000 A 
ATOM     25  C   UNL     1      37.766  -2.011  17.861  0.00  0.00    +0.000 A 
ATOM     26  C   UNL     1      38.621  -2.994  18.325  0.00  0.00    +0.000 A 
ATOM     27  C   UNL     1      38.372  -3.140  19.667  0.00  0.00    +0.000 A 
ATOM     28  O   UNL     1      37.427  -2.306  20.014  0.00  0.00    +0.000 OA
ENDBRANCH  23  24
ENDBRANCH  22  23
ENDBRANCH   3  20
BRANCH   7  29
ATOM     29  O   UNL     1      35.242   6.428  12.203  0.00  0.00    +0.000 OA
ATOM     30  C   UNL     1      33.991   7.040  12.362  0.00  0.00    +0.000 C 
ENDBRANCH   7  29
BRANCH   8  31
ATOM     31  O   UNL     1      37.341   7.788  13.363  0.00  0.00    +0.000 OA
ATOM     32  C   UNL     1      38.527   7.799  12.559  0.00  0.00    +0.000 C 
ENDBRANCH   8  31
TORSDOF 8
ENDMDL
MODEL 4
REMARK VINA RESULT:      -7.1      3.315      5.848
REMARK  Name = 
REMARK  8 active torsions:
REMARK  status: ('A' for Active; 'I' for Inactive)
REMARK    1  A    between atoms: C_2  and  O_3
REMARK    2  A    between atoms: O_3  and  C_4
REMARK    3  A    between atoms: C_7  and  C_8
REMARK    4  A    between atoms: C_10  and  C_11
REMARK    5  A    between atoms: N_13  and  C_14
REMARK    6  A    between atoms: C_14  and  C_15
REMARK    7  A    between atoms: C_23  and  O_24
REMARK    8  A    between atoms: C_26  and  O_27
REMARK                            x       y       z     vdW  Elec       q    Type
REMARK                         _______ _______ _______ _____ _____    ______ ____
ROOT
ATOM      1  C   UNL     1      40.714   6.755  19.053  0.00  0.00    +0.000 A 
ATOM      2  C   UNL     1      40.144   5.815  18.196  0.00  0.00    +0.000 A 
ATOM      3  C   UNL     1      38.884   5.986  17.663  0.00  0.00    +0.000 A 
ATOM      4  C   UNL     1      38.203   7.126  18.011  0.00  0.00    +0.000 A 
ATOM      5  C   UNL     1      38.720   8.085  18.853  0.00  0.00    +0.000 A 
ATOM      6  C   UNL     1      38.046   9.234  19.210  0.00  0.00    +0.000 A 
ATOM      7  C   UNL     1      38.577  10.185  20.055  0.00  0.00    +0.000 A 
ATOM      8  C   UNL     1      39.844   9.967  20.561  0.00  0.00    +0.000 A 
ATOM      9  C   UNL     1      40.530   8.828  20.217  0.00  0.00    +0.000 A 
ATOM     10  C   UNL     1      39.982   7.881  19.366  0.00  0.00    +0.000 A 
ENDROOT
BRANCH   1  14
ATOM     11  C   UNL     1      44.638   6.197  20.678  0.00  0.00    +0.000 A 
ATOM     12  C   UNL     1      44.468   6.706  19.403  0.00  0.00    +0.000 A 
ATOM     13  C   UNL     1      43.188   6.882  18.887  0.00  0.00    +0.000 A 
ATOM     14  C   UNL     1      42.058   6.562  19.613  0.00  0.00    +0.000 A 
ATOM     15  C   UNL     1      42.224   6.059  20.876  0.00  0.00    +0.000 A 
ATOM     16  C   UNL     1      43.489   5.890  21.373  0.00  0.00    +0.000 A 
BRANCH  11  17
ATOM     17  O   UNL     1      45.896   6.006  21.228  0.00  0.00    +0.000 OA
BRANCH  17  19
ATOM     18  C   UNL     1      47.869   5.371  19.993  0.00  0.00    +0.000 C 
ATOM     19  C   UNL     1      46.673   4.917  20.770  0.00  0.00    +0.000 C 
ENDBRANCH  17  19
ENDBRANCH  11  17
ENDBRANCH   1  14
BRANCH   3  20
ATOM     20  C   UNL     1      38.305   4.984  16.763  0.00  0.00    +0.000 C 
ATOM     21  O   UNL     1      38.485   5.085  15.532  0.00  0.00    +0.000 OA
ATOM     22  N   UNL     1      37.552   3.912  17.264  0.00  0.00    +0.000 NA
BRANCH  22  23
ATOM     23  C   UNL     1      37.001   2.948  16.334  0.00  0.00    +0.000 C 
BRANCH  23  24
ATOM     24  C   UNL     1      36.307   1.833  17.023  0.00  0.00    +0.000 A 
ATOM     25  C   UNL     1      35.128   1.228  16.607  0.00  0.00    +0.000 A 
ATOM     26  C   UNL     1      34.871   0.254  17.554  0.00  0.00    +0.000 A 
ATOM     27  C   UNL     1      35.884   0.316  18.477  0.00  0.00    +0.000 A 
ATOM     28  O   UNL     1      36.715   1.263  18.128  0.00  0.00    +0.000 OA
ENDBRANCH  23  24
ENDBRANCH  22  23
ENDBRANCH   3  20
BRANCH   7  29
ATOM     29  O   UNL     1      37.855  11.336  20.389  0.00  0.00    +0.000 OA
ATOM     30  C   UNL     1      37.491  12.224  19.366  0.00  0.00    +0.000 C 
ENDBRANCH   7  29
BRANCH   8  31
ATOM     31  O   UNL     1      40.381  10.921  21.411  0.00  0.00    +0.000 OA
ATOM     32  C   UNL     1      41.807  11.008  21.518  0.00  0.00    +0.000 C 
ENDBRANCH   8  31
TORSDOF 8
ENDMDL
MODEL 5
REMARK VINA RESULT:      -7.0      3.555      6.256
REMARK  Name = 
REMARK  8 active torsions:
REMARK  status: ('A' for Active; 'I' for Inactive)
REMARK    1  A    between atoms: C_2  and  O_3
REMARK    2  A    between atoms: O_3  and  C_4
REMARK    3  A    between atoms: C_7  and  C_8
REMARK    4  A    between atoms: C_10  and  C_11
REMARK    5  A    between atoms: N_13  and  C_14
REMARK    6  A    between atoms: C_14  and  C_15
REMARK    7  A    between atoms: C_23  and  O_24
REMARK    8  A    between atoms: C_26  and  O_27
REMARK                            x       y       z     vdW  Elec       q    Type
REMARK                         _______ _______ _______ _____ _____    ______ ____
ROOT
ATOM      1  C   UNL     1      40.898   6.730  19.356  0.00  0.00    +0.000 A 
ATOM      2  C   UNL     1      40.254   5.714  18.651  0.00  0.00    +0.000 A 
ATOM      3  C   UNL     1      38.939   5.825  18.253  0.00  0.00    +0.000 A 
ATOM      4  C   UNL     1      38.279   6.983  18.579  0.00  0.00    +0.000 A 
ATOM      5  C   UNL     1      38.868   8.017  19.274  0.00  0.00    +0.000 A 
ATOM      6  C   UNL     1      38.216   9.186  19.608  0.00  0.00    +0.000 A 
ATOM      7  C   UNL     1      38.819  10.211  20.303  0.00  0.00    +0.000 A 
ATOM      8  C   UNL     1      40.139  10.050  20.679  0.00  0.00    +0.000 A 
ATOM      9  C   UNL     1      40.805   8.893  20.356  0.00  0.00    +0.000 A 
ATOM     10  C   UNL     1      40.183   7.870  19.655  0.00  0.00    +0.000 A 
ENDROOT
BRANCH   1  14
ATOM     11  C   UNL     1      44.990   6.354  20.565  0.00  0.00    +0.000 A 
ATOM     12  C   UNL     1      44.666   6.863  19.321  0.00  0.00    +0.000 A 
ATOM     13  C   UNL     1      43.333   6.980  18.941  0.00  0.00    +0.000 A 
ATOM     14  C   UNL     1      42.300   6.599  19.774  0.00  0.00    +0.000 A 
ATOM     15  C   UNL     1      42.619   6.096  21.007  0.00  0.00    +0.000 A 
ATOM     16  C   UNL     1      43.935   5.986  21.370  0.00  0.00    +0.000 A 
BRANCH  11  17
ATOM     17  O   UNL     1      46.306   6.222  20.982  0.00  0.00    +0.000 OA
BRANCH  17  19
ATOM     18  C   UNL     1      46.829   3.870  20.845  0.00  0.00    +0.000 C 
ATOM     19  C   UNL     1      47.118   5.252  20.349  0.00  0.00    +0.000 C 
ENDBRANCH  17  19
ENDBRANCH  11  17
ENDBRANCH   1  14
BRANCH   3  20
ATOM     20  C   UNL     1      38.282   4.744  17.512  0.00  0.00    +0.000 C 
ATOM     21  O   UNL     1      37.993   3.682  18.102  0.00  0.00    +0.000 OA
ATOM     22  N   UNL     1      37.972   4.884  16.152  0.00  0.00    +0.000 NA
BRANCH  22  23
ATOM     23  C   UNL     1      37.322   3.786  15.466  0.00  0.00    +0.000 C 
BRANCH  23  24
ATOM     24  C   UNL     1      38.288   2.914  14.756  0.00  0.00    +0.000 A 
ATOM     25  C   UNL     1      38.672   3.038  13.426  0.00  0.00    +0.000 A 
ATOM     26  C   UNL     1      39.578   2.015  13.217  0.00  0.00    +0.000 A 
ATOM     27  C   UNL     1      39.697   1.337  14.404  0.00  0.00    +0.000 A 
ATOM     28  O   UNL     1      38.918   1.899  15.291  0.00  0.00    +0.000 OA
ENDBRANCH  23  24
ENDBRANCH  22  23
ENDBRANCH   3  20
BRANCH   7  29
ATOM     29  O   UNL     1      38.117  11.379  20.619  0.00  0.00    +0.000 OA
ATOM     30  C   UNL     1      37.679  12.205  19.575  0.00  0.00    +0.000 C 
ENDBRANCH   7  29
BRANCH   8  31
ATOM     31  O   UNL     1      40.749  11.079  21.379  0.00  0.00    +0.000 OA
ATOM     32  C   UNL     1      42.127  10.928  21.742  0.00  0.00    +0.000 C 
ENDBRANCH   8  31
TORSDOF 8
ENDMDL
MODEL 6
REMARK VINA RESULT:      -7.0      1.701      2.247
REMARK  Name = 
REMARK  8 active torsions:
REMARK  status: ('A' for Active; 'I' for Inactive)
REMARK    1  A    between atoms: C_2  and  O_3
REMARK    2  A    between atoms: O_3  and  C_4
REMARK    3  A    between atoms: C_7  and  C_8
REMARK    4  A    between atoms: C_10  and  C_11
REMARK    5  A    between atoms: N_13  and  C_14
REMARK    6  A    between atoms: C_14  and  C_15
REMARK    7  A    between atoms: C_23  and  O_24
REMARK    8  A    between atoms: C_26  and  O_27
REMARK                            x       y       z     vdW  Elec       q    Type
REMARK                         _______ _______ _______ _____ _____    ______ ____
ROOT
ATOM      1  C   UNL     1      38.678   5.442  16.819  0.00  0.00    +0.000 A 
ATOM      2  C   UNL     1      38.292   4.105  16.744  0.00  0.00    +0.000 A 
ATOM      3  C   UNL     1      37.346   3.670  15.840  0.00  0.00    +0.000 A 
ATOM      4  C   UNL     1      36.792   4.611  15.009  0.00  0.00    +0.000 A 
ATOM      5  C   UNL     1      37.137   5.944  15.042  0.00  0.00    +0.000 A 
ATOM      6  C   UNL     1      36.588   6.899  14.212  0.00  0.00    +0.000 A 
ATOM      7  C   UNL     1      36.945   8.229  14.257  0.00  0.00    +0.000 A 
ATOM      8  C   UNL     1      37.898   8.613  15.181  0.00  0.00    +0.000 A 
ATOM      9  C   UNL     1      38.456   7.677  16.016  0.00  0.00    +0.000 A 
ATOM     10  C   UNL     1      38.086   6.341  15.958  0.00  0.00    +0.000 A 
ENDROOT
BRANCH   1  14
ATOM     11  C   UNL     1      41.631   6.756  19.631  0.00  0.00    +0.000 A 
ATOM     12  C   UNL     1      41.947   6.608  18.292  0.00  0.00    +0.000 A 
ATOM     13  C   UNL     1      40.979   6.181  17.390  0.00  0.00    +0.000 A 
ATOM     14  C   UNL     1      39.688   5.893  17.786  0.00  0.00    +0.000 A 
ATOM     15  C   UNL     1      39.373   6.039  19.110  0.00  0.00    +0.000 A 
ATOM     16  C   UNL     1      40.334   6.461  19.990  0.00  0.00    +0.000 A 
BRANCH  11  17
ATOM     17  O   UNL     1      42.567   7.180  20.562  0.00  0.00    +0.000 OA
BRANCH  17  19
ATOM     18  C   UNL     1      44.627   6.040  21.087  0.00  0.00    +0.000 C 
ATOM     19  C   UNL     1      43.173   6.212  21.395  0.00  0.00    +0.000 C 
ENDBRANCH  17  19
ENDBRANCH  11  17
ENDBRANCH   1  14
BRANCH   3  20
ATOM     20  C   UNL     1      36.955   2.259  15.779  0.00  0.00    +0.000 C 
ATOM     21  O   UNL     1      37.410   1.533  14.871  0.00  0.00    +0.000 OA
ATOM     22  N   UNL     1      36.079   1.710  16.727  0.00  0.00    +0.000 NA
BRANCH  22  23
ATOM     23  C   UNL     1      35.723   0.309  16.623  0.00  0.00    +0.000 C 
BRANCH  23  24
ATOM     24  C   UNL     1      36.465  -0.533  17.592  0.00  0.00    +0.000 A 
ATOM     25  C   UNL     1      36.073  -0.812  18.895  0.00  0.00    +0.000 A 
ATOM     26  C   UNL     1      37.069  -1.627  19.402  0.00  0.00    +0.000 A 
ATOM     27  C   UNL     1      37.994  -1.797  18.403  0.00  0.00    +0.000 A 
ATOM     28  O   UNL     1      37.602  -1.135  17.347  0.00  0.00    +0.000 OA
ENDBRANCH  23  24
ENDBRANCH  22  23
ENDBRANCH   3  20
BRANCH   7  29
ATOM     29  O   UNL     1      36.360   9.162  13.394  0.00  0.00    +0.000 OA
ATOM     30  C   UNL     1      35.077   9.645  13.693  0.00  0.00    +0.000 C 
ENDBRANCH   7  29
BRANCH   8  31
ATOM     31  O   UNL     1      38.259   9.951  15.229  0.00  0.00    +0.000 OA
ATOM     32  C   UNL     1      39.379  10.321  16.043  0.00  0.00    +0.000 C 
ENDBRANCH   8  31
TORSDOF 8
ENDMDL
MODEL 7
REMARK VINA RESULT:      -6.9     22.403     25.445
REMARK  Name = 
REMARK  8 active torsions:
REMARK  status: ('A' for Active; 'I' for Inactive)
REMARK    1  A    between atoms: C_2  and  O_3
REMARK    2  A    between atoms: O_3  and  C_4
REMARK    3  A    between atoms: C_7  and  C_8
REMARK    4  A    between atoms: C_10  and  C_11
REMARK    5  A    between atoms: N_13  and  C_14
REMARK    6  A    between atoms: C_14  and  C_15
REMARK    7  A    between atoms: C_23  and  O_24
REMARK    8  A    between atoms: C_26  and  O_27
REMARK                            x       y       z     vdW  Elec       q    Type
REMARK                         _______ _______ _______ _____ _____    ______ ____
ROOT
ATOM      1  C   UNL     1      15.548  -2.120   6.179  0.00  0.00    +0.000 A 
ATOM      2  C   UNL     1      16.094  -3.402   6.215  0.00  0.00    +0.000 A 
ATOM      3  C   UNL     1      15.578  -4.391   7.026  0.00  0.00    +0.000 A 
ATOM      4  C   UNL     1      14.497  -4.064   7.805  0.00  0.00    +0.000 A 
ATOM      5  C   UNL     1      13.918  -2.814   7.807  0.00  0.00    +0.000 A 
ATOM      6  C   UNL     1      12.831  -2.474   8.585  0.00  0.00    +0.000 A 
ATOM      7  C   UNL     1      12.264  -1.218   8.575  0.00  0.00    +0.000 A 
ATOM      8  C   UNL     1      12.819  -0.263   7.744  0.00  0.00    +0.000 A 
ATOM      9  C   UNL     1      13.902  -0.583   6.963  0.00  0.00    +0.000 A 
ATOM     10  C   UNL     1      14.461  -1.852   6.984  0.00  0.00    +0.000 A 
ENDROOT
BRANCH   1  14
ATOM     11  C   UNL     1      17.167   0.924   3.638  0.00  0.00    +0.000 A 
ATOM     12  C   UNL     1      15.951   0.332   3.344  0.00  0.00    +0.000 A 
ATOM     13  C   UNL     1      15.437  -0.655   4.178  0.00  0.00    +0.000 A 
ATOM     14  C   UNL     1      16.106  -1.076   5.310  0.00  0.00    +0.000 A 
ATOM     15  C   UNL     1      17.308  -0.491   5.603  0.00  0.00    +0.000 A 
ATOM     16  C   UNL     1      17.805   0.481   4.775  0.00  0.00    +0.000 A 
BRANCH  11  17
ATOM     17  O   UNL     1      17.714   1.912   2.834  0.00  0.00    +0.000 OA
BRANCH  17  19
ATOM     18  C   UNL     1      19.862   1.409   1.858  0.00  0.00    +0.000 C 
ATOM     19  C   UNL     1      18.385   1.522   1.651  0.00  0.00    +0.000 C 
ENDBRANCH  17  19
ENDBRANCH  11  17
ENDBRANCH   1  14
BRANCH   3  20
ATOM     20  C   UNL     1      16.170  -5.732   7.048  0.00  0.00    +0.000 C 
ATOM     21  O   UNL     1      15.933  -6.525   6.114  0.00  0.00    +0.000 OA
ATOM     22  N   UNL     1      17.000  -6.138   8.103  0.00  0.00    +0.000 NA
BRANCH  22  23
ATOM     23  C   UNL     1      17.561  -7.474   8.078  0.00  0.00    +0.000 C 
BRANCH  23  24
ATOM     24  C   UNL     1      18.836  -7.564   8.830  0.00  0.00    +0.000 A 
ATOM     25  C   UNL     1      19.167  -6.829   9.962  0.00  0.00    +0.000 A 
ATOM     26  C   UNL     1      20.439  -7.249  10.303  0.00  0.00    +0.000 A 
ATOM     27  C   UNL     1      20.808  -8.196   9.381  0.00  0.00    +0.000 A 
ATOM     28  O   UNL     1      19.833  -8.355   8.525  0.00  0.00    +0.000 OA
ENDBRANCH  23  24
ENDBRANCH  22  23
ENDBRANCH   3  20
BRANCH   7  29
ATOM     29  O   UNL     1      11.161  -0.919   9.382  0.00  0.00    +0.000 OA
ATOM     30  C   UNL     1      10.495  -1.969  10.030  0.00  0.00    +0.000 C 
ENDBRANCH   7  29
BRANCH   8  31
ATOM     31  O   UNL     1      12.251   1.002   7.733  0.00  0.00    +0.000 OA
ATOM     32  C   UNL     1      11.362   1.336   6.659  0.00  0.00    +0.000 C 
ENDBRANCH   8  31
TORSDOF 8
ENDMDL
MODEL 8
REMARK VINA RESULT:      -6.8      4.566      8.638
REMARK  Name = 
REMARK  8 active torsions:
REMARK  status: ('A' for Active; 'I' for Inactive)
REMARK    1  A    between atoms: C_2  and  O_3
REMARK    2  A    between atoms: O_3  and  C_4
REMARK    3  A    between atoms: C_7  and  C_8
REMARK    4  A    between atoms: C_10  and  C_11
REMARK    5  A    between atoms: N_13  and  C_14
REMARK    6  A    between atoms: C_14  and  C_15
REMARK    7  A    between atoms: C_23  and  O_24
REMARK    8  A    between atoms: C_26  and  O_27
REMARK                            x       y       z     vdW  Elec       q    Type
REMARK                         _______ _______ _______ _____ _____    ______ ____
ROOT
ATOM      1  C   UNL     1      39.116  -1.592  14.804  0.00  0.00    +0.000 A 
ATOM      2  C   UNL     1      40.451  -1.902  14.551  0.00  0.00    +0.000 A 
ATOM      3  C   UNL     1      41.389  -0.924  14.296  0.00  0.00    +0.000 A 
ATOM      4  C   UNL     1      40.957   0.378  14.298  0.00  0.00    +0.000 A 
ATOM      5  C   UNL     1      39.650   0.739  14.542  0.00  0.00    +0.000 A 
ATOM      6  C   UNL     1      39.203   2.043  14.548  0.00  0.00    +0.000 A 
ATOM      7  C   UNL     1      37.891   2.388  14.794  0.00  0.00    +0.000 A 
ATOM      8  C   UNL     1      36.991   1.370  15.046  0.00  0.00    +0.000 A 
ATOM      9  C   UNL     1      37.417   0.065  15.044  0.00  0.00    +0.000 A 
ATOM     10  C   UNL     1      38.741  -0.265  14.794  0.00  0.00    +0.000 A 
ENDROOT
BRANCH   1  14
ATOM     11  C   UNL     1      36.232  -4.656  15.608  0.00  0.00    +0.000 A 
ATOM     12  C   UNL     1      36.935  -4.060  16.640  0.00  0.00    +0.000 A 
ATOM     13  C   UNL     1      37.869  -3.066  16.365  0.00  0.00    +0.000 A 
ATOM     14  C   UNL     1      38.126  -2.643  15.076  0.00  0.00    +0.000 A 
ATOM     15  C   UNL     1      37.431  -3.231  14.054  0.00  0.00    +0.000 A 
ATOM     16  C   UNL     1      36.513  -4.208  14.337  0.00  0.00    +0.000 A 
BRANCH  11  17
ATOM     17  O   UNL     1      35.293  -5.649  15.840  0.00  0.00    +0.000 OA
BRANCH  17  19
ATOM     18  C   UNL     1      33.285  -4.461  15.225  0.00  0.00    +0.000 C 
ATOM     19  C   UNL     1      34.132  -5.680  15.032  0.00  0.00    +0.000 C 
ENDBRANCH  17  19
ENDBRANCH  11  17
ENDBRANCH   1  14
BRANCH   3  20
ATOM     20  C   UNL     1      42.788  -1.273  14.031  0.00  0.00    +0.000 C 
ATOM     21  O   UNL     1      43.688  -0.450  14.296  0.00  0.00    +0.000 OA
ATOM     22  N   UNL     1      43.132  -2.519  13.487  0.00  0.00    +0.000 NA
BRANCH  22  23
ATOM     23  C   UNL     1      44.529  -2.816  13.245  0.00  0.00    +0.000 C 
BRANCH  23  24
ATOM     24  C   UNL     1      44.715  -3.794  12.146  0.00  0.00    +0.000 A 
ATOM     25  C   UNL     1      45.817  -4.622  11.971  0.00  0.00    +0.000 A 
ATOM     26  C   UNL     1      45.543  -5.346  10.826  0.00  0.00    +0.000 A 
ATOM     27  C   UNL     1      44.316  -4.931  10.373  0.00  0.00    +0.000 A 
ATOM     28  O   UNL     1      43.857  -4.010  11.181  0.00  0.00    +0.000 OA
ENDBRANCH  23  24
ENDBRANCH  22  23
ENDBRANCH   3  20
BRANCH   7  29
ATOM     29  O   UNL     1      37.484   3.726  14.790  0.00  0.00    +0.000 OA
ATOM     30  C   UNL     1      37.784   4.525  15.902  0.00  0.00    +0.000 C 
ENDBRANCH   7  29
BRANCH   8  31
ATOM     31  O   UNL     1      35.671   1.713  15.293  0.00  0.00    +0.000 OA
ATOM     32  C   UNL     1      35.155   1.512  16.615  0.00  0.00    +0.000 C 
ENDBRANCH   8  31
TORSDOF 8
ENDMDL
MODEL 9
REMARK VINA RESULT:      -6.8     23.240     26.429
REMARK  Name = 
REMARK  8 active torsions:
REMARK  status: ('A' for Active; 'I' for Inactive)
REMARK    1  A    between atoms: C_2  and  O_3
REMARK    2  A    between atoms: O_3  and  C_4
REMARK    3  A    between atoms: C_7  and  C_8
REMARK    4  A    between atoms: C_10  and  C_11
REMARK    5  A    between atoms: N_13  and  C_14
REMARK    6  A    between atoms: C_14  and  C_15
REMARK    7  A    between atoms: C_23  and  O_24
REMARK    8  A    between atoms: C_26  and  O_27
REMARK                            x       y       z     vdW  Elec       q    Type
REMARK                         _______ _______ _______ _____ _____    ______ ____
ROOT
ATOM      1  C   UNL     1      15.975  -3.639   6.150  0.00  0.00    +0.000 A 
ATOM      2  C   UNL     1      16.981  -3.161   5.312  0.00  0.00    +0.000 A 
ATOM      3  C   UNL     1      17.088  -1.823   4.994  0.00  0.00    +0.000 A 
ATOM      4  C   UNL     1      16.159  -0.972   5.537  0.00  0.00    +0.000 A 
ATOM      5  C   UNL     1      15.146  -1.392   6.370  0.00  0.00    +0.000 A 
ATOM      6  C   UNL     1      14.206  -0.546   6.922  0.00  0.00    +0.000 A 
ATOM      7  C   UNL     1      13.198  -0.983   7.754  0.00  0.00    +0.000 A 
ATOM      8  C   UNL     1      13.136  -2.333   8.042  0.00  0.00    +0.000 A 
ATOM      9  C   UNL     1      14.062  -3.191   7.501  0.00  0.00    +0.000 A 
ATOM     10  C   UNL     1      15.070  -2.735   6.665  0.00  0.00    +0.000 A 
ENDROOT
BRANCH   1  14
ATOM     11  C   UNL     1      15.681  -7.800   7.128  0.00  0.00    +0.000 A 
ATOM     12  C   UNL     1      16.386  -6.931   7.942  0.00  0.00    +0.000 A 
ATOM     13  C   UNL     1      16.473  -5.582   7.613  0.00  0.00    +0.000 A 
ATOM     14  C   UNL     1      15.872  -5.067   6.482  0.00  0.00    +0.000 A 
ATOM     15  C   UNL     1      15.174  -5.924   5.675  0.00  0.00    +0.000 A 
ATOM     16  C   UNL     1      15.094  -7.250   6.009  0.00  0.00    +0.000 A 
BRANCH  11  17
ATOM     17  O   UNL     1      15.570  -9.150   7.420  0.00  0.00    +0.000 OA
BRANCH  17  19
ATOM     18  C   UNL     1      17.439  -9.998   6.153  0.00  0.00    +0.000 C 
ATOM     19  C   UNL     1      16.751  -9.925   7.480  0.00  0.00    +0.000 C 
ENDBRANCH  17  19
ENDBRANCH  11  17
ENDBRANCH   1  14
BRANCH   3  20
ATOM     20  C   UNL     1      18.154  -1.342   4.110  0.00  0.00    +0.000 C 
ATOM     21  O   UNL     1      18.442  -1.992   3.084  0.00  0.00    +0.000 OA
ATOM     22  N   UNL     1      18.854  -0.162   4.398  0.00  0.00    +0.000 NA
BRANCH  22  23
ATOM     23  C   UNL     1      19.899   0.271   3.493  0.00  0.00    +0.000 C 
BRANCH  23  24
ATOM     24  C   UNL     1      19.410   1.255   2.497  0.00  0.00    +0.000 A 
ATOM     25  C   UNL     1      19.996   1.529   1.267  0.00  0.00    +0.000 A 
ATOM     26  C   UNL     1      19.196   2.502   0.698  0.00  0.00    +0.000 A 
ATOM     27  C   UNL     1      18.188   2.765   1.591  0.00  0.00    +0.000 A 
ATOM     28  O   UNL     1      18.348   2.007   2.644  0.00  0.00    +0.000 OA
ENDBRANCH  23  24
ENDBRANCH  22  23
ENDBRANCH   3  20
BRANCH   7  29
ATOM     29  O   UNL     1      12.268  -0.087   8.290  0.00  0.00    +0.000 OA
ATOM     30  C   UNL     1      11.608   0.798   7.426  0.00  0.00    +0.000 C 
ENDBRANCH   7  29
BRANCH   8  31
ATOM     31  O   UNL     1      12.122  -2.776   8.878  0.00  0.00    +0.000 OA
ATOM     32  C   UNL     1      12.448  -3.062  10.244  0.00  0.00    +0.000 C 
ENDBRANCH   8  31
TORSDOF 8
ENDMDL
MODEL 10
REMARK VINA RESULT:      -6.7      4.446      8.579
REMARK  Name = 
REMARK  8 active torsions:
REMARK  status: ('A' for Active; 'I' for Inactive)
REMARK    1  A    between atoms: C_2  and  O_3
REMARK    2  A    between atoms: O_3  and  C_4
REMARK    3  A    between atoms: C_7  and  C_8
REMARK    4  A    between atoms: C_10  and  C_11
REMARK    5  A    between atoms: N_13  and  C_14
REMARK    6  A    between atoms: C_14  and  C_15
REMARK    7  A    between atoms: C_23  and  O_24
REMARK    8  A    between atoms: C_26  and  O_27
REMARK                            x       y       z     vdW  Elec       q    Type
REMARK                         _______ _______ _______ _____ _____    ______ ____
ROOT
ATOM      1  C   UNL     1      38.918  -1.597  14.892  0.00  0.00    +0.000 A 
ATOM      2  C   UNL     1      40.269  -1.840  14.649  0.00  0.00    +0.000 A 
ATOM      3  C   UNL     1      41.158  -0.817  14.391  0.00  0.00    +0.000 A 
ATOM      4  C   UNL     1      40.659   0.461  14.380  0.00  0.00    +0.000 A 
ATOM      5  C   UNL     1      39.334   0.756  14.613  0.00  0.00    +0.000 A 
ATOM      6  C   UNL     1      38.821   2.036  14.605  0.00  0.00    +0.000 A 
ATOM      7  C   UNL     1      37.492   2.315  14.841  0.00  0.00    +0.000 A 
ATOM      8  C   UNL     1      36.644   1.254  15.096  0.00  0.00    +0.000 A 
ATOM      9  C   UNL     1      37.136  -0.028  15.108  0.00  0.00    +0.000 A 
ATOM     10  C   UNL     1      38.476  -0.291  14.868  0.00  0.00    +0.000 A 
ENDROOT
BRANCH   1  14
ATOM     11  C   UNL     1      36.192  -4.799  15.706  0.00  0.00    +0.000 A 
ATOM     12  C   UNL     1      37.022  -4.309  16.699  0.00  0.00    +0.000 A 
ATOM     13  C   UNL     1      37.903  -3.269  16.421  0.00  0.00    +0.000 A 
ATOM     14  C   UNL     1      37.982  -2.695  15.168  0.00  0.00    +0.000 A 
ATOM     15  C   UNL     1      37.162  -3.178  14.184  0.00  0.00    +0.000 A 
ATOM     16  C   UNL     1      36.298  -4.202  14.470  0.00  0.00    +0.000 A 
BRANCH  11  17
ATOM     17  O   UNL     1      35.301  -5.834  15.942  0.00  0.00    +0.000 OA
BRANCH  17  19
ATOM     18  C   UNL     1      33.879  -7.504  14.939  0.00  0.00    +0.000 C 
ATOM     19  C   UNL     1      34.269  -6.061  15.002  0.00  0.00    +0.000 C 
ENDBRANCH  17  19
ENDBRANCH  11  17
ENDBRANCH   1  14
BRANCH   3  20
ATOM     20  C   UNL     1      42.575  -1.097  14.137  0.00  0.00    +0.000 C 
ATOM     21  O   UNL     1      42.904  -2.180  13.611  0.00  0.00    +0.000 OA
ATOM     22  N   UNL     1      43.566  -0.165  14.475  0.00  0.00    +0.000 NA
BRANCH  22  23
ATOM     23  C   UNL     1      44.953  -0.488  14.204  0.00  0.00    +0.000 C 
BRANCH  23  24
ATOM     24  C   UNL     1      45.742  -0.672  15.446  0.00  0.00    +0.000 A 
ATOM     25  C   UNL     1      45.449  -0.117  16.686  0.00  0.00    +0.000 A 
ATOM     26  C   UNL     1      46.453  -0.563  17.524  0.00  0.00    +0.000 A 
ATOM     27  C   UNL     1      47.286  -1.350  16.769  0.00  0.00    +0.000 A 
ATOM     28  O   UNL     1      46.832  -1.390  15.543  0.00  0.00    +0.000 OA
ENDBRANCH  23  24
ENDBRANCH  22  23
ENDBRANCH   3  20
BRANCH   7  29
ATOM     29  O   UNL     1      37.017   3.630  14.822  0.00  0.00    +0.000 OA
ATOM     30  C   UNL     1      37.755   4.604  14.134  0.00  0.00    +0.000 C 
ENDBRANCH   7  29
BRANCH   8  31
ATOM     31  O   UNL     1      35.306   1.531  15.333  0.00  0.00    +0.000 OA
ATOM     32  C   UNL     1      34.856   1.585  16.692  0.00  0.00    +0.000 C 
ENDBRANCH   8  31
TORSDOF 8
ENDMDL
