MODEL 1
REMARK VINA RESULT:      -8.1      0.000      0.000
REMARK  Name = 
REMARK  7 active torsions:
REMARK  status: ('A' for Active; 'I' for Inactive)
REMARK    1  A    between atoms: C_2  and  O_3
REMARK    2  A    between atoms: O_3  and  C_4
REMARK    3  A    between atoms: C_9  and  N_10
REMARK    4  A    between atoms: N_10  and  C_11
REMARK    5  A    between atoms: C_12  and  S_13
REMARK    6  A    between atoms: S_13  and  C_14
REMARK    7  A    between atoms: N_23  and  C_24
REMARK                            x       y       z     vdW  Elec       q    Type
REMARK                         _______ _______ _______ _____ _____    ______ ____
ROOT
ATOM      1  C   UNL     1      36.332   4.326  14.839  0.00  0.00    +0.000 C 
ATOM      2  C   UNL     1      37.609   4.062  14.955  0.00  0.00    +0.000 C 
ATOM      3  C   UNL     1      37.802   2.649  15.190  0.00  0.00    +0.000 C 
ATOM      4  O   UNL     1      38.865   1.991  15.357  0.00  0.00    +0.000 OA
ATOM      5  N   UNL     1      36.517   2.042  15.212  0.00  0.00    +0.000 N 
ATOM      6  C   UNL     1      35.599   3.100  14.991  0.00  0.00    +0.000 C 
ATOM      7  O   UNL     1      34.329   2.958  14.938  0.00  0.00    +0.000 OA
ENDROOT
BRANCH   5   8
ATOM      8  C   UNL     1      36.208   0.683  15.408  0.00  0.00    +0.000 A 
ATOM      9  C   UNL     1      36.656  -0.293  14.543  0.00  0.00    +0.000 A 
ATOM     10  C   UNL     1      36.344  -1.622  14.747  0.00  0.00    +0.000 A 
ATOM     11  C   UNL     1      35.567  -2.020  15.834  0.00  0.00    +0.000 A 
ATOM     12  C   UNL     1      35.123  -1.033  16.693  0.00  0.00    +0.000 A 
ATOM     13  C   UNL     1      35.429   0.299  16.499  0.00  0.00    +0.000 A 
ENDBRANCH   5   8
BRANCH   1  14
ATOM     14  N   UNL     1      35.779   5.603  14.604  0.00  0.00    +0.000 NA
BRANCH  14  20
ATOM     15  C   UNL     1      34.384   6.841  13.079  0.00  0.00    +0.000 A 
ATOM     16  C   UNL     1      34.073   7.191  11.775  0.00  0.00    +0.000 A 
ATOM     17  C   UNL     1      34.803   6.684  10.742  0.00  0.00    +0.000 A 
ATOM     18  C   UNL     1      35.858   5.821  10.944  0.00  0.00    +0.000 A 
ATOM     19  C   UNL     1      36.164   5.475  12.239  0.00  0.00    +0.000 A 
ATOM     20  C   UNL     1      35.438   5.978  13.291  0.00  0.00    +0.000 A 
BRANCH  15  21
ATOM     21  O   UNL     1      33.702   7.303  14.192  0.00  0.00    +0.000 OA
BRANCH  21  23
ATOM     22  C   UNL     1      33.289   8.767  16.001  0.00  0.00    +0.000 C 
ATOM     23  C   UNL     1      33.878   8.662  14.602  0.00  0.00    +0.000 C 
ENDBRANCH  21  23
ENDBRANCH  15  21
ENDBRANCH  14  20
ENDBRANCH   1  14
BRANCH   2  24
ATOM     24  S   UNL     1      38.921   5.258  14.843  0.00  0.00    +0.000 S 
BRANCH  24  25
ATOM     25  C   UNL     1      39.627   5.627  16.436  0.00  0.00    +0.000 A 
ATOM     26  C   UNL     1      38.911   5.364  17.580  0.00  0.00    +0.000 A 
ATOM     27  C   UNL     1      39.415   5.633  18.837  0.00  0.00    +0.000 A 
ATOM     28  C   UNL     1      40.676   6.181  18.973  0.00  0.00    +0.000 A 
ATOM     29  C   UNL     1      41.237   6.479  20.339  0.00  0.00    +0.000 C 
ATOM     30  C   UNL     1      41.408   6.450  17.834  0.00  0.00    +0.000 A 
ATOM     31  C   UNL     1      40.881   6.173  16.579  0.00  0.00    +0.000 A 
ENDBRANCH  24  25
ENDBRANCH   2  24
TORSDOF 7
ENDMDL
MODEL 2
REMARK VINA RESULT:      -7.8      3.846      6.566
REMARK  Name = 
REMARK  7 active torsions:
REMARK  status: ('A' for Active; 'I' for Inactive)
REMARK    1  A    between atoms: C_2  and  O_3
REMARK    2  A    between atoms: O_3  and  C_4
REMARK    3  A    between atoms: C_9  and  N_10
REMARK    4  A    between atoms: N_10  and  C_11
REMARK    5  A    between atoms: C_12  and  S_13
REMARK    6  A    between atoms: S_13  and  C_14
REMARK    7  A    between atoms: N_23  and  C_24
REMARK                            x       y       z     vdW  Elec       q    Type
REMARK                         _______ _______ _______ _____ _____    ______ ____
ROOT
ATOM      1  C   UNL     1      37.553   0.633  14.704  0.00  0.00    +0.000 C 
ATOM      2  C   UNL     1      38.182   1.767  14.523  0.00  0.00    +0.000 C 
ATOM      3  C   UNL     1      39.524   1.517  14.050  0.00  0.00    +0.000 C 
ATOM      4  O   UNL     1      40.447   2.326  13.758  0.00  0.00    +0.000 OA
ATOM      5  N   UNL     1      39.685   0.108  13.950  0.00  0.00    +0.000 N 
ATOM      6  C   UNL     1      38.444  -0.440  14.363  0.00  0.00    +0.000 C 
ATOM      7  O   UNL     1      38.185  -1.692  14.411  0.00  0.00    +0.000 OA
ENDROOT
BRANCH   5   8
ATOM      8  C   UNL     1      40.825  -0.603  13.533  0.00  0.00    +0.000 A 
ATOM      9  C   UNL     1      41.079  -0.844  12.199  0.00  0.00    +0.000 A 
ATOM     10  C   UNL     1      42.201  -1.545  11.803  0.00  0.00    +0.000 A 
ATOM     11  C   UNL     1      43.112  -2.031  12.740  0.00  0.00    +0.000 A 
ATOM     12  C   UNL     1      42.846  -1.785  14.073  0.00  0.00    +0.000 A 
ATOM     13  C   UNL     1      41.729  -1.086  14.480  0.00  0.00    +0.000 A 
ENDBRANCH   5   8
BRANCH   1  14
ATOM     14  N   UNL     1      36.224   0.499  15.160  0.00  0.00    +0.000 NA
BRANCH  14  20
ATOM     15  C   UNL     1      35.500  -1.168  16.742  0.00  0.00    +0.000 A 
ATOM     16  C   UNL     1      35.276  -1.534  18.058  0.00  0.00    +0.000 A 
ATOM     17  C   UNL     1      35.538  -0.653  19.063  0.00  0.00    +0.000 A 
ATOM     18  C   UNL     1      36.025   0.613  18.821  0.00  0.00    +0.000 A 
ATOM     19  C   UNL     1      36.245   0.975  17.512  0.00  0.00    +0.000 A 
ATOM     20  C   UNL     1      35.986   0.097  16.488  0.00  0.00    +0.000 A 
BRANCH  15  21
ATOM     21  O   UNL     1      35.265  -1.992  15.654  0.00  0.00    +0.000 OA
BRANCH  21  23
ATOM     22  C   UNL     1      34.192  -4.009  15.044  0.00  0.00    +0.000 C 
ATOM     23  C   UNL     1      35.355  -3.410  15.823  0.00  0.00    +0.000 C 
ENDBRANCH  21  23
ENDBRANCH  15  21
ENDBRANCH  14  20
ENDBRANCH   1  14
BRANCH   2  24
ATOM     24  S   UNL     1      37.495   3.382  14.812  0.00  0.00    +0.000 S 
BRANCH  24  25
ATOM     25  C   UNL     1      38.378   4.266  16.081  0.00  0.00    +0.000 A 
ATOM     26  C   UNL     1      37.995   4.141  17.396  0.00  0.00    +0.000 A 
ATOM     27  C   UNL     1      38.648   4.807  18.415  0.00  0.00    +0.000 A 
ATOM     28  C   UNL     1      39.722   5.626  18.128  0.00  0.00    +0.000 A 
ATOM     29  C   UNL     1      40.443   6.357  19.231  0.00  0.00    +0.000 C 
ATOM     30  C   UNL     1      40.120   5.761  16.813  0.00  0.00    +0.000 A 
ATOM     31  C   UNL     1      39.448   5.084  15.803  0.00  0.00    +0.000 A 
ENDBRANCH  24  25
ENDBRANCH   2  24
TORSDOF 7
ENDMDL
MODEL 3
REMARK VINA RESULT:      -7.7      2.431      6.279
REMARK  Name = 
REMARK  7 active torsions:
REMARK  status: ('A' for Active; 'I' for Inactive)
REMARK    1  A    between atoms: C_2  and  O_3
REMARK    2  A    between atoms: O_3  and  C_4
REMARK    3  A    between atoms: C_9  and  N_10
REMARK    4  A    between atoms: N_10  and  C_11
REMARK    5  A    between atoms: C_12  and  S_13
REMARK    6  A    between atoms: S_13  and  C_14
REMARK    7  A    between atoms: N_23  and  C_24
REMARK                            x       y       z     vdW  Elec       q    Type
REMARK                         _______ _______ _______ _____ _____    ______ ____
ROOT
ATOM      1  C   UNL     1      38.187   5.811  16.148  0.00  0.00    +0.000 C 
ATOM      2  C   UNL     1      37.458   6.017  15.082  0.00  0.00    +0.000 C 
ATOM      3  C   UNL     1      36.669   4.842  14.789  0.00  0.00    +0.000 C 
ATOM      4  O   UNL     1      35.845   4.627  13.858  0.00  0.00    +0.000 OA
ATOM      5  N   UNL     1      36.973   3.867  15.778  0.00  0.00    +0.000 N 
ATOM      6  C   UNL     1      37.927   4.482  16.628  0.00  0.00    +0.000 C 
ATOM      7  O   UNL     1      38.453   3.923  17.651  0.00  0.00    +0.000 OA
ENDROOT
BRANCH   5   8
ATOM      8  C   UNL     1      36.447   2.568  15.901  0.00  0.00    +0.000 A 
ATOM      9  C   UNL     1      35.336   2.308  16.677  0.00  0.00    +0.000 A 
ATOM     10  C   UNL     1      34.832   1.028  16.789  0.00  0.00    +0.000 A 
ATOM     11  C   UNL     1      35.428  -0.042  16.122  0.00  0.00    +0.000 A 
ATOM     12  C   UNL     1      36.539   0.231  15.349  0.00  0.00    +0.000 A 
ATOM     13  C   UNL     1      37.053   1.507  15.229  0.00  0.00    +0.000 A 
ENDBRANCH   5   8
BRANCH   1  14
ATOM     14  N   UNL     1      39.079   6.743  16.722  0.00  0.00    +0.000 NA
BRANCH  14  20
ATOM     15  C   UNL     1      39.609   6.956  19.063  0.00  0.00    +0.000 A 
ATOM     16  C   UNL     1      39.306   7.494  20.302  0.00  0.00    +0.000 A 
ATOM     17  C   UNL     1      38.229   8.317  20.442  0.00  0.00    +0.000 A 
ATOM     18  C   UNL     1      37.412   8.642  19.381  0.00  0.00    +0.000 A 
ATOM     19  C   UNL     1      37.715   8.106  18.151  0.00  0.00    +0.000 A 
ATOM     20  C   UNL     1      38.797   7.275  17.995  0.00  0.00    +0.000 A 
BRANCH  15  21
ATOM     21  O   UNL     1      40.680   6.111  18.822  0.00  0.00    +0.000 OA
BRANCH  21  23
ATOM     22  C   UNL     1      42.711   6.647  17.738  0.00  0.00    +0.000 C 
ATOM     23  C   UNL     1      42.006   6.577  19.085  0.00  0.00    +0.000 C 
ENDBRANCH  21  23
ENDBRANCH  15  21
ENDBRANCH  14  20
ENDBRANCH   1  14
BRANCH   2  24
ATOM     24  S   UNL     1      37.432   7.516  14.126  0.00  0.00    +0.000 S 
BRANCH  24  25
ATOM     25  C   UNL     1      36.277   8.705  14.778  0.00  0.00    +0.000 A 
ATOM     26  C   UNL     1      36.712   9.960  15.135  0.00  0.00    +0.000 A 
ATOM     27  C   UNL     1      35.855  10.914  15.645  0.00  0.00    +0.000 A 
ATOM     28  C   UNL     1      34.515  10.622  15.810  0.00  0.00    +0.000 A 
ATOM     29  C   UNL     1      33.570  11.656  16.367  0.00  0.00    +0.000 C 
ATOM     30  C   UNL     1      34.062   9.367  15.457  0.00  0.00    +0.000 A 
ATOM     31  C   UNL     1      34.942   8.421  14.946  0.00  0.00    +0.000 A 
ENDBRANCH  24  25
ENDBRANCH   2  24
TORSDOF 7
ENDMDL
MODEL 4
REMARK VINA RESULT:      -7.7      2.207      7.664
REMARK  Name = 
REMARK  7 active torsions:
REMARK  status: ('A' for Active; 'I' for Inactive)
REMARK    1  A    between atoms: C_2  and  O_3
REMARK    2  A    between atoms: O_3  and  C_4
REMARK    3  A    between atoms: C_9  and  N_10
REMARK    4  A    between atoms: N_10  and  C_11
REMARK    5  A    between atoms: C_12  and  S_13
REMARK    6  A    between atoms: S_13  and  C_14
REMARK    7  A    between atoms: N_23  and  C_24
REMARK                            x       y       z     vdW  Elec       q    Type
REMARK                         _______ _______ _______ _____ _____    ______ ____
ROOT
ATOM      1  C   UNL     1      38.410   4.109  15.914  0.00  0.00    +0.000 C 
ATOM      2  C   UNL     1      38.558   5.153  15.138  0.00  0.00    +0.000 C 
ATOM      3  C   UNL     1      38.694   6.348  15.939  0.00  0.00    +0.000 C 
ATOM      4  O   UNL     1      38.854   7.549  15.586  0.00  0.00    +0.000 OA
ATOM      5  N   UNL     1      38.617   5.957  17.303  0.00  0.00    +0.000 N 
ATOM      6  C   UNL     1      38.438   4.551  17.280  0.00  0.00    +0.000 C 
ATOM      7  O   UNL     1      38.324   3.818  18.323  0.00  0.00    +0.000 OA
ENDROOT
BRANCH   5   8
ATOM      8  C   UNL     1      38.699   6.779  18.443  0.00  0.00    +0.000 A 
ATOM      9  C   UNL     1      39.728   6.653  19.352  0.00  0.00    +0.000 A 
ATOM     10  C   UNL     1      39.796   7.465  20.467  0.00  0.00    +0.000 A 
ATOM     11  C   UNL     1      38.826   8.438  20.708  0.00  0.00    +0.000 A 
ATOM     12  C   UNL     1      37.800   8.554  19.791  0.00  0.00    +0.000 A 
ATOM     13  C   UNL     1      37.722   7.748  18.673  0.00  0.00    +0.000 A 
ENDBRANCH   5   8
BRANCH   1  14
ATOM     14  N   UNL     1      38.249   2.778  15.472  0.00  0.00    +0.000 NA
BRANCH  14  20
ATOM     15  C   UNL     1      37.107   0.703  15.917  0.00  0.00    +0.000 A 
ATOM     16  C   UNL     1      35.936   0.042  16.247  0.00  0.00    +0.000 A 
ATOM     17  C   UNL     1      34.791   0.749  16.454  0.00  0.00    +0.000 A 
ATOM     18  C   UNL     1      34.747   2.123  16.347  0.00  0.00    +0.000 A 
ATOM     19  C   UNL     1      35.912   2.777  16.019  0.00  0.00    +0.000 A 
ATOM     20  C   UNL     1      37.074   2.077  15.807  0.00  0.00    +0.000 A 
BRANCH  15  21
ATOM     21  O   UNL     1      38.319   0.073  15.687  0.00  0.00    +0.000 OA
BRANCH  21  23
ATOM     22  C   UNL     1      39.672  -1.806  15.211  0.00  0.00    +0.000 C 
ATOM     23  C   UNL     1      38.439  -1.326  15.962  0.00  0.00    +0.000 C 
ENDBRANCH  21  23
ENDBRANCH  15  21
ENDBRANCH  14  20
ENDBRANCH   1  14
BRANCH   2  24
ATOM     24  S   UNL     1      38.589   5.117  13.360  0.00  0.00    +0.000 S 
BRANCH  24  25
ATOM     25  C   UNL     1      37.081   5.750  12.653  0.00  0.00    +0.000 A 
ATOM     26  C   UNL     1      35.967   5.907  13.444  0.00  0.00    +0.000 A 
ATOM     27  C   UNL     1      34.776   6.393  12.941  0.00  0.00    +0.000 A 
ATOM     28  C   UNL     1      34.679   6.739  11.607  0.00  0.00    +0.000 A 
ATOM     29  C   UNL     1      33.384   7.270  11.048  0.00  0.00    +0.000 C 
ATOM     30  C   UNL     1      35.788   6.586  10.801  0.00  0.00    +0.000 A 
ATOM     31  C   UNL     1      36.976   6.095  11.326  0.00  0.00    +0.000 A 
ENDBRANCH  24  25
ENDBRANCH   2  24
TORSDOF 7
ENDMDL
MODEL 5
REMARK VINA RESULT:      -7.7      3.816      6.294
REMARK  Name = 
REMARK  7 active torsions:
REMARK  status: ('A' for Active; 'I' for Inactive)
REMARK    1  A    between atoms: C_2  and  O_3
REMARK    2  A    between atoms: O_3  and  C_4
REMARK    3  A    between atoms: C_9  and  N_10
REMARK    4  A    between atoms: N_10  and  C_11
REMARK    5  A    between atoms: C_12  and  S_13
REMARK    6  A    between atoms: S_13  and  C_14
REMARK    7  A    between atoms: N_23  and  C_24
REMARK                            x       y       z     vdW  Elec       q    Type
REMARK                         _______ _______ _______ _____ _____    ______ ____
ROOT
ATOM      1  C   UNL     1      37.106  -0.654  15.626  0.00  0.00    +0.000 C 
ATOM      2  C   UNL     1      37.690  -1.071  14.531  0.00  0.00    +0.000 C 
ATOM      3  C   UNL     1      37.256  -2.414  14.220  0.00  0.00    +0.000 C 
ATOM      4  O   UNL     1      37.576  -3.170  13.262  0.00  0.00    +0.000 OA
ATOM      5  N   UNL     1      36.337  -2.809  15.229  0.00  0.00    +0.000 N 
ATOM      6  C   UNL     1      36.247  -1.700  16.108  0.00  0.00    +0.000 C 
ATOM      7  O   UNL     1      35.511  -1.662  17.154  0.00  0.00    +0.000 OA
ENDROOT
BRANCH   5   8
ATOM      8  C   UNL     1      35.654  -4.034  15.344  0.00  0.00    +0.000 A 
ATOM      9  C   UNL     1      36.135  -5.059  16.131  0.00  0.00    +0.000 A 
ATOM     10  C   UNL     1      35.456  -6.256  16.233  0.00  0.00    +0.000 A 
ATOM     11  C   UNL     1      34.262  -6.467  15.544  0.00  0.00    +0.000 A 
ATOM     12  C   UNL     1      33.790  -5.434  14.758  0.00  0.00    +0.000 A 
ATOM     13  C   UNL     1      34.461  -4.232  14.649  0.00  0.00    +0.000 A 
ENDBRANCH   5   8
BRANCH   1  14
ATOM     14  N   UNL     1      37.295   0.610  16.223  0.00  0.00    +0.000 NA
BRANCH  14  20
ATOM     15  C   UNL     1      37.228   2.850  15.338  0.00  0.00    +0.000 A 
ATOM     16  C   UNL     1      36.480   3.920  14.878  0.00  0.00    +0.000 A 
ATOM     17  C   UNL     1      35.121   3.834  14.838  0.00  0.00    +0.000 A 
ATOM     18  C   UNL     1      34.446   2.703  15.246  0.00  0.00    +0.000 A 
ATOM     19  C   UNL     1      35.192   1.642  15.704  0.00  0.00    +0.000 A 
ATOM     20  C   UNL     1      36.563   1.715  15.749  0.00  0.00    +0.000 A 
BRANCH  15  21
ATOM     21  O   UNL     1      38.611   2.843  15.416  0.00  0.00    +0.000 OA
BRANCH  21  23
ATOM     22  C   UNL     1      40.068   3.769  13.801  0.00  0.00    +0.000 C 
ATOM     23  C   UNL     1      39.331   4.040  15.105  0.00  0.00    +0.000 C 
ENDBRANCH  21  23
ENDBRANCH  15  21
ENDBRANCH  14  20
ENDBRANCH   1  14
BRANCH   2  24
ATOM     24  S   UNL     1      38.849  -0.132  13.562  0.00  0.00    +0.000 S 
BRANCH  24  25
ATOM     25  C   UNL     1      40.536  -0.575  13.923  0.00  0.00    +0.000 A 
ATOM     26  C   UNL     1      41.527   0.374  13.835  0.00  0.00    +0.000 A 
ATOM     27  C   UNL     1      42.849   0.078  14.104  0.00  0.00    +0.000 A 
ATOM     28  C   UNL     1      43.208  -1.202  14.477  0.00  0.00    +0.000 A 
ATOM     29  C   UNL     1      44.648  -1.536  14.774  0.00  0.00    +0.000 C 
ATOM     30  C   UNL     1      42.225  -2.166  14.571  0.00  0.00    +0.000 A 
ATOM     31  C   UNL     1      40.902  -1.848  14.294  0.00  0.00    +0.000 A 
ENDBRANCH  24  25
ENDBRANCH   2  24
TORSDOF 7
ENDMDL
MODEL 6
REMARK VINA RESULT:      -7.6      1.836      6.083
REMARK  Name = 
REMARK  7 active torsions:
REMARK  status: ('A' for Active; 'I' for Inactive)
REMARK    1  A    between atoms: C_2  and  O_3
REMARK    2  A    between atoms: O_3  and  C_4
REMARK    3  A    between atoms: C_9  and  N_10
REMARK    4  A    between atoms: N_10  and  C_11
REMARK    5  A    between atoms: C_12  and  S_13
REMARK    6  A    between atoms: S_13  and  C_14
REMARK    7  A    between atoms: N_23  and  C_24
REMARK                            x       y       z     vdW  Elec       q    Type
REMARK                         _______ _______ _______ _____ _____    ______ ____
ROOT
ATOM      1  C   UNL     1      36.824   3.830  16.056  0.00  0.00    +0.000 C 
ATOM      2  C   UNL     1      37.727   4.776  16.010  0.00  0.00    +0.000 C 
ATOM      3  C   UNL     1      37.406   5.714  14.959  0.00  0.00    +0.000 C 
ATOM      4  O   UNL     1      38.012   6.755  14.586  0.00  0.00    +0.000 OA
ATOM      5  N   UNL     1      36.207   5.266  14.340  0.00  0.00    +0.000 N 
ATOM      6  C   UNL     1      35.847   4.083  15.034  0.00  0.00    +0.000 C 
ATOM      7  O   UNL     1      34.814   3.376  14.773  0.00  0.00    +0.000 OA
ENDROOT
BRANCH   5   8
ATOM      8  C   UNL     1      35.514   5.860  13.270  0.00  0.00    +0.000 A 
ATOM      9  C   UNL     1      35.977   5.777  11.973  0.00  0.00    +0.000 A 
ATOM     10  C   UNL     1      35.288   6.365  10.932  0.00  0.00    +0.000 A 
ATOM     11  C   UNL     1      34.102   7.063  11.157  0.00  0.00    +0.000 A 
ATOM     12  C   UNL     1      33.649   7.141  12.460  0.00  0.00    +0.000 A 
ATOM     13  C   UNL     1      34.329   6.556  13.509  0.00  0.00    +0.000 A 
ENDBRANCH   5   8
BRANCH   1  14
ATOM     14  N   UNL     1      36.820   2.746  16.961  0.00  0.00    +0.000 NA
BRANCH  14  20
ATOM     15  C   UNL     1      37.323   0.845  15.569  0.00  0.00    +0.000 A 
ATOM     16  C   UNL     1      36.984  -0.423  15.128  0.00  0.00    +0.000 A 
ATOM     17  C   UNL     1      35.865  -1.035  15.608  0.00  0.00    +0.000 A 
ATOM     18  C   UNL     1      35.040  -0.432  16.532  0.00  0.00    +0.000 A 
ATOM     19  C   UNL     1      35.378   0.828  16.968  0.00  0.00    +0.000 A 
ATOM     20  C   UNL     1      36.503   1.456  16.493  0.00  0.00    +0.000 A 
BRANCH  15  21
ATOM     21  O   UNL     1      38.438   1.546  15.140  0.00  0.00    +0.000 OA
BRANCH  21  23
ATOM     22  C   UNL     1      39.816   1.400  13.225  0.00  0.00    +0.000 C 
ATOM     23  C   UNL     1      39.552   0.824  14.609  0.00  0.00    +0.000 C 
ENDBRANCH  21  23
ENDBRANCH  15  21
ENDBRANCH  14  20
ENDBRANCH   1  14
BRANCH   2  24
ATOM     24  S   UNL     1      39.144   4.899  17.078  0.00  0.00    +0.000 S 
BRANCH  24  25
ATOM     25  C   UNL     1      38.966   6.207  18.274  0.00  0.00    +0.000 A 
ATOM     26  C   UNL     1      38.029   7.194  18.077  0.00  0.00    +0.000 A 
ATOM     27  C   UNL     1      37.855   8.229  18.975  0.00  0.00    +0.000 A 
ATOM     28  C   UNL     1      38.634   8.293  20.113  0.00  0.00    +0.000 A 
ATOM     29  C   UNL     1      38.453   9.417  21.101  0.00  0.00    +0.000 C 
ATOM     30  C   UNL     1      39.579   7.311  20.326  0.00  0.00    +0.000 A 
ATOM     31  C   UNL     1      39.739   6.280  19.410  0.00  0.00    +0.000 A 
ENDBRANCH  24  25
ENDBRANCH   2  24
TORSDOF 7
ENDMDL
MODEL 7
REMARK VINA RESULT:      -7.5      2.114      6.172
REMARK  Name = 
REMARK  7 active torsions:
REMARK  status: ('A' for Active; 'I' for Inactive)
REMARK    1  A    between atoms: C_2  and  O_3
REMARK    2  A    between atoms: O_3  and  C_4
REMARK    3  A    between atoms: C_9  and  N_10
REMARK    4  A    between atoms: N_10  and  C_11
REMARK    5  A    between atoms: C_12  and  S_13
REMARK    6  A    between atoms: S_13  and  C_14
REMARK    7  A    between atoms: N_23  and  C_24
REMARK                            x       y       z     vdW  Elec       q    Type
REMARK                         _______ _______ _______ _____ _____    ______ ____
ROOT
ATOM      1  C   UNL     1      37.263   6.243  14.570  0.00  0.00    +0.000 C 
ATOM      2  C   UNL     1      37.243   4.960  14.823  0.00  0.00    +0.000 C 
ATOM      3  C   UNL     1      38.113   4.663  15.938  0.00  0.00    +0.000 C 
ATOM      4  O   UNL     1      38.376   3.561  16.493  0.00  0.00    +0.000 OA
ATOM      5  N   UNL     1      38.690   5.889  16.366  0.00  0.00    +0.000 N 
ATOM      6  C   UNL     1      38.153   6.877  15.502  0.00  0.00    +0.000 C 
ATOM      7  O   UNL     1      38.430   8.124  15.566  0.00  0.00    +0.000 OA
ENDROOT
BRANCH   5   8
ATOM      8  C   UNL     1      39.601   6.094  17.419  0.00  0.00    +0.000 A 
ATOM      9  C   UNL     1      40.955   6.223  17.189  0.00  0.00    +0.000 A 
ATOM     10  C   UNL     1      41.837   6.423  18.232  0.00  0.00    +0.000 A 
ATOM     11  C   UNL     1      41.388   6.500  19.550  0.00  0.00    +0.000 A 
ATOM     12  C   UNL     1      40.030   6.368  19.767  0.00  0.00    +0.000 A 
ATOM     13  C   UNL     1      39.139   6.169  18.733  0.00  0.00    +0.000 A 
ENDBRANCH   5   8
BRANCH   1  14
ATOM     14  N   UNL     1      36.532   6.887  13.548  0.00  0.00    +0.000 NA
BRANCH  14  20
ATOM     15  C   UNL     1      35.849   9.194  13.428  0.00  0.00    +0.000 A 
ATOM     16  C   UNL     1      34.943  10.182  13.778  0.00  0.00    +0.000 A 
ATOM     17  C   UNL     1      33.867   9.874  14.554  0.00  0.00    +0.000 A 
ATOM     18  C   UNL     1      33.638   8.596  15.016  0.00  0.00    +0.000 A 
ATOM     19  C   UNL     1      34.539   7.617  14.668  0.00  0.00    +0.000 A 
ATOM     20  C   UNL     1      35.629   7.913  13.886  0.00  0.00    +0.000 A 
BRANCH  15  21
ATOM     21  O   UNL     1      36.971   9.409  12.645  0.00  0.00    +0.000 OA
BRANCH  21  23
ATOM     22  C   UNL     1      36.235   9.134  10.415  0.00  0.00    +0.000 C 
ATOM     23  C   UNL     1      36.832  10.119  11.410  0.00  0.00    +0.000 C 
ENDBRANCH  21  23
ENDBRANCH  15  21
ENDBRANCH  14  20
ENDBRANCH   1  14
BRANCH   2  24
ATOM     24  S   UNL     1      36.288   3.750  13.935  0.00  0.00    +0.000 S 
BRANCH  24  25
ATOM     25  C   UNL     1      35.856   2.358  14.959  0.00  0.00    +0.000 A 
ATOM     26  C   UNL     1      36.339   1.107  14.653  0.00  0.00    +0.000 A 
ATOM     27  C   UNL     1      36.032  -0.003  15.416  0.00  0.00    +0.000 A 
ATOM     28  C   UNL     1      35.218   0.125  16.524  0.00  0.00    +0.000 A 
ATOM     29  C   UNL     1      34.876  -1.079  17.364  0.00  0.00    +0.000 C 
ATOM     30  C   UNL     1      34.725   1.374  16.845  0.00  0.00    +0.000 A 
ATOM     31  C   UNL     1      35.046   2.476  16.064  0.00  0.00    +0.000 A 
ENDBRANCH  24  25
ENDBRANCH   2  24
TORSDOF 7
ENDMDL
MODEL 8
REMARK VINA RESULT:      -7.5     22.787     26.022
REMARK  Name = 
REMARK  7 active torsions:
REMARK  status: ('A' for Active; 'I' for Inactive)
REMARK    1  A    between atoms: C_2  and  O_3
REMARK    2  A    between atoms: O_3  and  C_4
REMARK    3  A    between atoms: C_9  and  N_10
REMARK    4  A    between atoms: N_10  and  C_11
REMARK    5  A    between atoms: C_12  and  S_13
REMARK    6  A    between atoms: S_13  and  C_14
REMARK    7  A    between atoms: N_23  and  C_24
REMARK                            x       y       z     vdW  Elec       q    Type
REMARK                         _______ _______ _______ _____ _____    ______ ____
ROOT
ATOM      1  C   UNL     1      29.450  15.561  36.887  0.00  0.00    +0.000 C 
ATOM      2  C   UNL     1      28.460  15.565  37.742  0.00  0.00    +0.000 C 
ATOM      3  C   UNL     1      27.198  15.582  37.036  0.00  0.00    +0.000 C 
ATOM      4  O   UNL     1      26.018  15.591  37.481  0.00  0.00    +0.000 OA
ATOM      5  N   UNL     1      27.489  15.590  35.645  0.00  0.00    +0.000 N 
ATOM      6  C   UNL     1      28.905  15.577  35.558  0.00  0.00    +0.000 C 
ATOM      7  O   UNL     1      29.564  15.578  34.462  0.00  0.00    +0.000 OA
ENDROOT
BRANCH   5   8
ATOM      8  C   UNL     1      26.578  15.607  34.573  0.00  0.00    +0.000 A 
ATOM      9  C   UNL     1      26.200  14.448  33.927  0.00  0.00    +0.000 A 
ATOM     10  C   UNL     1      25.307  14.479  32.875  0.00  0.00    +0.000 A 
ATOM     11  C   UNL     1      24.758  15.682  32.432  0.00  0.00    +0.000 A 
ATOM     12  C   UNL     1      25.145  16.836  33.086  0.00  0.00    +0.000 A 
ATOM     13  C   UNL     1      26.037  16.817  34.139  0.00  0.00    +0.000 A 
ENDBRANCH   5   8
BRANCH   1  14
ATOM     14  N   UNL     1      30.821  15.545  37.224  0.00  0.00    +0.000 NA
BRANCH  14  20
ATOM     15  C   UNL     1      32.496  14.163  36.180  0.00  0.00    +0.000 A 
ATOM     16  C   UNL     1      33.181  12.961  36.136  0.00  0.00    +0.000 A 
ATOM     17  C   UNL     1      32.900  11.984  37.042  0.00  0.00    +0.000 A 
ATOM     18  C   UNL     1      31.943  12.145  38.020  0.00  0.00    +0.000 A 
ATOM     19  C   UNL     1      31.263  13.340  38.061  0.00  0.00    +0.000 A 
ATOM     20  C   UNL     1      31.536  14.334  37.154  0.00  0.00    +0.000 A 
BRANCH  15  21
ATOM     21  O   UNL     1      32.710  15.214  35.302  0.00  0.00    +0.000 OA
BRANCH  21  23
ATOM     22  C   UNL     1      32.766  16.172  33.142  0.00  0.00    +0.000 C 
ATOM     23  C   UNL     1      33.095  14.928  33.954  0.00  0.00    +0.000 C 
ENDBRANCH  21  23
ENDBRANCH  15  21
ENDBRANCH  14  20
ENDBRANCH   1  14
BRANCH   2  24
ATOM     24  S   UNL     1      28.628  15.550  39.513  0.00  0.00    +0.000 S 
BRANCH  24  25
ATOM     25  C   UNL     1      28.131  13.992  40.218  0.00  0.00    +0.000 A 
ATOM     26  C   UNL     1      26.796  13.680  40.320  0.00  0.00    +0.000 A 
ATOM     27  C   UNL     1      26.362  12.485  40.860  0.00  0.00    +0.000 A 
ATOM     28  C   UNL     1      27.281  11.559  41.316  0.00  0.00    +0.000 A 
ATOM     29  C   UNL     1      26.819  10.252  41.906  0.00  0.00    +0.000 C 
ATOM     30  C   UNL     1      28.625  11.857  41.220  0.00  0.00    +0.000 A 
ATOM     31  C   UNL     1      29.040  13.065  40.675  0.00  0.00    +0.000 A 
ENDBRANCH  24  25
ENDBRANCH   2  24
TORSDOF 7
ENDMDL
MODEL 9
REMARK VINA RESULT:      -7.4      1.956      7.181
REMARK  Name = 
REMARK  7 active torsions:
REMARK  status: ('A' for Active; 'I' for Inactive)
REMARK    1  A    between atoms: C_2  and  O_3
REMARK    2  A    between atoms: O_3  and  C_4
REMARK    3  A    between atoms: C_9  and  N_10
REMARK    4  A    between atoms: N_10  and  C_11
REMARK    5  A    between atoms: C_12  and  S_13
REMARK    6  A    between atoms: S_13  and  C_14
REMARK    7  A    between atoms: N_23  and  C_24
REMARK                            x       y       z     vdW  Elec       q    Type
REMARK                         _______ _______ _______ _____ _____    ______ ____
ROOT
ATOM      1  C   UNL     1      36.876   4.343  14.925  0.00  0.00    +0.000 C 
ATOM      2  C   UNL     1      36.741   5.605  14.608  0.00  0.00    +0.000 C 
ATOM      3  C   UNL     1      37.616   6.416  15.424  0.00  0.00    +0.000 C 
ATOM      4  O   UNL     1      37.789   7.665  15.437  0.00  0.00    +0.000 OA
ATOM      5  N   UNL     1      38.320   5.539  16.294  0.00  0.00    +0.000 N 
ATOM      6  C   UNL     1      37.851   4.239  15.975  0.00  0.00    +0.000 C 
ATOM      7  O   UNL     1      38.249   3.166  16.545  0.00  0.00    +0.000 OA
ENDROOT
BRANCH   5   8
ATOM      8  C   UNL     1      39.280   5.875  17.266  0.00  0.00    +0.000 A 
ATOM      9  C   UNL     1      38.966   5.919  18.608  0.00  0.00    +0.000 A 
ATOM     10  C   UNL     1      39.917   6.251  19.551  0.00  0.00    +0.000 A 
ATOM     11  C   UNL     1      41.226   6.553  19.177  0.00  0.00    +0.000 A 
ATOM     12  C   UNL     1      41.529   6.507  17.830  0.00  0.00    +0.000 A 
ATOM     13  C   UNL     1      40.586   6.176  16.878  0.00  0.00    +0.000 A 
ENDBRANCH   5   8
BRANCH   1  14
ATOM     14  N   UNL     1      36.176   3.270  14.331  0.00  0.00    +0.000 NA
BRANCH  14  20
ATOM     15  C   UNL     1      36.432   0.923  14.808  0.00  0.00    +0.000 A 
ATOM     16  C   UNL     1      36.098  -0.172  15.588  0.00  0.00    +0.000 A 
ATOM     17  C   UNL     1      35.223  -0.028  16.621  0.00  0.00    +0.000 A 
ATOM     18  C   UNL     1      34.643   1.184  16.929  0.00  0.00    +0.000 A 
ATOM     19  C   UNL     1      34.976   2.268  16.151  0.00  0.00    +0.000 A 
ATOM     20  C   UNL     1      35.857   2.139  15.106  0.00  0.00    +0.000 A 
BRANCH  15  21
ATOM     21  O   UNL     1      37.311   0.876  13.737  0.00  0.00    +0.000 OA
BRANCH  21  23
ATOM     22  C   UNL     1      39.583   0.780  14.381  0.00  0.00    +0.000 C 
ATOM     23  C   UNL     1      38.428  -0.016  13.792  0.00  0.00    +0.000 C 
ENDBRANCH  21  23
ENDBRANCH  15  21
ENDBRANCH  14  20
ENDBRANCH   1  14
BRANCH   2  24
ATOM     24  S   UNL     1      35.646   6.241  13.359  0.00  0.00    +0.000 S 
BRANCH  24  25
ATOM     25  C   UNL     1      35.082   7.887  13.740  0.00  0.00    +0.000 A 
ATOM     26  C   UNL     1      34.188   8.085  14.767  0.00  0.00    +0.000 A 
ATOM     27  C   UNL     1      33.722   9.341  15.099  0.00  0.00    +0.000 A 
ATOM     28  C   UNL     1      34.154  10.447  14.394  0.00  0.00    +0.000 A 
ATOM     29  C   UNL     1      33.652  11.824  14.747  0.00  0.00    +0.000 C 
ATOM     30  C   UNL     1      35.051  10.266  13.360  0.00  0.00    +0.000 A 
ATOM     31  C   UNL     1      35.506   8.993  13.042  0.00  0.00    +0.000 A 
ENDBRANCH  24  25
ENDBRANCH   2  24
TORSDOF 7
ENDMDL
MODEL 10
REMARK VINA RESULT:      -7.4     23.881     26.758
REMARK  Name = 
REMARK  7 active torsions:
REMARK  status: ('A' for Active; 'I' for Inactive)
REMARK    1  A    between atoms: C_2  and  O_3
REMARK    2  A    between atoms: O_3  and  C_4
REMARK    3  A    between atoms: C_9  and  N_10
REMARK    4  A    between atoms: N_10  and  C_11
REMARK    5  A    between atoms: C_12  and  S_13
REMARK    6  A    between atoms: S_13  and  C_14
REMARK    7  A    between atoms: N_23  and  C_24
REMARK                            x       y       z     vdW  Elec       q    Type
REMARK                         _______ _______ _______ _____ _____    ______ ____
ROOT
ATOM      1  C   UNL     1      29.200  15.571  37.098  0.00  0.00    +0.000 C 
ATOM      2  C   UNL     1      28.172  15.444  37.897  0.00  0.00    +0.000 C 
ATOM      3  C   UNL     1      26.948  15.433  37.129  0.00  0.00    +0.000 C 
ATOM      4  O   UNL     1      25.749  15.330  37.510  0.00  0.00    +0.000 OA
ATOM      5  N   UNL     1      27.303  15.568  35.759  0.00  0.00    +0.000 N 
ATOM      6  C   UNL     1      28.719  15.655  35.747  0.00  0.00    +0.000 C 
ATOM      7  O   UNL     1      29.427  15.783  34.690  0.00  0.00    +0.000 OA
ENDROOT
BRANCH   5   8
ATOM      8  C   UNL     1      26.446  15.608  34.644  0.00  0.00    +0.000 A 
ATOM      9  C   UNL     1      26.132  14.469  33.932  0.00  0.00    +0.000 A 
ATOM     10  C   UNL     1      25.291  14.522  32.839  0.00  0.00    +0.000 A 
ATOM     11  C   UNL     1      24.730  15.729  32.421  0.00  0.00    +0.000 A 
ATOM     12  C   UNL     1      25.052  16.863  33.141  0.00  0.00    +0.000 A 
ATOM     13  C   UNL     1      25.892  16.821  34.236  0.00  0.00    +0.000 A 
ENDBRANCH   5   8
BRANCH   1  14
ATOM     14  N   UNL     1      30.551  15.620  37.505  0.00  0.00    +0.000 NA
BRANCH  14  20
ATOM     15  C   UNL     1      31.895  14.210  38.923  0.00  0.00    +0.000 A 
ATOM     16  C   UNL     1      32.574  13.018  39.107  0.00  0.00    +0.000 A 
ATOM     17  C   UNL     1      32.592  12.085  38.115  0.00  0.00    +0.000 A 
ATOM     18  C   UNL     1      31.951  12.282  36.911  0.00  0.00    +0.000 A 
ATOM     19  C   UNL     1      31.277  13.467  36.731  0.00  0.00    +0.000 A 
ATOM     20  C   UNL     1      31.250  14.417  37.723  0.00  0.00    +0.000 A 
BRANCH  15  21
ATOM     21  O   UNL     1      31.820  15.217  39.871  0.00  0.00    +0.000 OA
BRANCH  21  23
ATOM     22  C   UNL     1      31.224  15.127  42.156  0.00  0.00    +0.000 C 
ATOM     23  C   UNL     1      32.375  14.993  41.170  0.00  0.00    +0.000 C 
ENDBRANCH  21  23
ENDBRANCH  15  21
ENDBRANCH  14  20
ENDBRANCH   1  14
BRANCH   2  24
ATOM     24  S   UNL     1      28.256  15.303  39.668  0.00  0.00    +0.000 S 
BRANCH  24  25
ATOM     25  C   UNL     1      27.974  13.634  40.220  0.00  0.00    +0.000 A 
ATOM     26  C   UNL     1      29.026  12.752  40.302  0.00  0.00    +0.000 A 
ATOM     27  C   UNL     1      28.857  11.447  40.723  0.00  0.00    +0.000 A 
ATOM     28  C   UNL     1      27.602  10.994  41.079  0.00  0.00    +0.000 A 
ATOM     29  C   UNL     1      27.405   9.573  41.540  0.00  0.00    +0.000 C 
ATOM     30  C   UNL     1      26.535  11.866  41.002  0.00  0.00    +0.000 A 
ATOM     31  C   UNL     1      26.727  13.174  40.575  0.00  0.00    +0.000 A 
ENDBRANCH  24  25
ENDBRANCH   2  24
TORSDOF 7
ENDMDL
