MODEL 1
REMARK VINA RESULT:      -7.6      0.000      0.000
REMARK  Name = 
REMARK  2 active torsions:
REMARK  status: ('A' for Active; 'I' for Inactive)
REMARK    1  A    between atoms: C_2  and  C_3
REMARK    2  A    between atoms: N_15  and  C_16
REMARK                            x       y       z     vdW  Elec       q    Type
REMARK                         _______ _______ _______ _____ _____    ______ ____
ROOT
ATOM      1  C   UNL     1      17.410   9.931  34.018  0.00  0.00    +0.000 C 
ATOM      2  C   UNL     1      16.469  10.798  34.318  0.00  0.00    +0.000 C 
ATOM      3  N   UNL     1      16.031  11.147  35.615  0.00  0.00    +0.000 NA
ATOM      4  N   UNL     1      16.528  10.628  36.801  0.00  0.00    +0.000 NA
ATOM      5  C   UNL     1      17.467   9.747  36.847  0.00  0.00    +0.000 C 
ATOM      6  N   UNL     1      17.900   9.284  38.089  0.00  0.00    +0.000 NA
ATOM      7  S   UNL     1      18.235   9.096  35.372  0.00  0.00    +0.000 S 
ENDROOT
BRANCH   2   8
ATOM      8  C   UNL     1      15.798  11.477  33.214  0.00  0.00    +0.000 A 
ATOM      9  C   UNL     1      15.869  11.203  31.847  0.00  0.00    +0.000 A 
ATOM     10  N   UNL     1      15.084  12.086  31.206  0.00  0.00    +0.000 NA
ATOM     11  C   UNL     1      14.505  12.922  32.085  0.00  0.00    +0.000 A 
ATOM     12  C   UNL     1      13.631  13.989  31.985  0.00  0.00    +0.000 A 
ATOM     13  C   UNL     1      13.209  14.665  33.102  0.00  0.00    +0.000 A 
ATOM     14  C   UNL     1      13.643  14.301  34.368  0.00  0.00    +0.000 A 
ATOM     15  C   UNL     1      14.505  13.247  34.456  0.00  0.00    +0.000 A 
ATOM     16  C   UNL     1      14.942  12.551  33.323  0.00  0.00    +0.000 A 
ENDBRANCH   2   8
BRANCH   6  17
ATOM     17  C   UNL     1      17.641  10.117  39.271  0.00  0.00    +0.000 C 
ATOM     18  C   UNL     1      18.250   9.691  40.543  0.00  0.00    +0.000 C 
ATOM     19  C   UNL     1      16.795   9.329  40.309  0.00  0.00    +0.000 C 
ENDBRANCH   6  17
TORSDOF 2
ENDMDL
MODEL 2
REMARK VINA RESULT:      -7.4      1.199      2.109
REMARK  Name = 
REMARK  2 active torsions:
REMARK  status: ('A' for Active; 'I' for Inactive)
REMARK    1  A    between atoms: C_2  and  C_3
REMARK    2  A    between atoms: N_15  and  C_16
REMARK                            x       y       z     vdW  Elec       q    Type
REMARK                         _______ _______ _______ _____ _____    ______ ____
ROOT
ATOM      1  C   UNL     1      16.597  10.643  34.510  0.00  0.00    +0.000 C 
ATOM      2  C   UNL     1      15.885  11.515  35.189  0.00  0.00    +0.000 C 
ATOM      3  N   UNL     1      15.863  11.667  36.593  0.00  0.00    +0.000 NA
ATOM      4  N   UNL     1      16.596  10.915  37.499  0.00  0.00    +0.000 NA
ATOM      5  C   UNL     1      17.398   9.970  37.146  0.00  0.00    +0.000 C 
ATOM      6  N   UNL     1      18.092   9.269  38.130  0.00  0.00    +0.000 NA
ATOM      7  S   UNL     1      17.651   9.526  35.434  0.00  0.00    +0.000 S 
ENDROOT
BRANCH   2   8
ATOM      8  C   UNL     1      15.028  12.423  34.435  0.00  0.00    +0.000 A 
ATOM      9  C   UNL     1      14.147  13.394  34.916  0.00  0.00    +0.000 A 
ATOM     10  N   UNL     1      13.569  13.989  33.859  0.00  0.00    +0.000 NA
ATOM     11  C   UNL     1      14.028  13.456  32.713  0.00  0.00    +0.000 A 
ATOM     12  C   UNL     1      13.787  13.678  31.370  0.00  0.00    +0.000 A 
ATOM     13  C   UNL     1      14.432  12.946  30.405  0.00  0.00    +0.000 A 
ATOM     14  C   UNL     1      15.348  11.962  30.744  0.00  0.00    +0.000 A 
ATOM     15  C   UNL     1      15.579  11.751  32.072  0.00  0.00    +0.000 A 
ATOM     16  C   UNL     1      14.927  12.491  33.064  0.00  0.00    +0.000 A 
ENDBRANCH   2   8
BRANCH   6  17
ATOM     17  C   UNL     1      18.267   9.902  39.444  0.00  0.00    +0.000 C 
ATOM     18  C   UNL     1      19.036   9.157  40.456  0.00  0.00    +0.000 C 
ATOM     19  C   UNL     1      17.522   9.088  40.537  0.00  0.00    +0.000 C 
ENDBRANCH   6  17
TORSDOF 2
ENDMDL
MODEL 3
REMARK VINA RESULT:      -7.0     23.021     25.167
REMARK  Name = 
REMARK  2 active torsions:
REMARK  status: ('A' for Active; 'I' for Inactive)
REMARK    1  A    between atoms: C_2  and  C_3
REMARK    2  A    between atoms: N_15  and  C_16
REMARK                            x       y       z     vdW  Elec       q    Type
REMARK                         _______ _______ _______ _____ _____    ______ ____
ROOT
ATOM      1  C   UNL     1      28.779  27.014  21.837  0.00  0.00    +0.000 C 
ATOM      2  C   UNL     1      29.117  25.819  21.407  0.00  0.00    +0.000 C 
ATOM      3  N   UNL     1      29.769  25.517  20.191  0.00  0.00    +0.000 NA
ATOM      4  N   UNL     1      30.167  26.442  19.237  0.00  0.00    +0.000 NA
ATOM      5  C   UNL     1      29.978  27.711  19.363  0.00  0.00    +0.000 C 
ATOM      6  N   UNL     1      30.412  28.562  18.349  0.00  0.00    +0.000 NA
ATOM      7  S   UNL     1      29.175  28.417  20.793  0.00  0.00    +0.000 S 
ENDROOT
BRANCH   2   8
ATOM      8  C   UNL     1      28.794  24.678  22.258  0.00  0.00    +0.000 A 
ATOM      9  C   UNL     1      27.638  23.896  22.268  0.00  0.00    +0.000 A 
ATOM     10  N   UNL     1      27.781  22.957  23.219  0.00  0.00    +0.000 NA
ATOM     11  C   UNL     1      28.972  23.087  23.829  0.00  0.00    +0.000 A 
ATOM     12  C   UNL     1      29.624  22.415  24.847  0.00  0.00    +0.000 A 
ATOM     13  C   UNL     1      30.875  22.800  25.261  0.00  0.00    +0.000 A 
ATOM     14  C   UNL     1      31.526  23.873  24.673  0.00  0.00    +0.000 A 
ATOM     15  C   UNL     1      30.874  24.529  23.670  0.00  0.00    +0.000 A 
ATOM     16  C   UNL     1      29.599  24.146  23.240  0.00  0.00    +0.000 A 
ENDBRANCH   2   8
BRANCH   6  17
ATOM     17  C   UNL     1      31.459  28.082  17.435  0.00  0.00    +0.000 C 
ATOM     18  C   UNL     1      32.853  28.414  17.771  0.00  0.00    +0.000 C 
ATOM     19  C   UNL     1      32.157  29.282  16.739  0.00  0.00    +0.000 C 
ENDBRANCH   6  17
TORSDOF 2
ENDMDL
MODEL 4
REMARK VINA RESULT:      -6.9     21.990     24.184
REMARK  Name = 
REMARK  2 active torsions:
REMARK  status: ('A' for Active; 'I' for Inactive)
REMARK    1  A    between atoms: C_2  and  C_3
REMARK    2  A    between atoms: N_15  and  C_16
REMARK                            x       y       z     vdW  Elec       q    Type
REMARK                         _______ _______ _______ _____ _____    ______ ____
ROOT
ATOM      1  C   UNL     1      29.044  26.755  22.344  0.00  0.00    +0.000 C 
ATOM      2  C   UNL     1      29.295  25.499  22.047  0.00  0.00    +0.000 C 
ATOM      3  N   UNL     1      29.659  24.994  20.779  0.00  0.00    +0.000 NA
ATOM      4  N   UNL     1      29.815  25.746  19.624  0.00  0.00    +0.000 NA
ATOM      5  C   UNL     1      29.639  27.022  19.584  0.00  0.00    +0.000 C 
ATOM      6  N   UNL     1      29.819  27.692  18.375  0.00  0.00    +0.000 NA
ATOM      7  S   UNL     1      29.170  27.964  21.027  0.00  0.00    +0.000 S 
ENDROOT
BRANCH   2   8
ATOM      8  C   UNL     1      29.192  24.516  23.120  0.00  0.00    +0.000 A 
ATOM      9  C   UNL     1      30.214  23.823  23.770  0.00  0.00    +0.000 A 
ATOM     10  N   UNL     1      29.651  23.021  24.691  0.00  0.00    +0.000 NA
ATOM     11  C   UNL     1      28.313  23.157  24.673  0.00  0.00    +0.000 A 
ATOM     12  C   UNL     1      27.267  22.595  25.382  0.00  0.00    +0.000 A 
ATOM     13  C   UNL     1      25.967  22.949  25.124  0.00  0.00    +0.000 A 
ATOM     14  C   UNL     1      25.658  23.881  24.146  0.00  0.00    +0.000 A 
ATOM     15  C   UNL     1      26.697  24.430  23.452  0.00  0.00    +0.000 A 
ATOM     16  C   UNL     1      28.026  24.077  23.707  0.00  0.00    +0.000 A 
ENDBRANCH   2   8
BRANCH   6  17
ATOM     17  C   UNL     1      30.638  27.050  17.338  0.00  0.00    +0.000 C 
ATOM     18  C   UNL     1      31.046  27.878  16.190  0.00  0.00    +0.000 C 
ATOM     19  C   UNL     1      29.848  26.965  16.004  0.00  0.00    +0.000 C 
ENDBRANCH   6  17
TORSDOF 2
ENDMDL
MODEL 5
REMARK VINA RESULT:      -6.9     19.896     21.893
REMARK  Name = 
REMARK  2 active torsions:
REMARK  status: ('A' for Active; 'I' for Inactive)
REMARK    1  A    between atoms: C_2  and  C_3
REMARK    2  A    between atoms: N_15  and  C_16
REMARK                            x       y       z     vdW  Elec       q    Type
REMARK                         _______ _______ _______ _____ _____    ______ ____
ROOT
ATOM      1  C   UNL     1      32.359  -1.538  35.783  0.00  0.00    +0.000 C 
ATOM      2  C   UNL     1      33.315  -0.850  35.199  0.00  0.00    +0.000 C 
ATOM      3  N   UNL     1      34.098  -1.268  34.101  0.00  0.00    +0.000 NA
ATOM      4  N   UNL     1      33.988  -2.486  33.446  0.00  0.00    +0.000 NA
ATOM      5  C   UNL     1      33.135  -3.392  33.781  0.00  0.00    +0.000 C 
ATOM      6  N   UNL     1      33.100  -4.586  33.063  0.00  0.00    +0.000 NA
ATOM      7  S   UNL     1      31.994  -3.170  35.138  0.00  0.00    +0.000 S 
ENDROOT
BRANCH   2   8
ATOM      8  C   UNL     1      33.610   0.478  35.725  0.00  0.00    +0.000 A 
ATOM      9  C   UNL     1      33.911   0.851  37.037  0.00  0.00    +0.000 A 
ATOM     10  N   UNL     1      34.111   2.180  37.054  0.00  0.00    +0.000 NA
ATOM     11  C   UNL     1      33.955   2.693  35.821  0.00  0.00    +0.000 A 
ATOM     12  C   UNL     1      34.040   3.960  35.274  0.00  0.00    +0.000 A 
ATOM     13  C   UNL     1      33.819   4.170  33.936  0.00  0.00    +0.000 A 
ATOM     14  C   UNL     1      33.505   3.119  33.088  0.00  0.00    +0.000 A 
ATOM     15  C   UNL     1      33.423   1.873  33.637  0.00  0.00    +0.000 A 
ATOM     16  C   UNL     1      33.646   1.648  35.000  0.00  0.00    +0.000 A 
ENDBRANCH   2   8
BRANCH   6  17
ATOM     17  C   UNL     1      33.662  -4.599  31.706  0.00  0.00    +0.000 C 
ATOM     18  C   UNL     1      33.109  -5.578  30.756  0.00  0.00    +0.000 C 
ATOM     19  C   UNL     1      34.411  -5.935  31.448  0.00  0.00    +0.000 C 
ENDBRANCH   6  17
TORSDOF 2
ENDMDL
MODEL 6
REMARK VINA RESULT:      -6.9      1.590      1.780
REMARK  Name = 
REMARK  2 active torsions:
REMARK  status: ('A' for Active; 'I' for Inactive)
REMARK    1  A    between atoms: C_2  and  C_3
REMARK    2  A    between atoms: N_15  and  C_16
REMARK                            x       y       z     vdW  Elec       q    Type
REMARK                         _______ _______ _______ _____ _____    ______ ____
ROOT
ATOM      1  C   UNL     1      16.776   9.732  34.858  0.00  0.00    +0.000 C 
ATOM      2  C   UNL     1      16.722  11.016  34.579  0.00  0.00    +0.000 C 
ATOM      3  N   UNL     1      17.237  12.068  35.367  0.00  0.00    +0.000 NA
ATOM      4  N   UNL     1      17.895  11.922  36.579  0.00  0.00    +0.000 NA
ATOM      5  C   UNL     1      18.112  10.777  37.131  0.00  0.00    +0.000 C 
ATOM      6  N   UNL     1      18.782  10.732  38.352  0.00  0.00    +0.000 NA
ATOM      7  S   UNL     1      17.581   9.245  36.384  0.00  0.00    +0.000 S 
ENDROOT
BRANCH   2   8
ATOM      8  C   UNL     1      16.066  11.411  33.337  0.00  0.00    +0.000 A 
ATOM      9  C   UNL     1      16.243  10.892  32.053  0.00  0.00    +0.000 A 
ATOM     10  N   UNL     1      15.430  11.563  31.219  0.00  0.00    +0.000 NA
ATOM     11  C   UNL     1      14.733  12.493  31.894  0.00  0.00    +0.000 A 
ATOM     12  C   UNL     1      13.782  13.438  31.552  0.00  0.00    +0.000 A 
ATOM     13  C   UNL     1      13.239  14.270  32.498  0.00  0.00    +0.000 A 
ATOM     14  C   UNL     1      13.623  14.191  33.828  0.00  0.00    +0.000 A 
ATOM     15  C   UNL     1      14.560  13.256  34.155  0.00  0.00    +0.000 A 
ATOM     16  C   UNL     1      15.121  12.403  33.199  0.00  0.00    +0.000 A 
ENDBRANCH   2   8
BRANCH   6  17
ATOM     17  C   UNL     1      19.619  11.878  38.732  0.00  0.00    +0.000 C 
ATOM     18  C   UNL     1      21.039  11.835  38.346  0.00  0.00    +0.000 C 
ATOM     19  C   UNL     1      20.689  11.443  39.770  0.00  0.00    +0.000 C 
ENDBRANCH   6  17
TORSDOF 2
ENDMDL
MODEL 7
REMARK VINA RESULT:      -6.6     21.275     23.221
REMARK  Name = 
REMARK  2 active torsions:
REMARK  status: ('A' for Active; 'I' for Inactive)
REMARK    1  A    between atoms: C_2  and  C_3
REMARK    2  A    between atoms: N_15  and  C_16
REMARK                            x       y       z     vdW  Elec       q    Type
REMARK                         _______ _______ _______ _____ _____    ______ ____
ROOT
ATOM      1  C   UNL     1      21.151  -9.179  23.482  0.00  0.00    +0.000 C 
ATOM      2  C   UNL     1      21.433  -8.796  24.708  0.00  0.00    +0.000 C 
ATOM      3  N   UNL     1      22.717  -8.515  25.224  0.00  0.00    +0.000 NA
ATOM      4  N   UNL     1      23.907  -8.596  24.518  0.00  0.00    +0.000 NA
ATOM      5  C   UNL     1      23.970  -8.946  23.279  0.00  0.00    +0.000 C 
ATOM      6  N   UNL     1      25.215  -8.998  22.654  0.00  0.00    +0.000 NA
ATOM      7  S   UNL     1      22.515  -9.369  22.335  0.00  0.00    +0.000 S 
ENDROOT
BRANCH   2   8
ATOM      8  C   UNL     1      20.322  -8.642  25.641  0.00  0.00    +0.000 A 
ATOM      9  C   UNL     1      19.610  -9.630  26.323  0.00  0.00    +0.000 A 
ATOM     10  N   UNL     1      18.673  -9.024  27.072  0.00  0.00    +0.000 NA
ATOM     11  C   UNL     1      18.738  -7.691  26.913  0.00  0.00    +0.000 A 
ATOM     12  C   UNL     1      18.038  -6.613  27.424  0.00  0.00    +0.000 A 
ATOM     13  C   UNL     1      18.349  -5.328  27.057  0.00  0.00    +0.000 A 
ATOM     14  C   UNL     1      19.376  -5.067  26.163  0.00  0.00    +0.000 A 
ATOM     15  C   UNL     1      20.061  -6.137  25.665  0.00  0.00    +0.000 A 
ATOM     16  C   UNL     1      19.751  -7.451  26.032  0.00  0.00    +0.000 A 
ENDBRANCH   2   8
BRANCH   6  17
ATOM     17  C   UNL     1      26.320  -8.224  23.235  0.00  0.00    +0.000 C 
ATOM     18  C   UNL     1      27.423  -7.843  22.337  0.00  0.00    +0.000 C 
ATOM     19  C   UNL     1      27.629  -9.061  23.219  0.00  0.00    +0.000 C 
ENDBRANCH   6  17
TORSDOF 2
ENDMDL
MODEL 8
REMARK VINA RESULT:      -6.2     22.157     24.598
REMARK  Name = 
REMARK  2 active torsions:
REMARK  status: ('A' for Active; 'I' for Inactive)
REMARK    1  A    between atoms: C_2  and  C_3
REMARK    2  A    between atoms: N_15  and  C_16
REMARK                            x       y       z     vdW  Elec       q    Type
REMARK                         _______ _______ _______ _____ _____    ______ ____
ROOT
ATOM      1  C   UNL     1      32.903  -5.795  33.904  0.00  0.00    +0.000 C 
ATOM      2  C   UNL     1      33.662  -5.322  32.941  0.00  0.00    +0.000 C 
ATOM      3  N   UNL     1      33.927  -3.961  32.673  0.00  0.00    +0.000 NA
ATOM      4  N   UNL     1      33.426  -2.884  33.389  0.00  0.00    +0.000 NA
ATOM      5  C   UNL     1      32.642  -3.015  34.404  0.00  0.00    +0.000 C 
ATOM      6  N   UNL     1      32.189  -1.873  35.061  0.00  0.00    +0.000 NA
ATOM      7  S   UNL     1      32.115  -4.615  34.999  0.00  0.00    +0.000 S 
ENDROOT
BRANCH   2   8
ATOM      8  C   UNL     1      34.302  -6.284  32.050  0.00  0.00    +0.000 A 
ATOM      9  C   UNL     1      35.202  -7.304  32.367  0.00  0.00    +0.000 A 
ATOM     10  N   UNL     1      35.528  -7.938  31.228  0.00  0.00    +0.000 NA
ATOM     11  C   UNL     1      34.887  -7.384  30.184  0.00  0.00    +0.000 A 
ATOM     12  C   UNL     1      34.849  -7.626  28.824  0.00  0.00    +0.000 A 
ATOM     13  C   UNL     1      34.072  -6.862  27.990  0.00  0.00    +0.000 A 
ATOM     14  C   UNL     1      33.298  -5.823  28.484  0.00  0.00    +0.000 A 
ATOM     15  C   UNL     1      33.342  -5.592  29.827  0.00  0.00    +0.000 A 
ATOM     16  C   UNL     1      34.131  -6.365  30.686  0.00  0.00    +0.000 A 
ENDBRANCH   2   8
BRANCH   6  17
ATOM     17  C   UNL     1      32.956  -0.629  34.905  0.00  0.00    +0.000 C 
ATOM     18  C   UNL     1      34.304  -0.589  35.497  0.00  0.00    +0.000 C 
ATOM     19  C   UNL     1      33.175   0.044  36.288  0.00  0.00    +0.000 C 
ENDBRANCH   6  17
TORSDOF 2
ENDMDL
MODEL 9
REMARK VINA RESULT:      -6.1     19.232     20.087
REMARK  Name = 
REMARK  2 active torsions:
REMARK  status: ('A' for Active; 'I' for Inactive)
REMARK    1  A    between atoms: C_2  and  C_3
REMARK    2  A    between atoms: N_15  and  C_16
REMARK                            x       y       z     vdW  Elec       q    Type
REMARK                         _______ _______ _______ _____ _____    ______ ____
ROOT
ATOM      1  C   UNL     1      28.584  24.386  27.565  0.00  0.00    +0.000 C 
ATOM      2  C   UNL     1      28.769  23.402  26.714  0.00  0.00    +0.000 C 
ATOM      3  N   UNL     1      29.742  22.382  26.810  0.00  0.00    +0.000 NA
ATOM      4  N   UNL     1      30.673  22.247  27.828  0.00  0.00    +0.000 NA
ATOM      5  C   UNL     1      30.753  23.062  28.824  0.00  0.00    +0.000 C 
ATOM      6  N   UNL     1      31.724  22.844  29.800  0.00  0.00    +0.000 NA
ATOM      7  S   UNL     1      29.660  24.464  28.997  0.00  0.00    +0.000 S 
ENDROOT
BRANCH   2   8
ATOM      8  C   UNL     1      27.893  23.341  25.549  0.00  0.00    +0.000 A 
ATOM      9  C   UNL     1      26.579  22.876  25.468  0.00  0.00    +0.000 A 
ATOM     10  N   UNL     1      26.169  23.010  24.195  0.00  0.00    +0.000 NA
ATOM     11  C   UNL     1      27.150  23.538  23.442  0.00  0.00    +0.000 A 
ATOM     12  C   UNL     1      27.276  23.883  22.109  0.00  0.00    +0.000 A 
ATOM     13  C   UNL     1      28.443  24.419  21.623  0.00  0.00    +0.000 A 
ATOM     14  C   UNL     1      29.532  24.634  22.454  0.00  0.00    +0.000 A 
ATOM     15  C   UNL     1      29.397  24.291  23.767  0.00  0.00    +0.000 A 
ATOM     16  C   UNL     1      28.213  23.743  24.272  0.00  0.00    +0.000 A 
ENDBRANCH   2   8
BRANCH   6  17
ATOM     17  C   UNL     1      32.286  21.493  29.934  0.00  0.00    +0.000 C 
ATOM     18  C   UNL     1      32.624  21.033  31.291  0.00  0.00    +0.000 C 
ATOM     19  C   UNL     1      33.755  21.570  30.433  0.00  0.00    +0.000 C 
ENDBRANCH   6  17
TORSDOF 2
ENDMDL
MODEL 10
REMARK VINA RESULT:      -6.1     20.576     22.207
REMARK  Name = 
REMARK  2 active torsions:
REMARK  status: ('A' for Active; 'I' for Inactive)
REMARK    1  A    between atoms: C_2  and  C_3
REMARK    2  A    between atoms: N_15  and  C_16
REMARK                            x       y       z     vdW  Elec       q    Type
REMARK                         _______ _______ _______ _____ _____    ______ ____
ROOT
ATOM      1  C   UNL     1      16.780  -9.909  27.403  0.00  0.00    +0.000 C 
ATOM      2  C   UNL     1      17.531  -9.059  28.067  0.00  0.00    +0.000 C 
ATOM      3  N   UNL     1      17.964  -9.190  29.405  0.00  0.00    +0.000 NA
ATOM      4  N   UNL     1      17.667 -10.248  30.251  0.00  0.00    +0.000 NA
ATOM      5  C   UNL     1      16.943 -11.254  29.895  0.00  0.00    +0.000 C 
ATOM      6  N   UNL     1      16.699 -12.270  30.816  0.00  0.00    +0.000 NA
ATOM      7  S   UNL     1      16.240 -11.389  28.259  0.00  0.00    +0.000 S 
ENDROOT
BRANCH   2   8
ATOM      8  C   UNL     1      17.970  -7.855  27.370  0.00  0.00    +0.000 A 
ATOM      9  C   UNL     1      17.305  -6.635  27.229  0.00  0.00    +0.000 A 
ATOM     10  N   UNL     1      18.089  -5.817  26.507  0.00  0.00    +0.000 NA
ATOM     11  C   UNL     1      19.231  -6.441  26.169  0.00  0.00    +0.000 A 
ATOM     12  C   UNL     1      20.360  -6.087  25.453  0.00  0.00    +0.000 A 
ATOM     13  C   UNL     1      21.391  -6.974  25.274  0.00  0.00    +0.000 A 
ATOM     14  C   UNL     1      21.337  -8.253  25.805  0.00  0.00    +0.000 A 
ATOM     15  C   UNL     1      20.219  -8.593  26.510  0.00  0.00    +0.000 A 
ATOM     16  C   UNL     1      19.161  -7.696  26.698  0.00  0.00    +0.000 A 
ENDBRANCH   2   8
BRANCH   6  17
ATOM     17  C   UNL     1      17.619 -12.418  31.952  0.00  0.00    +0.000 C 
ATOM     18  C   UNL     1      18.761 -13.332  31.782  0.00  0.00    +0.000 C 
ATOM     19  C   UNL     1      17.546 -13.862  32.519  0.00  0.00    +0.000 C 
ENDBRANCH   6  17
TORSDOF 2
ENDMDL
