MODEL 1
REMARK VINA RESULT:      -8.1      0.000      0.000
REMARK  Name = 
REMARK  6 active torsions:
REMARK  status: ('A' for Active; 'I' for Inactive)
REMARK    1  A    between atoms: C_2  and  O_3
REMARK    2  A    between atoms: O_3  and  C_4
REMARK    3  A    between atoms: C_7  and  N_8
REMARK    4  A    between atoms: C_9  and  C_11
REMARK    5  A    between atoms: C_12  and  N_13
REMARK    6  A    between atoms: C_14  and  C_16
REMARK                            x       y       z     vdW  Elec       q    Type
REMARK                         _______ _______ _______ _____ _____    ______ ____
ROOT
ATOM      1  C   UNL     1      12.880   0.706  27.877  0.00  0.00    +0.000 A 
ATOM      2  C   UNL     1      12.254  -0.205  28.692  0.00  0.00    +0.000 A 
ATOM      3  S   UNL     1      10.932   0.681  29.339  0.00  0.00    +0.000 S 
ATOM      4  C   UNL     1      11.216   2.192  28.550  0.00  0.00    +0.000 A 
ATOM      5  C   UNL     1      12.324   1.920  27.827  0.00  0.00    +0.000 A 
ATOM      6  C   UNL     1      12.752   3.122  27.045  0.00  0.00    +0.000 C 
ATOM      7  C   UNL     1      11.812   3.854  26.374  0.00  0.00    +0.000 C 
ATOM      8  C   UNL     1      10.313   3.937  26.956  0.00  0.00    +0.000 C 
ATOM      9  C   UNL     1       9.895   2.452  26.446  0.00  0.00    +0.000 C 
ATOM     10  C   UNL     1      10.615   3.528  28.488  0.00  0.00    +0.000 C 
ENDROOT
BRANCH   1  12
ATOM     11  N   UNL     1      15.395   0.718  27.478  0.00  0.00    +0.000 NA
ATOM     12  C   UNL     1      14.104   0.324  27.110  0.00  0.00    +0.000 C 
ATOM     13  O   UNL     1      14.042  -0.382  26.078  0.00  0.00    +0.000 OA
BRANCH  11  17
ATOM     14  C   UNL     1      18.920  -0.209  25.284  0.00  0.00    +0.000 A 
ATOM     15  C   UNL     1      18.280   1.003  25.168  0.00  0.00    +0.000 A 
ATOM     16  C   UNL     1      17.135   1.282  25.891  0.00  0.00    +0.000 A 
ATOM     17  C   UNL     1      16.577   0.366  26.763  0.00  0.00    +0.000 A 
ATOM     18  C   UNL     1      17.212  -0.835  26.877  0.00  0.00    +0.000 A 
ATOM     19  C   UNL     1      18.358  -1.119  26.156  0.00  0.00    +0.000 A 
BRANCH  14  20
ATOM     20  O   UNL     1      20.071  -0.485  24.555  0.00  0.00    +0.000 OA
BRANCH  20  22
ATOM     21  C   UNL     1      21.281   0.783  22.934  0.00  0.00    +0.000 C 
ATOM     22  C   UNL     1      20.122  -0.136  23.184  0.00  0.00    +0.000 C 
ENDBRANCH  20  22
ENDBRANCH  14  20
ENDBRANCH  11  17
ENDBRANCH   1  12
BRANCH   2  23
ATOM     23  N   UNL     1      12.637  -1.563  28.926  0.00  0.00    +0.000 NA
ATOM     24  C   UNL     1      12.109  -2.635  28.168  0.00  0.00    +0.000 C 
ATOM     25  O   UNL     1      11.283  -2.340  27.275  0.00  0.00    +0.000 OA
BRANCH  24  26
ATOM     26  C   UNL     1      12.454  -4.033  28.354  0.00  0.00    +0.000 A 
ATOM     27  C   UNL     1      12.683  -4.513  29.617  0.00  0.00    +0.000 A 
ATOM     28  C   UNL     1      13.012  -5.835  29.830  0.00  0.00    +0.000 A 
ATOM     29  C   UNL     1      13.114  -6.684  28.762  0.00  0.00    +0.000 A 
ATOM     30  C   UNL     1      12.894  -6.245  27.490  0.00  0.00    +0.000 A 
ATOM     31  C   UNL     1      12.567  -4.923  27.307  0.00  0.00    +0.000 A 
ENDBRANCH  24  26
ENDBRANCH   2  23
TORSDOF 6
ENDMDL
MODEL 2
REMARK VINA RESULT:      -7.3     21.191     22.863
REMARK  Name = 
REMARK  6 active torsions:
REMARK  status: ('A' for Active; 'I' for Inactive)
REMARK    1  A    between atoms: C_2  and  O_3
REMARK    2  A    between atoms: O_3  and  C_4
REMARK    3  A    between atoms: C_7  and  N_8
REMARK    4  A    between atoms: C_9  and  C_11
REMARK    5  A    between atoms: C_12  and  N_13
REMARK    6  A    between atoms: C_14  and  C_16
REMARK                            x       y       z     vdW  Elec       q    Type
REMARK                         _______ _______ _______ _____ _____    ______ ____
ROOT
ATOM      1  C   UNL     1      24.368  15.163  41.303  0.00  0.00    +0.000 A 
ATOM      2  C   UNL     1      25.233  14.454  42.100  0.00  0.00    +0.000 A 
ATOM      3  S   UNL     1      24.617  14.709  43.683  0.00  0.00    +0.000 S 
ATOM      4  C   UNL     1      23.270  15.715  43.284  0.00  0.00    +0.000 A 
ATOM      5  C   UNL     1      23.377  15.795  41.939  0.00  0.00    +0.000 A 
ATOM      6  C   UNL     1      22.279  16.639  41.373  0.00  0.00    +0.000 C 
ATOM      7  C   UNL     1      21.000  16.466  41.823  0.00  0.00    +0.000 C 
ATOM      8  C   UNL     1      20.755  15.987  43.341  0.00  0.00    +0.000 C 
ATOM      9  C   UNL     1      21.138  14.435  43.049  0.00  0.00    +0.000 C 
ATOM     10  C   UNL     1      22.179  16.412  43.971  0.00  0.00    +0.000 C 
ENDROOT
BRANCH   1  12
ATOM     11  N   UNL     1      25.473  16.045  39.186  0.00  0.00    +0.000 NA
ATOM     12  C   UNL     1      24.556  15.201  39.822  0.00  0.00    +0.000 C 
ATOM     13  O   UNL     1      23.894  14.466  39.054  0.00  0.00    +0.000 OA
BRANCH  11  17
ATOM     14  C   UNL     1      25.973  16.307  34.969  0.00  0.00    +0.000 A 
ATOM     15  C   UNL     1      25.120  17.134  35.660  0.00  0.00    +0.000 A 
ATOM     16  C   UNL     1      24.973  17.031  37.031  0.00  0.00    +0.000 A 
ATOM     17  C   UNL     1      25.671  16.098  37.774  0.00  0.00    +0.000 A 
ATOM     18  C   UNL     1      26.517  15.278  37.089  0.00  0.00    +0.000 A 
ATOM     19  C   UNL     1      26.667  15.377  35.717  0.00  0.00    +0.000 A 
BRANCH  14  20
ATOM     20  O   UNL     1      26.118  16.414  33.590  0.00  0.00    +0.000 OA
BRANCH  20  22
ATOM     21  C   UNL     1      24.942  14.613  32.555  0.00  0.00    +0.000 C 
ATOM     22  C   UNL     1      25.020  16.098  32.753  0.00  0.00    +0.000 C 
ENDBRANCH  20  22
ENDBRANCH  14  20
ENDBRANCH  11  17
ENDBRANCH   1  12
BRANCH   2  23
ATOM     23  N   UNL     1      26.369  13.694  41.680  0.00  0.00    +0.000 NA
ATOM     24  C   UNL     1      26.369  12.279  41.680  0.00  0.00    +0.000 C 
ATOM     25  O   UNL     1      25.321  11.715  42.068  0.00  0.00    +0.000 OA
BRANCH  24  26
ATOM     26  C   UNL     1      27.487  11.448  41.268  0.00  0.00    +0.000 A 
ATOM     27  C   UNL     1      28.634  12.036  40.801  0.00  0.00    +0.000 A 
ATOM     28  C   UNL     1      29.714  11.278  40.402  0.00  0.00    +0.000 A 
ATOM     29  C   UNL     1      29.641   9.913  40.470  0.00  0.00    +0.000 A 
ATOM     30  C   UNL     1      28.517   9.290  40.928  0.00  0.00    +0.000 A 
ATOM     31  C   UNL     1      27.456  10.070  41.320  0.00  0.00    +0.000 A 
ENDBRANCH  24  26
ENDBRANCH   2  23
TORSDOF 6
ENDMDL
MODEL 3
REMARK VINA RESULT:      -7.2     24.109     27.271
REMARK  Name = 
REMARK  6 active torsions:
REMARK  status: ('A' for Active; 'I' for Inactive)
REMARK    1  A    between atoms: C_2  and  O_3
REMARK    2  A    between atoms: O_3  and  C_4
REMARK    3  A    between atoms: C_7  and  N_8
REMARK    4  A    between atoms: C_9  and  C_11
REMARK    5  A    between atoms: C_12  and  N_13
REMARK    6  A    between atoms: C_14  and  C_16
REMARK                            x       y       z     vdW  Elec       q    Type
REMARK                         _______ _______ _______ _____ _____    ______ ____
ROOT
ATOM      1  C   UNL     1      37.767   4.656  15.928  0.00  0.00    +0.000 A 
ATOM      2  C   UNL     1      37.514   5.260  14.721  0.00  0.00    +0.000 A 
ATOM      3  S   UNL     1      37.949   6.899  14.996  0.00  0.00    +0.000 S 
ATOM      4  C   UNL     1      38.442   6.768  16.647  0.00  0.00    +0.000 A 
ATOM      5  C   UNL     1      38.241   5.453  16.889  0.00  0.00    +0.000 A 
ATOM      6  C   UNL     1      38.617   5.114  18.297  0.00  0.00    +0.000 C 
ATOM      7  C   UNL     1      39.781   5.606  18.818  0.00  0.00    +0.000 C 
ATOM      8  C   UNL     1      40.335   7.029  18.306  0.00  0.00    +0.000 C 
ATOM      9  C   UNL     1      40.907   6.447  16.901  0.00  0.00    +0.000 C 
ATOM     10  C   UNL     1      38.962   7.633  17.709  0.00  0.00    +0.000 C 
ENDROOT
BRANCH   1  12
ATOM     11  N   UNL     1      36.360   2.685  16.712  0.00  0.00    +0.000 NA
ATOM     12  C   UNL     1      37.517   3.195  16.114  0.00  0.00    +0.000 C 
ATOM     13  O   UNL     1      38.341   2.331  15.738  0.00  0.00    +0.000 OA
BRANCH  11  17
ATOM     14  C   UNL     1      35.561  -1.472  17.140  0.00  0.00    +0.000 A 
ATOM     15  C   UNL     1      35.556  -0.845  15.916  0.00  0.00    +0.000 A 
ATOM     16  C   UNL     1      35.819   0.507  15.801  0.00  0.00    +0.000 A 
ATOM     17  C   UNL     1      36.098   1.296  16.901  0.00  0.00    +0.000 A 
ATOM     18  C   UNL     1      36.103   0.674  18.114  0.00  0.00    +0.000 A 
ATOM     19  C   UNL     1      35.841  -0.679  18.234  0.00  0.00    +0.000 A 
BRANCH  14  20
ATOM     20  O   UNL     1      35.297  -2.833  17.251  0.00  0.00    +0.000 OA
BRANCH  20  22
ATOM     21  C   UNL     1      36.907  -4.370  16.390  0.00  0.00    +0.000 C 
ATOM     22  C   UNL     1      35.593  -3.686  16.160  0.00  0.00    +0.000 C 
ENDBRANCH  20  22
ENDBRANCH  14  20
ENDBRANCH  11  17
ENDBRANCH   1  12
BRANCH   2  23
ATOM     23  N   UNL     1      37.008   4.643  13.534  0.00  0.00    +0.000 NA
ATOM     24  C   UNL     1      37.862   4.153  12.518  0.00  0.00    +0.000 C 
ATOM     25  O   UNL     1      39.092   4.285  12.704  0.00  0.00    +0.000 OA
BRANCH  24  26
ATOM     26  C   UNL     1      37.414   3.518  11.291  0.00  0.00    +0.000 A 
ATOM     27  C   UNL     1      37.516   2.158  11.155  0.00  0.00    +0.000 A 
ATOM     28  C   UNL     1      37.100   1.522  10.004  0.00  0.00    +0.000 A 
ATOM     29  C   UNL     1      36.579   2.261   8.977  0.00  0.00    +0.000 A 
ATOM     30  C   UNL     1      36.461   3.616   9.073  0.00  0.00    +0.000 A 
ATOM     31  C   UNL     1      36.882   4.224  10.232  0.00  0.00    +0.000 A 
ENDBRANCH  24  26
ENDBRANCH   2  23
TORSDOF 6
ENDMDL
MODEL 4
REMARK VINA RESULT:      -7.1     24.629     27.201
REMARK  Name = 
REMARK  6 active torsions:
REMARK  status: ('A' for Active; 'I' for Inactive)
REMARK    1  A    between atoms: C_2  and  O_3
REMARK    2  A    between atoms: O_3  and  C_4
REMARK    3  A    between atoms: C_7  and  N_8
REMARK    4  A    between atoms: C_9  and  C_11
REMARK    5  A    between atoms: C_12  and  N_13
REMARK    6  A    between atoms: C_14  and  C_16
REMARK                            x       y       z     vdW  Elec       q    Type
REMARK                         _______ _______ _______ _____ _____    ______ ____
ROOT
ATOM      1  C   UNL     1      37.626   2.159  13.740  0.00  0.00    +0.000 A 
ATOM      2  C   UNL     1      37.893   0.841  14.019  0.00  0.00    +0.000 A 
ATOM      3  S   UNL     1      37.879   0.095  12.472  0.00  0.00    +0.000 S 
ATOM      4  C   UNL     1      37.532   1.487  11.510  0.00  0.00    +0.000 A 
ATOM      5  C   UNL     1      37.448   2.455  12.449  0.00  0.00    +0.000 A 
ATOM      6  C   UNL     1      37.148   3.778  11.817  0.00  0.00    +0.000 C 
ATOM      7  C   UNL     1      37.826   4.151  10.690  0.00  0.00    +0.000 C 
ATOM      8  C   UNL     1      38.327   3.019   9.659  0.00  0.00    +0.000 C 
ATOM      9  C   UNL     1      39.587   2.559  10.577  0.00  0.00    +0.000 C 
ATOM     10  C   UNL     1      37.335   1.824  10.097  0.00  0.00    +0.000 C 
ENDROOT
BRANCH   1  12
ATOM     11  N   UNL     1      38.616   4.002  15.191  0.00  0.00    +0.000 NA
ATOM     12  C   UNL     1      37.549   3.169  14.838  0.00  0.00    +0.000 C 
ATOM     13  O   UNL     1      36.508   3.329  15.515  0.00  0.00    +0.000 OA
BRANCH  11  17
ATOM     14  C   UNL     1      38.505   6.801  18.394  0.00  0.00    +0.000 A 
ATOM     15  C   UNL     1      38.843   5.481  18.582  0.00  0.00    +0.000 A 
ATOM     16  C   UNL     1      38.872   4.589  17.526  0.00  0.00    +0.000 A 
ATOM     17  C   UNL     1      38.566   4.973  16.234  0.00  0.00    +0.000 A 
ATOM     18  C   UNL     1      38.232   6.281  16.047  0.00  0.00    +0.000 A 
ATOM     19  C   UNL     1      38.201   7.177  17.101  0.00  0.00    +0.000 A 
BRANCH  14  20
ATOM     20  O   UNL     1      38.478   7.694  19.458  0.00  0.00    +0.000 OA
BRANCH  20  22
ATOM     21  C   UNL     1      40.700   8.336  20.049  0.00  0.00    +0.000 C 
ATOM     22  C   UNL     1      39.464   7.596  20.469  0.00  0.00    +0.000 C 
ENDBRANCH  20  22
ENDBRANCH  14  20
ENDBRANCH  11  17
ENDBRANCH   1  12
BRANCH   2  23
ATOM     23  N   UNL     1      38.123   0.259  15.305  0.00  0.00    +0.000 NA
ATOM     24  C   UNL     1      37.136  -0.500  15.975  0.00  0.00    +0.000 C 
ATOM     25  O   UNL     1      36.039  -0.641  15.388  0.00  0.00    +0.000 OA
BRANCH  24  26
ATOM     26  C   UNL     1      37.304  -1.117  17.279  0.00  0.00    +0.000 A 
ATOM     27  C   UNL     1      36.505  -0.727  18.323  0.00  0.00    +0.000 A 
ATOM     28  C   UNL     1      36.637  -1.292  19.573  0.00  0.00    +0.000 A 
ATOM     29  C   UNL     1      37.584  -2.257  19.780  0.00  0.00    +0.000 A 
ATOM     30  C   UNL     1      38.399  -2.672  18.768  0.00  0.00    +0.000 A 
ATOM     31  C   UNL     1      38.245  -2.093  17.531  0.00  0.00    +0.000 A 
ENDBRANCH  24  26
ENDBRANCH   2  23
TORSDOF 6
ENDMDL
MODEL 5
REMARK VINA RESULT:      -7.1     24.089     26.730
REMARK  Name = 
REMARK  6 active torsions:
REMARK  status: ('A' for Active; 'I' for Inactive)
REMARK    1  A    between atoms: C_2  and  O_3
REMARK    2  A    between atoms: O_3  and  C_4
REMARK    3  A    between atoms: C_7  and  N_8
REMARK    4  A    between atoms: C_9  and  C_11
REMARK    5  A    between atoms: C_12  and  N_13
REMARK    6  A    between atoms: C_14  and  C_16
REMARK                            x       y       z     vdW  Elec       q    Type
REMARK                         _______ _______ _______ _____ _____    ______ ____
ROOT
ATOM      1  C   UNL     1      37.073   4.595  15.424  0.00  0.00    +0.000 A 
ATOM      2  C   UNL     1      36.480   3.356  15.452  0.00  0.00    +0.000 A 
ATOM      3  S   UNL     1      35.085   3.559  14.470  0.00  0.00    +0.000 S 
ATOM      4  C   UNL     1      35.297   5.222  14.050  0.00  0.00    +0.000 A 
ATOM      5  C   UNL     1      36.444   5.524  14.699  0.00  0.00    +0.000 A 
ATOM      6  C   UNL     1      36.821   6.952  14.463  0.00  0.00    +0.000 C 
ATOM      7  C   UNL     1      36.742   7.467  13.198  0.00  0.00    +0.000 C 
ATOM      8  C   UNL     1      35.631   6.896  12.182  0.00  0.00    +0.000 C 
ATOM      9  C   UNL     1      36.448   5.530  11.854  0.00  0.00    +0.000 C 
ATOM     10  C   UNL     1      34.616   6.249  13.257  0.00  0.00    +0.000 C 
ENDROOT
BRANCH   1  12
ATOM     11  N   UNL     1      38.440   5.752  17.233  0.00  0.00    +0.000 NA
ATOM     12  C   UNL     1      38.341   4.847  16.171  0.00  0.00    +0.000 C 
ATOM     13  O   UNL     1      39.405   4.252  15.884  0.00  0.00    +0.000 OA
BRANCH  11  17
ATOM     14  C   UNL     1      42.083   6.537  19.285  0.00  0.00    +0.000 A 
ATOM     15  C   UNL     1      41.998   6.541  17.913  0.00  0.00    +0.000 A 
ATOM     16  C   UNL     1      40.803   6.283  17.267  0.00  0.00    +0.000 A 
ATOM     17  C   UNL     1      39.639   6.010  17.961  0.00  0.00    +0.000 A 
ATOM     18  C   UNL     1      39.724   6.007  19.321  0.00  0.00    +0.000 A 
ATOM     19  C   UNL     1      40.917   6.265  19.972  0.00  0.00    +0.000 A 
BRANCH  14  20
ATOM     20  O   UNL     1      43.286   6.798  19.931  0.00  0.00    +0.000 OA
BRANCH  20  22
ATOM     21  C   UNL     1      44.069   5.783  21.945  0.00  0.00    +0.000 C 
ATOM     22  C   UNL     1      43.302   6.922  21.341  0.00  0.00    +0.000 C 
ENDBRANCH  20  22
ENDBRANCH  14  20
ENDBRANCH  11  17
ENDBRANCH   1  12
BRANCH   2  23
ATOM     23  N   UNL     1      36.940   2.192  16.145  0.00  0.00    +0.000 NA
ATOM     24  C   UNL     1      36.059   1.340  16.852  0.00  0.00    +0.000 C 
ATOM     25  O   UNL     1      34.847   1.653  16.845  0.00  0.00    +0.000 OA
BRANCH  24  26
ATOM     26  C   UNL     1      36.460   0.146  17.575  0.00  0.00    +0.000 A 
ATOM     27  C   UNL     1      36.213   0.053  18.920  0.00  0.00    +0.000 A 
ATOM     28  C   UNL     1      36.579  -1.066  19.637  0.00  0.00    +0.000 A 
ATOM     29  C   UNL     1      37.202  -2.102  18.998  0.00  0.00    +0.000 A 
ATOM     30  C   UNL     1      37.466  -2.048  17.660  0.00  0.00    +0.000 A 
ATOM     31  C   UNL     1      37.089  -0.921  16.970  0.00  0.00    +0.000 A 
ENDBRANCH  24  26
ENDBRANCH   2  23
TORSDOF 6
ENDMDL
MODEL 6
REMARK VINA RESULT:      -7.1     24.160     27.690
REMARK  Name = 
REMARK  6 active torsions:
REMARK  status: ('A' for Active; 'I' for Inactive)
REMARK    1  A    between atoms: C_2  and  O_3
REMARK    2  A    between atoms: O_3  and  C_4
REMARK    3  A    between atoms: C_7  and  N_8
REMARK    4  A    between atoms: C_9  and  C_11
REMARK    5  A    between atoms: C_12  and  N_13
REMARK    6  A    between atoms: C_14  and  C_16
REMARK                            x       y       z     vdW  Elec       q    Type
REMARK                         _______ _______ _______ _____ _____    ______ ____
ROOT
ATOM      1  C   UNL     1      37.540  -1.054  15.871  0.00  0.00    +0.000 A 
ATOM      2  C   UNL     1      38.852  -1.396  15.647  0.00  0.00    +0.000 A 
ATOM      3  S   UNL     1      38.876  -3.090  15.925  0.00  0.00    +0.000 S 
ATOM      4  C   UNL     1      37.209  -3.317  16.319  0.00  0.00    +0.000 A 
ATOM      5  C   UNL     1      36.728  -2.058  16.211  0.00  0.00    +0.000 A 
ATOM      6  C   UNL     1      35.264  -2.026  16.516  0.00  0.00    +0.000 C 
ATOM      7  C   UNL     1      34.446  -2.984  15.984  0.00  0.00    +0.000 C 
ATOM      8  C   UNL     1      35.035  -4.456  15.703  0.00  0.00    +0.000 C 
ATOM      9  C   UNL     1      35.833  -4.021  14.356  0.00  0.00    +0.000 C 
ATOM     10  C   UNL     1      36.308  -4.411  16.694  0.00  0.00    +0.000 C 
ENDROOT
BRANCH   1  12
ATOM     11  N   UNL     1      36.686   0.923  14.513  0.00  0.00    +0.000 NA
ATOM     12  C   UNL     1      37.089   0.363  15.730  0.00  0.00    +0.000 C 
ATOM     13  O   UNL     1      37.045   1.141  16.710  0.00  0.00    +0.000 OA
BRANCH  11  17
ATOM     14  C   UNL     1      35.505   4.975  13.970  0.00  0.00    +0.000 A 
ATOM     15  C   UNL     1      36.692   4.483  13.479  0.00  0.00    +0.000 A 
ATOM     16  C   UNL     1      37.056   3.163  13.668  0.00  0.00    +0.000 A 
ATOM     17  C   UNL     1      36.252   2.272  14.354  0.00  0.00    +0.000 A 
ATOM     18  C   UNL     1      35.075   2.759  14.840  0.00  0.00    +0.000 A 
ATOM     19  C   UNL     1      34.707   4.080  14.654  0.00  0.00    +0.000 A 
BRANCH  14  20
ATOM     20  O   UNL     1      35.144   6.303  13.778  0.00  0.00    +0.000 OA
BRANCH  20  22
ATOM     21  C   UNL     1      33.651   7.959  14.631  0.00  0.00    +0.000 C 
ATOM     22  C   UNL     1      33.779   6.669  13.877  0.00  0.00    +0.000 C 
ENDBRANCH  20  22
ENDBRANCH  14  20
ENDBRANCH  11  17
ENDBRANCH   1  12
BRANCH   2  23
ATOM     23  N   UNL     1      39.921  -0.523  15.273  0.00  0.00    +0.000 NA
ATOM     24  C   UNL     1      40.218  -0.233  13.920  0.00  0.00    +0.000 C 
ATOM     25  O   UNL     1      39.496  -0.780  13.056  0.00  0.00    +0.000 OA
BRANCH  24  26
ATOM     26  C   UNL     1      41.287   0.642  13.472  0.00  0.00    +0.000 A 
ATOM     27  C   UNL     1      42.588   0.219  13.553  0.00  0.00    +0.000 A 
ATOM     28  C   UNL     1      43.628   1.023  13.136  0.00  0.00    +0.000 A 
ATOM     29  C   UNL     1      43.358   2.267  12.636  0.00  0.00    +0.000 A 
ATOM     30  C   UNL     1      42.077   2.726  12.541  0.00  0.00    +0.000 A 
ATOM     31  C   UNL     1      41.060   1.903  12.962  0.00  0.00    +0.000 A 
ENDBRANCH  24  26
ENDBRANCH   2  23
TORSDOF 6
ENDMDL
MODEL 7
REMARK VINA RESULT:      -6.8     23.458     28.175
REMARK  Name = 
REMARK  6 active torsions:
REMARK  status: ('A' for Active; 'I' for Inactive)
REMARK    1  A    between atoms: C_2  and  O_3
REMARK    2  A    between atoms: O_3  and  C_4
REMARK    3  A    between atoms: C_7  and  N_8
REMARK    4  A    between atoms: C_9  and  C_11
REMARK    5  A    between atoms: C_12  and  N_13
REMARK    6  A    between atoms: C_14  and  C_16
REMARK                            x       y       z     vdW  Elec       q    Type
REMARK                         _______ _______ _______ _____ _____    ______ ____
ROOT
ATOM      1  C   UNL     1      40.211   0.035  14.227  0.00  0.00    +0.000 A 
ATOM      2  C   UNL     1      39.762  -1.022  14.981  0.00  0.00    +0.000 A 
ATOM      3  S   UNL     1      40.980  -2.213  14.763  0.00  0.00    +0.000 S 
ATOM      4  C   UNL     1      42.030  -1.328  13.714  0.00  0.00    +0.000 A 
ATOM      5  C   UNL     1      41.372  -0.154  13.594  0.00  0.00    +0.000 A 
ATOM      6  C   UNL     1      42.127   0.785  12.707  0.00  0.00    +0.000 C 
ATOM      7  C   UNL     1      43.479   0.916  12.866  0.00  0.00    +0.000 C 
ATOM      8  C   UNL     1      44.337  -0.343  13.387  0.00  0.00    +0.000 C 
ATOM      9  C   UNL     1      43.879  -0.177  14.938  0.00  0.00    +0.000 C 
ATOM     10  C   UNL     1      43.303  -1.525  13.015  0.00  0.00    +0.000 C 
ENDROOT
BRANCH   1  12
ATOM     11  N   UNL     1      38.347   1.481  13.269  0.00  0.00    +0.000 NA
ATOM     12  C   UNL     1      39.421   1.301  14.147  0.00  0.00    +0.000 C 
ATOM     13  O   UNL     1      39.680   2.287  14.873  0.00  0.00    +0.000 OA
BRANCH  11  17
ATOM     14  C   UNL     1      35.978   5.011  13.090  0.00  0.00    +0.000 A 
ATOM     15  C   UNL     1      35.748   4.017  14.013  0.00  0.00    +0.000 A 
ATOM     16  C   UNL     1      36.531   2.879  14.052  0.00  0.00    +0.000 A 
ATOM     17  C   UNL     1      37.579   2.679  13.174  0.00  0.00    +0.000 A 
ATOM     18  C   UNL     1      37.808   3.664  12.260  0.00  0.00    +0.000 A 
ATOM     19  C   UNL     1      37.027   4.805  12.217  0.00  0.00    +0.000 A 
BRANCH  14  20
ATOM     20  O   UNL     1      35.189   6.155  13.054  0.00  0.00    +0.000 OA
BRANCH  20  22
ATOM     21  C   UNL     1      36.357   7.733  14.412  0.00  0.00    +0.000 C 
ATOM     22  C   UNL     1      35.087   6.961  14.214  0.00  0.00    +0.000 C 
ENDBRANCH  20  22
ENDBRANCH  14  20
ENDBRANCH  11  17
ENDBRANCH   1  12
BRANCH   2  23
ATOM     23  N   UNL     1      38.559  -1.084  15.753  0.00  0.00    +0.000 NA
ATOM     24  C   UNL     1      37.326  -1.494  15.194  0.00  0.00    +0.000 C 
ATOM     25  O   UNL     1      37.332  -1.801  13.981  0.00  0.00    +0.000 OA
BRANCH  24  26
ATOM     26  C   UNL     1      36.071  -1.579  15.921  0.00  0.00    +0.000 A 
ATOM     27  C   UNL     1      35.634  -0.503  16.648  0.00  0.00    +0.000 A 
ATOM     28  C   UNL     1      34.448  -0.549  17.350  0.00  0.00    +0.000 A 
ATOM     29  C   UNL     1      33.693  -1.689  17.322  0.00  0.00    +0.000 A 
ATOM     30  C   UNL     1      34.094  -2.782  16.611  0.00  0.00    +0.000 A 
ATOM     31  C   UNL     1      35.280  -2.708  15.920  0.00  0.00    +0.000 A 
ENDBRANCH  24  26
ENDBRANCH   2  23
TORSDOF 6
ENDMDL
MODEL 8
REMARK VINA RESULT:      -6.8     24.382     27.175
REMARK  Name = 
REMARK  6 active torsions:
REMARK  status: ('A' for Active; 'I' for Inactive)
REMARK    1  A    between atoms: C_2  and  O_3
REMARK    2  A    between atoms: O_3  and  C_4
REMARK    3  A    between atoms: C_7  and  N_8
REMARK    4  A    between atoms: C_9  and  C_11
REMARK    5  A    between atoms: C_12  and  N_13
REMARK    6  A    between atoms: C_14  and  C_16
REMARK                            x       y       z     vdW  Elec       q    Type
REMARK                         _______ _______ _______ _____ _____    ______ ____
ROOT
ATOM      1  C   UNL     1      36.359   6.924  13.492  0.00  0.00    +0.000 A 
ATOM      2  C   UNL     1      36.937   7.902  14.265  0.00  0.00    +0.000 A 
ATOM      3  S   UNL     1      37.232   9.172  13.147  0.00  0.00    +0.000 S 
ATOM      4  C   UNL     1      36.607   8.420  11.722  0.00  0.00    +0.000 A 
ATOM      5  C   UNL     1      36.204   7.222  12.199  0.00  0.00    +0.000 A 
ATOM      6  C   UNL     1      35.615   6.390  11.104  0.00  0.00    +0.000 C 
ATOM      7  C   UNL     1      34.740   6.964  10.223  0.00  0.00    +0.000 C 
ATOM      8  C   UNL     1      34.894   8.526   9.864  0.00  0.00    +0.000 C 
ATOM      9  C   UNL     1      34.233   9.043  11.256  0.00  0.00    +0.000 C 
ATOM     10  C   UNL     1      36.433   8.735  10.301  0.00  0.00    +0.000 C 
ENDROOT
BRANCH   1  12
ATOM     11  N   UNL     1      36.843   4.611  14.439  0.00  0.00    +0.000 NA
ATOM     12  C   UNL     1      35.941   5.625  14.098  0.00  0.00    +0.000 C 
ATOM     13  O   UNL     1      34.740   5.365  14.340  0.00  0.00    +0.000 OA
BRANCH  11  17
ATOM     14  C   UNL     1      35.752   0.939  16.290  0.00  0.00    +0.000 A 
ATOM     15  C   UNL     1      36.156   2.036  17.015  0.00  0.00    +0.000 A 
ATOM     16  C   UNL     1      36.506   3.219  16.392  0.00  0.00    +0.000 A 
ATOM     17  C   UNL     1      36.469   3.363  15.018  0.00  0.00    +0.000 A 
ATOM     18  C   UNL     1      36.069   2.276  14.299  0.00  0.00    +0.000 A 
ATOM     19  C   UNL     1      35.717   1.090  14.918  0.00  0.00    +0.000 A 
BRANCH  14  20
ATOM     20  O   UNL     1      35.401  -0.249  16.921  0.00  0.00    +0.000 OA
BRANCH  20  22
ATOM     21  C   UNL     1      36.269  -1.014  19.008  0.00  0.00    +0.000 C 
ATOM     22  C   UNL     1      36.412  -1.041  17.515  0.00  0.00    +0.000 C 
ENDBRANCH  20  22
ENDBRANCH  14  20
ENDBRANCH  11  17
ENDBRANCH   1  12
BRANCH   2  23
ATOM     23  N   UNL     1      37.216   7.844  15.667  0.00  0.00    +0.000 NA
ATOM     24  C   UNL     1      38.455   7.384  16.170  0.00  0.00    +0.000 C 
ATOM     25  O   UNL     1      39.307   7.025  15.326  0.00  0.00    +0.000 OA
BRANCH  24  26
ATOM     26  C   UNL     1      38.802   7.300  17.578  0.00  0.00    +0.000 A 
ATOM     27  C   UNL     1      38.357   8.265  18.444  0.00  0.00    +0.000 A 
ATOM     28  C   UNL     1      38.667   8.217  19.787  0.00  0.00    +0.000 A 
ATOM     29  C   UNL     1      39.433   7.189  20.265  0.00  0.00    +0.000 A 
ATOM     30  C   UNL     1      39.895   6.210  19.435  0.00  0.00    +0.000 A 
ATOM     31  C   UNL     1      39.571   6.283  18.102  0.00  0.00    +0.000 A 
ENDBRANCH  24  26
ENDBRANCH   2  23
TORSDOF 6
ENDMDL
MODEL 9
REMARK VINA RESULT:      -6.8     24.869     27.545
REMARK  Name = 
REMARK  6 active torsions:
REMARK  status: ('A' for Active; 'I' for Inactive)
REMARK    1  A    between atoms: C_2  and  O_3
REMARK    2  A    between atoms: O_3  and  C_4
REMARK    3  A    between atoms: C_7  and  N_8
REMARK    4  A    between atoms: C_9  and  C_11
REMARK    5  A    between atoms: C_12  and  N_13
REMARK    6  A    between atoms: C_14  and  C_16
REMARK                            x       y       z     vdW  Elec       q    Type
REMARK                         _______ _______ _______ _____ _____    ______ ____
ROOT
ATOM      1  C   UNL     1      37.154   6.398  14.448  0.00  0.00    +0.000 A 
ATOM      2  C   UNL     1      37.716   7.339  15.276  0.00  0.00    +0.000 A 
ATOM      3  S   UNL     1      37.399   8.822  14.469  0.00  0.00    +0.000 S 
ATOM      4  C   UNL     1      36.557   8.200  13.094  0.00  0.00    +0.000 A 
ATOM      5  C   UNL     1      36.570   6.871  13.343  0.00  0.00    +0.000 A 
ATOM      6  C   UNL     1      35.873   6.124  12.250  0.00  0.00    +0.000 C 
ATOM      7  C   UNL     1      34.679   6.592  11.774  0.00  0.00    +0.000 C 
ATOM      8  C   UNL     1      34.392   8.176  11.785  0.00  0.00    +0.000 C 
ATOM      9  C   UNL     1      34.075   8.238  13.377  0.00  0.00    +0.000 C 
ATOM     10  C   UNL     1      35.913   8.707  11.879  0.00  0.00    +0.000 C 
ENDROOT
BRANCH   1  12
ATOM     11  N   UNL     1      36.082   4.192  15.129  0.00  0.00    +0.000 NA
ATOM     12  C   UNL     1      37.212   4.947  14.796  0.00  0.00    +0.000 C 
ATOM     13  O   UNL     1      38.292   4.314  14.809  0.00  0.00    +0.000 OA
BRANCH  11  17
ATOM     14  C   UNL     1      36.179   0.028  15.997  0.00  0.00    +0.000 A 
ATOM     15  C   UNL     1      36.228   0.512  14.710  0.00  0.00    +0.000 A 
ATOM     16  C   UNL     1      36.195   1.869  14.452  0.00  0.00    +0.000 A 
ATOM     17  C   UNL     1      36.112   2.806  15.464  0.00  0.00    +0.000 A 
ATOM     18  C   UNL     1      36.065   2.327  16.740  0.00  0.00    +0.000 A 
ATOM     19  C   UNL     1      36.097   0.969  17.003  0.00  0.00    +0.000 A 
BRANCH  14  20
ATOM     20  O   UNL     1      36.213  -1.338  16.252  0.00  0.00    +0.000 OA
BRANCH  20  22
ATOM     21  C   UNL     1      38.453  -2.087  16.596  0.00  0.00    +0.000 C 
ATOM     22  C   UNL     1      37.254  -2.120  15.695  0.00  0.00    +0.000 C 
ENDBRANCH  20  22
ENDBRANCH  14  20
ENDBRANCH  11  17
ENDBRANCH   1  12
BRANCH   2  23
ATOM     23  N   UNL     1      38.397   7.107  16.512  0.00  0.00    +0.000 NA
ATOM     24  C   UNL     1      39.808   7.039  16.592  0.00  0.00    +0.000 C 
ATOM     25  O   UNL     1      40.441   7.192  15.523  0.00  0.00    +0.000 OA
BRANCH  24  26
ATOM     26  C   UNL     1      40.561   6.806  17.812  0.00  0.00    +0.000 A 
ATOM     27  C   UNL     1      41.931   6.811  17.775  0.00  0.00    +0.000 A 
ATOM     28  C   UNL     1      42.677   6.595  18.914  0.00  0.00    +0.000 A 
ATOM     29  C   UNL     1      42.040   6.368  20.103  0.00  0.00    +0.000 A 
ATOM     30  C   UNL     1      40.679   6.354  20.182  0.00  0.00    +0.000 A 
ATOM     31  C   UNL     1      39.960   6.574  19.032  0.00  0.00    +0.000 A 
ENDBRANCH  24  26
ENDBRANCH   2  23
TORSDOF 6
ENDMDL
MODEL 10
REMARK VINA RESULT:      -6.8     23.596     28.430
REMARK  Name = 
REMARK  6 active torsions:
REMARK  status: ('A' for Active; 'I' for Inactive)
REMARK    1  A    between atoms: C_2  and  O_3
REMARK    2  A    between atoms: O_3  and  C_4
REMARK    3  A    between atoms: C_7  and  N_8
REMARK    4  A    between atoms: C_9  and  C_11
REMARK    5  A    between atoms: C_12  and  N_13
REMARK    6  A    between atoms: C_14  and  C_16
REMARK                            x       y       z     vdW  Elec       q    Type
REMARK                         _______ _______ _______ _____ _____    ______ ____
ROOT
ATOM      1  C   UNL     1      37.187   0.786  15.386  0.00  0.00    +0.000 A 
ATOM      2  C   UNL     1      37.036   2.133  15.610  0.00  0.00    +0.000 A 
ATOM      3  S   UNL     1      35.588   2.226  16.530  0.00  0.00    +0.000 S 
ATOM      4  C   UNL     1      35.214   0.540  16.604  0.00  0.00    +0.000 A 
ATOM      5  C   UNL     1      36.240   0.001  15.908  0.00  0.00    +0.000 A 
ATOM      6  C   UNL     1      36.111  -1.488  15.850  0.00  0.00    +0.000 C 
ATOM      7  C   UNL     1      35.782  -2.178  16.983  0.00  0.00    +0.000 C 
ATOM      8  C   UNL     1      34.852  -1.473  18.093  0.00  0.00    +0.000 C 
ATOM      9  C   UNL     1      36.047  -0.548  18.693  0.00  0.00    +0.000 C 
ATOM     10  C   UNL     1      34.181  -0.331  17.172  0.00  0.00    +0.000 C 
ENDROOT
BRANCH   1  12
ATOM     11  N   UNL     1      39.514  -0.227  15.200  0.00  0.00    +0.000 NA
ATOM     12  C   UNL     1      38.351   0.271  14.605  0.00  0.00    +0.000 C 
ATOM     13  O   UNL     1      38.350   0.255  13.353  0.00  0.00    +0.000 OA
BRANCH  11  17
ATOM     14  C   UNL     1      42.816  -1.837  13.053  0.00  0.00    +0.000 A 
ATOM     15  C   UNL     1      41.799  -2.626  13.537  0.00  0.00    +0.000 A 
ATOM     16  C   UNL     1      40.736  -2.081  14.232  0.00  0.00    +0.000 A 
ATOM     17  C   UNL     1      40.638  -0.725  14.476  0.00  0.00    +0.000 A 
ATOM     18  C   UNL     1      41.646   0.058  13.996  0.00  0.00    +0.000 A 
ATOM     19  C   UNL     1      42.712  -0.483  13.300  0.00  0.00    +0.000 A 
BRANCH  14  20
ATOM     20  O   UNL     1      43.883  -2.389  12.354  0.00  0.00    +0.000 OA
BRANCH  20  22
ATOM     21  C   UNL     1      45.535  -2.822  14.022  0.00  0.00    +0.000 C 
ATOM     22  C   UNL     1      44.653  -3.411  12.962  0.00  0.00    +0.000 C 
ENDBRANCH  20  22
ENDBRANCH  14  20
ENDBRANCH  11  17
ENDBRANCH   1  12
BRANCH   2  23
ATOM     23  N   UNL     1      37.898   3.186  15.168  0.00  0.00    +0.000 NA
ATOM     24  C   UNL     1      38.562   4.045  16.074  0.00  0.00    +0.000 C 
ATOM     25  O   UNL     1      38.360   3.844  17.293  0.00  0.00    +0.000 OA
BRANCH  24  26
ATOM     26  C   UNL     1      39.449   5.131  15.693  0.00  0.00    +0.000 A 
ATOM     27  C   UNL     1      40.179   5.780  16.654  0.00  0.00    +0.000 A 
ATOM     28  C   UNL     1      41.031   6.813  16.327  0.00  0.00    +0.000 A 
ATOM     29  C   UNL     1      41.149   7.202  15.021  0.00  0.00    +0.000 A 
ATOM     30  C   UNL     1      40.438   6.582  14.035  0.00  0.00    +0.000 A 
ATOM     31  C   UNL     1      39.598   5.554  14.389  0.00  0.00    +0.000 A 
ENDBRANCH  24  26
ENDBRANCH   2  23
TORSDOF 6
ENDMDL
