MODEL 1
REMARK VINA RESULT:      -6.5      0.000      0.000
REMARK  Name = 
REMARK  2 active torsions:
REMARK  status: ('A' for Active; 'I' for Inactive)
REMARK    1  A    between atoms: N_11  and  C_12
REMARK    2  A    between atoms: C_12  and  C_13
REMARK                            x       y       z     vdW  Elec       q    Type
REMARK                         _______ _______ _______ _____ _____    ______ ____
ROOT
ATOM      1  C   UNL     1      29.454  26.931  23.062  0.00  0.00    +0.000 C 
ATOM      2  C   UNL     1      29.252  25.296  23.182  0.00  0.00    +0.000 C 
ATOM      3  C   UNL     1      29.464  24.930  21.656  0.00  0.00    +0.000 C 
ATOM      4  C   UNL     1      29.432  26.053  20.751  0.00  0.00    +0.000 C 
ATOM      5  C   UNL     1      28.094  26.741  20.920  0.00  0.00    +0.000 C 
ATOM      6  C   UNL     1      27.233  26.103  21.893  0.00  0.00    +0.000 C 
ATOM      7  C   UNL     1      27.616  25.444  23.094  0.00  0.00    +0.000 C 
ATOM      8  N   UNL     1      27.433  26.258  24.315  0.00  0.00    +0.000 NA
ATOM      9  C   UNL     1      27.277  25.346  25.391  0.00  0.00    +0.000 C 
ATOM     10  O   UNL     1      27.373  25.723  26.607  0.00  0.00    +0.000 OA
ATOM     11  N   UNL     1      27.022  24.105  24.888  0.00  0.00    +0.000 N 
ATOM     12  C   UNL     1      26.991  24.193  23.417  0.00  0.00    +0.000 C 
ATOM     13  O   UNL     1      26.511  23.340  22.656  0.00  0.00    +0.000 OA
ENDROOT
BRANCH  11  14
ATOM     14  C   UNL     1      26.918  22.743  25.461  0.00  0.00    +0.000 C 
BRANCH  14  15
ATOM     15  C   UNL     1      28.312  22.501  25.989  0.00  0.00    +0.000 A 
ATOM     16  C   UNL     1      28.259  22.573  27.433  0.00  0.00    +0.000 A 
ATOM     17  C   UNL     1      29.488  22.631  28.043  0.00  0.00    +0.000 A 
ATOM     18  C   UNL     1      30.674  22.606  27.462  0.00  0.00    +0.000 A 
ATOM     19  C   UNL     1      30.685  22.534  26.076  0.00  0.00    +0.000 A 
ATOM     20  C   UNL     1      29.500  22.481  25.357  0.00  0.00    +0.000 A 
ATOM     21  F   UNL     1      29.472  22.297  23.980  0.00  0.00    +0.000 F 
ENDBRANCH  14  15
ENDBRANCH  11  14
TORSDOF 2
ENDMDL
MODEL 2
REMARK VINA RESULT:      -6.1      2.224      3.190
REMARK  Name = 
REMARK  2 active torsions:
REMARK  status: ('A' for Active; 'I' for Inactive)
REMARK    1  A    between atoms: N_11  and  C_12
REMARK    2  A    between atoms: C_12  and  C_13
REMARK                            x       y       z     vdW  Elec       q    Type
REMARK                         _______ _______ _______ _____ _____    ______ ____
ROOT
ATOM      1  C   UNL     1      27.152  26.974  21.266  0.00  0.00    +0.000 C 
ATOM      2  C   UNL     1      27.898  26.458  22.646  0.00  0.00    +0.000 C 
ATOM      3  C   UNL     1      29.153  27.422  22.598  0.00  0.00    +0.000 C 
ATOM      4  C   UNL     1      29.351  28.100  21.341  0.00  0.00    +0.000 C 
ATOM      5  C   UNL     1      29.490  27.043  20.266  0.00  0.00    +0.000 C 
ATOM      6  C   UNL     1      29.407  25.689  20.770  0.00  0.00    +0.000 C 
ATOM      7  C   UNL     1      28.613  25.209  21.849  0.00  0.00    +0.000 C 
ATOM      8  N   UNL     1      27.375  24.519  21.428  0.00  0.00    +0.000 NA
ATOM      9  C   UNL     1      27.031  23.629  22.479  0.00  0.00    +0.000 C 
ATOM     10  O   UNL     1      25.874  23.091  22.547  0.00  0.00    +0.000 OA
ATOM     11  N   UNL     1      28.100  23.489  23.311  0.00  0.00    +0.000 N 
ATOM     12  C   UNL     1      29.211  24.304  22.788  0.00  0.00    +0.000 C 
ATOM     13  O   UNL     1      30.401  24.194  23.119  0.00  0.00    +0.000 OA
ENDROOT
BRANCH  11  14
ATOM     14  C   UNL     1      28.328  22.845  24.625  0.00  0.00    +0.000 C 
BRANCH  14  15
ATOM     15  C   UNL     1      27.457  23.664  25.548  0.00  0.00    +0.000 A 
ATOM     16  C   UNL     1      28.290  24.672  26.167  0.00  0.00    +0.000 A 
ATOM     17  C   UNL     1      27.702  25.326  27.221  0.00  0.00    +0.000 A 
ATOM     18  C   UNL     1      26.483  25.145  27.697  0.00  0.00    +0.000 A 
ATOM     19  C   UNL     1      25.712  24.172  27.077  0.00  0.00    +0.000 A 
ATOM     20  C   UNL     1      26.211  23.443  26.008  0.00  0.00    +0.000 A 
ATOM     21  F   UNL     1      25.434  22.541  25.293  0.00  0.00    +0.000 F 
ENDBRANCH  14  15
ENDBRANCH  11  14
TORSDOF 2
ENDMDL
MODEL 3
REMARK VINA RESULT:      -6.0      2.465      4.292
REMARK  Name = 
REMARK  2 active torsions:
REMARK  status: ('A' for Active; 'I' for Inactive)
REMARK    1  A    between atoms: N_11  and  C_12
REMARK    2  A    between atoms: C_12  and  C_13
REMARK                            x       y       z     vdW  Elec       q    Type
REMARK                         _______ _______ _______ _____ _____    ______ ____
ROOT
ATOM      1  C   UNL     1      30.217  24.838  23.140  0.00  0.00    +0.000 C 
ATOM      2  C   UNL     1      29.169  24.853  24.415  0.00  0.00    +0.000 C 
ATOM      3  C   UNL     1      30.236  24.890  25.585  0.00  0.00    +0.000 C 
ATOM      4  C   UNL     1      31.589  24.597  25.181  0.00  0.00    +0.000 C 
ATOM      5  C   UNL     1      31.591  23.223  24.545  0.00  0.00    +0.000 C 
ATOM      6  C   UNL     1      30.289  22.590  24.527  0.00  0.00    +0.000 C 
ATOM      7  C   UNL     1      29.020  23.215  24.373  0.00  0.00    +0.000 C 
ATOM      8  N   UNL     1      28.456  23.110  23.011  0.00  0.00    +0.000 NA
ATOM      9  C   UNL     1      27.047  23.217  23.147  0.00  0.00    +0.000 C 
ATOM     10  O   UNL     1      26.293  23.438  22.141  0.00  0.00    +0.000 OA
ATOM     11  N   UNL     1      26.713  23.045  24.457  0.00  0.00    +0.000 N 
ATOM     12  C   UNL     1      27.944  22.796  25.226  0.00  0.00    +0.000 C 
ATOM     13  O   UNL     1      27.994  22.320  26.370  0.00  0.00    +0.000 OA
ENDROOT
BRANCH  11  14
ATOM     14  C   UNL     1      25.468  23.186  25.248  0.00  0.00    +0.000 C 
BRANCH  14  15
ATOM     15  C   UNL     1      25.655  24.528  25.917  0.00  0.00    +0.000 A 
ATOM     16  C   UNL     1      25.497  24.339  27.343  0.00  0.00    +0.000 A 
ATOM     17  C   UNL     1      25.381  25.504  28.060  0.00  0.00    +0.000 A 
ATOM     18  C   UNL     1      25.420  26.740  27.593  0.00  0.00    +0.000 A 
ATOM     19  C   UNL     1      25.575  26.882  26.222  0.00  0.00    +0.000 A 
ATOM     20  C   UNL     1      25.691  25.771  25.400  0.00  0.00    +0.000 A 
ATOM     21  F   UNL     1      25.958  25.873  24.041  0.00  0.00    +0.000 F 
ENDBRANCH  14  15
ENDBRANCH  11  14
TORSDOF 2
ENDMDL
MODEL 4
REMARK VINA RESULT:      -5.9      1.896      2.741
REMARK  Name = 
REMARK  2 active torsions:
REMARK  status: ('A' for Active; 'I' for Inactive)
REMARK    1  A    between atoms: N_11  and  C_12
REMARK    2  A    between atoms: C_12  and  C_13
REMARK                            x       y       z     vdW  Elec       q    Type
REMARK                         _______ _______ _______ _____ _____    ______ ____
ROOT
ATOM      1  C   UNL     1      27.164  26.776  24.771  0.00  0.00    +0.000 C 
ATOM      2  C   UNL     1      28.663  26.125  24.537  0.00  0.00    +0.000 C 
ATOM      3  C   UNL     1      29.220  27.202  23.519  0.00  0.00    +0.000 C 
ATOM      4  C   UNL     1      28.224  28.085  22.962  0.00  0.00    +0.000 C 
ATOM      5  C   UNL     1      27.188  27.227  22.268  0.00  0.00    +0.000 C 
ATOM      6  C   UNL     1      27.472  25.809  22.331  0.00  0.00    +0.000 C 
ATOM      7  C   UNL     1      28.088  25.092  23.394  0.00  0.00    +0.000 C 
ATOM      8  N   UNL     1      27.140  24.359  24.259  0.00  0.00    +0.000 NA
ATOM      9  C   UNL     1      27.867  23.287  24.839  0.00  0.00    +0.000 C 
ATOM     10  O   UNL     1      27.413  22.634  25.839  0.00  0.00    +0.000 OA
ATOM     11  N   UNL     1      29.036  23.123  24.158  0.00  0.00    +0.000 N 
ATOM     12  C   UNL     1      29.087  24.113  23.069  0.00  0.00    +0.000 C 
ATOM     13  O   UNL     1      29.849  24.069  22.092  0.00  0.00    +0.000 OA
ENDROOT
BRANCH  11  14
ATOM     14  C   UNL     1      30.256  22.306  24.353  0.00  0.00    +0.000 C 
BRANCH  14  15
ATOM     15  C   UNL     1      30.892  22.948  25.564  0.00  0.00    +0.000 A 
ATOM     16  C   UNL     1      31.803  23.971  25.097  0.00  0.00    +0.000 A 
ATOM     17  C   UNL     1      32.646  24.464  26.063  0.00  0.00    +0.000 A 
ATOM     18  C   UNL     1      32.689  24.123  27.338  0.00  0.00    +0.000 A 
ATOM     19  C   UNL     1      31.798  23.142  27.751  0.00  0.00    +0.000 A 
ATOM     20  C   UNL     1      30.909  22.567  26.855  0.00  0.00    +0.000 A 
ATOM     21  F   UNL     1      29.930  21.665  27.251  0.00  0.00    +0.000 F 
ENDBRANCH  14  15
ENDBRANCH  11  14
TORSDOF 2
ENDMDL
MODEL 5
REMARK VINA RESULT:      -5.8      2.555      4.573
REMARK  Name = 
REMARK  2 active torsions:
REMARK  status: ('A' for Active; 'I' for Inactive)
REMARK    1  A    between atoms: N_11  and  C_12
REMARK    2  A    between atoms: C_12  and  C_13
REMARK                            x       y       z     vdW  Elec       q    Type
REMARK                         _______ _______ _______ _____ _____    ______ ____
ROOT
ATOM      1  C   UNL     1      27.609  24.967  28.573  0.00  0.00    +0.000 C 
ATOM      2  C   UNL     1      27.976  25.172  26.976  0.00  0.00    +0.000 C 
ATOM      3  C   UNL     1      26.807  26.172  26.602  0.00  0.00    +0.000 C 
ATOM      4  C   UNL     1      25.760  26.279  27.588  0.00  0.00    +0.000 C 
ATOM      5  C   UNL     1      25.186  24.894  27.801  0.00  0.00    +0.000 C 
ATOM      6  C   UNL     1      25.805  23.877  26.978  0.00  0.00    +0.000 C 
ATOM      7  C   UNL     1      27.165  23.801  26.566  0.00  0.00    +0.000 C 
ATOM      8  N   UNL     1      27.983  22.853  27.351  0.00  0.00    +0.000 NA
ATOM      9  C   UNL     1      29.055  22.451  26.511  0.00  0.00    +0.000 C 
ATOM     10  O   UNL     1      30.083  21.854  26.978  0.00  0.00    +0.000 OA
ATOM     11  N   UNL     1      28.769  22.803  25.226  0.00  0.00    +0.000 N 
ATOM     12  C   UNL     1      27.446  23.453  25.202  0.00  0.00    +0.000 C 
ATOM     13  O   UNL     1      26.754  23.637  24.189  0.00  0.00    +0.000 OA
ENDROOT
BRANCH  11  14
ATOM     14  C   UNL     1      29.517  22.802  23.948  0.00  0.00    +0.000 C 
BRANCH  14  15
ATOM     15  C   UNL     1      30.515  23.918  24.151  0.00  0.00    +0.000 A 
ATOM     16  C   UNL     1      31.789  23.319  24.488  0.00  0.00    +0.000 A 
ATOM     17  C   UNL     1      32.728  24.206  24.953  0.00  0.00    +0.000 A 
ATOM     18  C   UNL     1      32.593  25.513  25.097  0.00  0.00    +0.000 A 
ATOM     19  C   UNL     1      31.360  26.052  24.762  0.00  0.00    +0.000 A 
ATOM     20  C   UNL     1      30.335  25.244  24.291  0.00  0.00    +0.000 A 
ATOM     21  F   UNL     1      29.126  25.760  23.841  0.00  0.00    +0.000 F 
ENDBRANCH  14  15
ENDBRANCH  11  14
TORSDOF 2
ENDMDL
MODEL 6
REMARK VINA RESULT:      -5.8      3.188      4.476
REMARK  Name = 
REMARK  2 active torsions:
REMARK  status: ('A' for Active; 'I' for Inactive)
REMARK    1  A    between atoms: N_11  and  C_12
REMARK    2  A    between atoms: C_12  and  C_13
REMARK                            x       y       z     vdW  Elec       q    Type
REMARK                         _______ _______ _______ _____ _____    ______ ____
ROOT
ATOM      1  C   UNL     1      30.209  24.739  25.837  0.00  0.00    +0.000 C 
ATOM      2  C   UNL     1      28.934  23.977  26.557  0.00  0.00    +0.000 C 
ATOM      3  C   UNL     1      29.385  22.482  26.292  0.00  0.00    +0.000 C 
ATOM      4  C   UNL     1      30.455  22.331  25.337  0.00  0.00    +0.000 C 
ATOM      5  C   UNL     1      29.999  22.956  24.035  0.00  0.00    +0.000 C 
ATOM      6  C   UNL     1      28.660  23.501  24.090  0.00  0.00    +0.000 C 
ATOM      7  C   UNL     1      28.018  24.122  25.198  0.00  0.00    +0.000 C 
ATOM      8  N   UNL     1      28.000  25.598  25.138  0.00  0.00    +0.000 NA
ATOM      9  C   UNL     1      26.889  26.022  25.911  0.00  0.00    +0.000 C 
ATOM     10  O   UNL     1      26.757  27.237  26.283  0.00  0.00    +0.000 OA
ATOM     11  N   UNL     1      26.075  24.954  26.142  0.00  0.00    +0.000 N 
ATOM     12  C   UNL     1      26.656  23.771  25.483  0.00  0.00    +0.000 C 
ATOM     13  O   UNL     1      26.054  22.714  25.243  0.00  0.00    +0.000 OA
ENDROOT
BRANCH  11  14
ATOM     14  C   UNL     1      24.879  24.710  26.981  0.00  0.00    +0.000 C 
BRANCH  14  15
ATOM     15  C   UNL     1      25.409  24.922  28.380  0.00  0.00    +0.000 A 
ATOM     16  C   UNL     1      26.045  23.694  28.804  0.00  0.00    +0.000 A 
ATOM     17  C   UNL     1      26.345  23.644  30.143  0.00  0.00    +0.000 A 
ATOM     18  C   UNL     1      26.138  24.585  31.047  0.00  0.00    +0.000 A 
ATOM     19  C   UNL     1      25.529  25.750  30.603  0.00  0.00    +0.000 A 
ATOM     20  C   UNL     1      25.172  25.903  29.271  0.00  0.00    +0.000 A 
ATOM     21  F   UNL     1      24.663  27.093  28.767  0.00  0.00    +0.000 F 
ENDBRANCH  14  15
ENDBRANCH  11  14
TORSDOF 2
ENDMDL
MODEL 7
REMARK VINA RESULT:      -5.7      2.200      4.859
REMARK  Name = 
REMARK  2 active torsions:
REMARK  status: ('A' for Active; 'I' for Inactive)
REMARK    1  A    between atoms: N_11  and  C_12
REMARK    2  A    between atoms: C_12  and  C_13
REMARK                            x       y       z     vdW  Elec       q    Type
REMARK                         _______ _______ _______ _____ _____    ______ ____
ROOT
ATOM      1  C   UNL     1      26.090  27.034  26.627  0.00  0.00    +0.000 C 
ATOM      2  C   UNL     1      26.134  26.044  25.307  0.00  0.00    +0.000 C 
ATOM      3  C   UNL     1      24.573  25.889  25.089  0.00  0.00    +0.000 C 
ATOM      4  C   UNL     1      23.758  26.343  26.189  0.00  0.00    +0.000 C 
ATOM      5  C   UNL     1      24.172  25.563  27.419  0.00  0.00    +0.000 C 
ATOM      6  C   UNL     1      25.221  24.598  27.168  0.00  0.00    +0.000 C 
ATOM      7  C   UNL     1      26.305  24.710  26.254  0.00  0.00    +0.000 C 
ATOM      8  N   UNL     1      27.589  25.087  26.882  0.00  0.00    +0.000 NA
ATOM      9  C   UNL     1      28.615  24.596  26.034  0.00  0.00    +0.000 C 
ATOM     10  O   UNL     1      29.825  24.990  26.149  0.00  0.00    +0.000 OA
ATOM     11  N   UNL     1      28.078  23.699  25.160  0.00  0.00    +0.000 N 
ATOM     12  C   UNL     1      26.638  23.572  25.445  0.00  0.00    +0.000 C 
ATOM     13  O   UNL     1      25.905  22.653  25.050  0.00  0.00    +0.000 OA
ENDROOT
BRANCH  11  14
ATOM     14  C   UNL     1      28.571  22.975  23.966  0.00  0.00    +0.000 C 
BRANCH  14  15
ATOM     15  C   UNL     1      28.417  24.003  22.870  0.00  0.00    +0.000 A 
ATOM     16  C   UNL     1      29.631  24.789  22.824  0.00  0.00    +0.000 A 
ATOM     17  C   UNL     1      29.543  25.925  22.059  0.00  0.00    +0.000 A 
ATOM     18  C   UNL     1      28.500  26.346  21.366  0.00  0.00    +0.000 A 
ATOM     19  C   UNL     1      27.354  25.566  21.431  0.00  0.00    +0.000 A 
ATOM     20  C   UNL     1      27.329  24.402  22.185  0.00  0.00    +0.000 A 
ATOM     21  F   UNL     1      26.240  23.539  22.187  0.00  0.00    +0.000 F 
ENDBRANCH  14  15
ENDBRANCH  11  14
TORSDOF 2
ENDMDL
MODEL 8
REMARK VINA RESULT:      -5.7      2.218      4.107
REMARK  Name = 
REMARK  2 active torsions:
REMARK  status: ('A' for Active; 'I' for Inactive)
REMARK    1  A    between atoms: N_11  and  C_12
REMARK    2  A    between atoms: C_12  and  C_13
REMARK                            x       y       z     vdW  Elec       q    Type
REMARK                         _______ _______ _______ _____ _____    ______ ____
ROOT
ATOM      1  C   UNL     1      30.726  25.708  26.083  0.00  0.00    +0.000 C 
ATOM      2  C   UNL     1      29.491  24.625  25.917  0.00  0.00    +0.000 C 
ATOM      3  C   UNL     1      30.302  23.304  26.243  0.00  0.00    +0.000 C 
ATOM      4  C   UNL     1      31.736  23.457  26.244  0.00  0.00    +0.000 C 
ATOM      5  C   UNL     1      32.143  23.971  24.879  0.00  0.00    +0.000 C 
ATOM      6  C   UNL     1      31.031  24.149  23.970  0.00  0.00    +0.000 C 
ATOM      7  C   UNL     1      29.706  24.558  24.288  0.00  0.00    +0.000 C 
ATOM      8  N   UNL     1      29.426  25.981  24.000  0.00  0.00    +0.000 NA
ATOM      9  C   UNL     1      28.026  26.085  23.795  0.00  0.00    +0.000 C 
ATOM     10  O   UNL     1      27.431  27.215  23.798  0.00  0.00    +0.000 OA
ATOM     11  N   UNL     1      27.510  24.838  23.608  0.00  0.00    +0.000 N 
ATOM     12  C   UNL     1      28.610  23.860  23.675  0.00  0.00    +0.000 C 
ATOM     13  O   UNL     1      28.557  22.689  23.272  0.00  0.00    +0.000 OA
ENDROOT
BRANCH  11  14
ATOM     14  C   UNL     1      26.144  24.274  23.501  0.00  0.00    +0.000 C 
BRANCH  14  15
ATOM     15  C   UNL     1      25.671  24.283  24.936  0.00  0.00    +0.000 A 
ATOM     16  C   UNL     1      24.878  25.477  25.134  0.00  0.00    +0.000 A 
ATOM     17  C   UNL     1      24.595  25.758  26.448  0.00  0.00    +0.000 A 
ATOM     18  C   UNL     1      24.946  25.057  27.511  0.00  0.00    +0.000 A 
ATOM     19  C   UNL     1      25.703  23.917  27.282  0.00  0.00    +0.000 A 
ATOM     20  C   UNL     1      26.056  23.545  25.993  0.00  0.00    +0.000 A 
ATOM     21  F   UNL     1      26.717  22.355  25.716  0.00  0.00    +0.000 F 
ENDBRANCH  14  15
ENDBRANCH  11  14
TORSDOF 2
ENDMDL
MODEL 9
REMARK VINA RESULT:      -5.7      3.049      5.545
REMARK  Name = 
REMARK  2 active torsions:
REMARK  status: ('A' for Active; 'I' for Inactive)
REMARK    1  A    between atoms: N_11  and  C_12
REMARK    2  A    between atoms: C_12  and  C_13
REMARK                            x       y       z     vdW  Elec       q    Type
REMARK                         _______ _______ _______ _____ _____    ______ ____
ROOT
ATOM      1  C   UNL     1      27.100  26.460  28.487  0.00  0.00    +0.000 C 
ATOM      2  C   UNL     1      27.124  24.982  27.751  0.00  0.00    +0.000 C 
ATOM      3  C   UNL     1      25.616  24.575  28.012  0.00  0.00    +0.000 C 
ATOM      4  C   UNL     1      24.925  25.394  28.977  0.00  0.00    +0.000 C 
ATOM      5  C   UNL     1      25.696  25.322  30.278  0.00  0.00    +0.000 C 
ATOM      6  C   UNL     1      26.865  24.472  30.212  0.00  0.00    +0.000 C 
ATOM      7  C   UNL     1      27.730  24.266  29.102  0.00  0.00    +0.000 C 
ATOM      8  N   UNL     1      28.995  25.028  29.170  0.00  0.00    +0.000 NA
ATOM      9  C   UNL     1      29.941  24.316  28.388  0.00  0.00    +0.000 C 
ATOM     10  O   UNL     1      31.042  24.848  28.021  0.00  0.00    +0.000 OA
ATOM     11  N   UNL     1      29.462  23.064  28.143  0.00  0.00    +0.000 N 
ATOM     12  C   UNL     1      28.151  22.927  28.802  0.00  0.00    +0.000 C 
ATOM     13  O   UNL     1      27.570  21.855  29.031  0.00  0.00    +0.000 OA
ENDROOT
BRANCH  11  14
ATOM     14  C   UNL     1      29.885  21.928  27.292  0.00  0.00    +0.000 C 
BRANCH  14  15
ATOM     15  C   UNL     1      29.554  22.418  25.902  0.00  0.00    +0.000 A 
ATOM     16  C   UNL     1      30.788  22.842  25.275  0.00  0.00    +0.000 A 
ATOM     17  C   UNL     1      30.619  23.550  24.111  0.00  0.00    +0.000 A 
ATOM     18  C   UNL     1      29.479  23.854  23.516  0.00  0.00    +0.000 A 
ATOM     19  C   UNL     1      28.317  23.429  24.144  0.00  0.00    +0.000 A 
ATOM     20  C   UNL     1      28.371  22.715  25.332  0.00  0.00    +0.000 A 
ATOM     21  F   UNL     1      27.239  22.178  25.931  0.00  0.00    +0.000 F 
ENDBRANCH  14  15
ENDBRANCH  11  14
TORSDOF 2
ENDMDL
MODEL 10
REMARK VINA RESULT:      -5.6      2.923      4.590
REMARK  Name = 
REMARK  2 active torsions:
REMARK  status: ('A' for Active; 'I' for Inactive)
REMARK    1  A    between atoms: N_11  and  C_12
REMARK    2  A    between atoms: C_12  and  C_13
REMARK                            x       y       z     vdW  Elec       q    Type
REMARK                         _______ _______ _______ _____ _____    ______ ____
ROOT
ATOM      1  C   UNL     1      29.879  24.933  24.250  0.00  0.00    +0.000 C 
ATOM      2  C   UNL     1      29.815  24.740  25.888  0.00  0.00    +0.000 C 
ATOM      3  C   UNL     1      31.336  25.043  26.211  0.00  0.00    +0.000 C 
ATOM      4  C   UNL     1      32.210  25.051  25.064  0.00  0.00    +0.000 C 
ATOM      5  C   UNL     1      32.100  23.698  24.393  0.00  0.00    +0.000 C 
ATOM      6  C   UNL     1      31.195  22.790  25.064  0.00  0.00    +0.000 C 
ATOM      7  C   UNL     1      29.992  23.111  25.752  0.00  0.00    +0.000 C 
ATOM      8  N   UNL     1      28.762  22.851  24.973  0.00  0.00    +0.000 NA
ATOM      9  C   UNL     1      27.722  22.643  25.916  0.00  0.00    +0.000 C 
ATOM     10  O   UNL     1      26.492  22.667  25.571  0.00  0.00    +0.000 OA
ATOM     11  N   UNL     1      28.271  22.430  27.144  0.00  0.00    +0.000 N 
ATOM     12  C   UNL     1      29.738  22.481  27.017  0.00  0.00    +0.000 C 
ATOM     13  O   UNL     1      30.548  22.053  27.853  0.00  0.00    +0.000 OA
ENDROOT
BRANCH  11  14
ATOM     14  C   UNL     1      27.742  22.307  28.522  0.00  0.00    +0.000 C 
BRANCH  14  15
ATOM     15  C   UNL     1      27.346  23.727  28.851  0.00  0.00    +0.000 A 
ATOM     16  C   UNL     1      25.917  23.845  28.663  0.00  0.00    +0.000 A 
ATOM     17  C   UNL     1      25.448  25.135  28.671  0.00  0.00    +0.000 A 
ATOM     18  C   UNL     1      26.148  26.241  28.850  0.00  0.00    +0.000 A 
ATOM     19  C   UNL     1      27.516  26.089  29.030  0.00  0.00    +0.000 A 
ATOM     20  C   UNL     1      28.097  24.830  29.028  0.00  0.00    +0.000 A 
ATOM     21  F   UNL     1      29.442  24.630  29.315  0.00  0.00    +0.000 F 
ENDBRANCH  14  15
ENDBRANCH  11  14
TORSDOF 2
ENDMDL
