MODEL 1
REMARK VINA RESULT:      -7.4      0.000      0.000
REMARK  Name = 
REMARK  3 active torsions:
REMARK  status: ('A' for Active; 'I' for Inactive)
REMARK    1  A    between atoms: C_2  and  C_4
REMARK    2  A    between atoms: C_4  and  C_5
REMARK    3  A    between atoms: C_5  and  N_6
REMARK                            x       y       z     vdW  Elec       q    Type
REMARK                         _______ _______ _______ _____ _____    ______ ____
ROOT
ATOM      1  N   UNL     1      16.198  11.396  34.054  0.00  0.00    +0.000 N 
ATOM      2  C   UNL     1      15.362  11.784  35.021  0.00  0.00    +0.000 A 
ATOM      3  N   UNL     1      15.535  11.418  36.322  0.00  0.00    +0.000 NA
ATOM      4  C   UNL     1      16.559  10.650  36.664  0.00  0.00    +0.000 A 
ATOM      5  C   UNL     1      17.437  10.233  35.689  0.00  0.00    +0.000 A 
ATOM      6  N   UNL     1      18.381   9.468  36.301  0.00  0.00    +0.000 NA
ATOM      7  C   UNL     1      18.132   9.389  37.613  0.00  0.00    +0.000 A 
ATOM      8  C   UNL     1      18.744   8.763  38.692  0.00  0.00    +0.000 A 
ATOM      9  C   UNL     1      18.216   8.884  39.960  0.00  0.00    +0.000 A 
ATOM     10  C   UNL     1      17.076   9.618  40.213  0.00  0.00    +0.000 A 
ATOM     11 CL   UNL     1      16.423   9.754  41.846  0.00  0.00    +0.000 Cl
ATOM     12  C   UNL     1      16.465  10.242  39.139  0.00  0.00    +0.000 A 
ATOM     13  C   UNL     1      16.993  10.123  37.867  0.00  0.00    +0.000 A 
ATOM     14  C   UNL     1      17.246  10.617  34.365  0.00  0.00    +0.000 A 
ATOM     15  O   UNL     1      18.080  10.209  33.499  0.00  0.00    +0.000 OA
ENDROOT
BRANCH   1  16
ATOM     16  C   UNL     1      15.989  11.781  32.688  0.00  0.00    +0.000 C 
BRANCH  16  17
ATOM     17  C   UNL     1      14.601  12.043  32.266  0.00  0.00    +0.000 C 
BRANCH  17  19
ATOM     18  C   UNL     1      15.569  13.494  30.548  0.00  0.00    +0.000 C 
ATOM     19  C   UNL     1      14.338  13.179  31.362  0.00  0.00    +0.000 C 
ATOM     20  C   UNL     1      13.762  14.393  32.020  0.00  0.00    +0.000 C 
ENDBRANCH  17  19
ENDBRANCH  16  17
ENDBRANCH   1  16
TORSDOF 3
ENDMDL
MODEL 2
REMARK VINA RESULT:      -7.4      1.707      2.349
REMARK  Name = 
REMARK  3 active torsions:
REMARK  status: ('A' for Active; 'I' for Inactive)
REMARK    1  A    between atoms: C_2  and  C_4
REMARK    2  A    between atoms: C_4  and  C_5
REMARK    3  A    between atoms: C_5  and  N_6
REMARK                            x       y       z     vdW  Elec       q    Type
REMARK                         _______ _______ _______ _____ _____    ______ ____
ROOT
ATOM      1  N   UNL     1      15.810  11.539  34.286  0.00  0.00    +0.000 N 
ATOM      2  C   UNL     1      16.981  10.903  34.187  0.00  0.00    +0.000 A 
ATOM      3  N   UNL     1      17.599  10.344  35.265  0.00  0.00    +0.000 NA
ATOM      4  C   UNL     1      17.039  10.420  36.463  0.00  0.00    +0.000 A 
ATOM      5  C   UNL     1      15.833  11.070  36.597  0.00  0.00    +0.000 A 
ATOM      6  N   UNL     1      15.487  11.004  37.911  0.00  0.00    +0.000 NA
ATOM      7  C   UNL     1      16.422  10.343  38.603  0.00  0.00    +0.000 A 
ATOM      8  C   UNL     1      16.588   9.986  39.935  0.00  0.00    +0.000 A 
ATOM      9  C   UNL     1      17.704   9.281  40.335  0.00  0.00    +0.000 A 
ATOM     10  C   UNL     1      18.691   8.905  39.446  0.00  0.00    +0.000 A 
ATOM     11 CL   UNL     1      20.107   8.004  39.987  0.00  0.00    +0.000 Cl
ATOM     12  C   UNL     1      18.526   9.259  38.119  0.00  0.00    +0.000 A 
ATOM     13  C   UNL     1      17.408   9.966  37.716  0.00  0.00    +0.000 A 
ATOM     14  C   UNL     1      15.215  11.636  35.485  0.00  0.00    +0.000 A 
ATOM     15  O   UNL     1      14.103  12.225  35.655  0.00  0.00    +0.000 OA
ENDROOT
BRANCH   1  16
ATOM     16  C   UNL     1      15.185  12.134  33.140  0.00  0.00    +0.000 C 
BRANCH  16  17
ATOM     17  C   UNL     1      15.934  12.105  31.872  0.00  0.00    +0.000 C 
BRANCH  17  19
ATOM     18  C   UNL     1      16.628  13.731  30.179  0.00  0.00    +0.000 C 
ATOM     19  C   UNL     1      15.472  12.953  30.756  0.00  0.00    +0.000 C 
ATOM     20  C   UNL     1      14.294  13.823  31.066  0.00  0.00    +0.000 C 
ENDBRANCH  17  19
ENDBRANCH  16  17
ENDBRANCH   1  16
TORSDOF 3
ENDMDL
MODEL 3
REMARK VINA RESULT:      -7.4      3.187      6.724
REMARK  Name = 
REMARK  3 active torsions:
REMARK  status: ('A' for Active; 'I' for Inactive)
REMARK    1  A    between atoms: C_2  and  C_4
REMARK    2  A    between atoms: C_4  and  C_5
REMARK    3  A    between atoms: C_5  and  N_6
REMARK                            x       y       z     vdW  Elec       q    Type
REMARK                         _______ _______ _______ _____ _____    ______ ____
ROOT
ATOM      1  N   UNL     1      17.178  10.356  37.037  0.00  0.00    +0.000 N 
ATOM      2  C   UNL     1      16.261  11.327  37.081  0.00  0.00    +0.000 A 
ATOM      3  N   UNL     1      15.679  11.828  35.956  0.00  0.00    +0.000 NA
ATOM      4  C   UNL     1      16.016  11.353  34.766  0.00  0.00    +0.000 A 
ATOM      5  C   UNL     1      16.958  10.352  34.689  0.00  0.00    +0.000 A 
ATOM      6  N   UNL     1      17.117  10.053  33.371  0.00  0.00    +0.000 NA
ATOM      7  C   UNL     1      16.317  10.821  32.623  0.00  0.00    +0.000 A 
ATOM      8  C   UNL     1      16.069  10.945  31.262  0.00  0.00    +0.000 A 
ATOM      9  C   UNL     1      15.151  11.867  30.802  0.00  0.00    +0.000 A 
ATOM     10  C   UNL     1      14.450  12.693  31.656  0.00  0.00    +0.000 A 
ATOM     11 CL   UNL     1      13.282  13.861  31.037  0.00  0.00    +0.000 Cl
ATOM     12  C   UNL     1      14.696  12.569  33.012  0.00  0.00    +0.000 A 
ATOM     13  C   UNL     1      15.615  11.646  33.476  0.00  0.00    +0.000 A 
ATOM     14  C   UNL     1      17.544   9.851  35.848  0.00  0.00    +0.000 A 
ATOM     15  O   UNL     1      18.408   8.928  35.730  0.00  0.00    +0.000 OA
ENDROOT
BRANCH   1  16
ATOM     16  C   UNL     1      17.790   9.853  38.233  0.00  0.00    +0.000 C 
BRANCH  16  17
ATOM     17  C   UNL     1      18.769  10.724  38.907  0.00  0.00    +0.000 C 
BRANCH  17  19
ATOM     18  C   UNL     1      20.918  10.411  37.777  0.00  0.00    +0.000 C 
ATOM     19  C   UNL     1      19.809  11.383  38.093  0.00  0.00    +0.000 C 
ATOM     20  C   UNL     1      20.322  12.676  38.647  0.00  0.00    +0.000 C 
ENDBRANCH  17  19
ENDBRANCH  16  17
ENDBRANCH   1  16
TORSDOF 3
ENDMDL
MODEL 4
REMARK VINA RESULT:      -6.9      3.279      7.081
REMARK  Name = 
REMARK  3 active torsions:
REMARK  status: ('A' for Active; 'I' for Inactive)
REMARK    1  A    between atoms: C_2  and  C_4
REMARK    2  A    between atoms: C_4  and  C_5
REMARK    3  A    between atoms: C_5  and  N_6
REMARK                            x       y       z     vdW  Elec       q    Type
REMARK                         _______ _______ _______ _____ _____    ______ ____
ROOT
ATOM      1  N   UNL     1      17.696   9.847  36.675  0.00  0.00    +0.000 N 
ATOM      2  C   UNL     1      17.942   9.588  35.388  0.00  0.00    +0.000 A 
ATOM      3  N   UNL     1      17.286  10.226  34.379  0.00  0.00    +0.000 NA
ATOM      4  C   UNL     1      16.368  11.139  34.659  0.00  0.00    +0.000 A 
ATOM      5  C   UNL     1      16.091  11.427  35.977  0.00  0.00    +0.000 A 
ATOM      6  N   UNL     1      15.125  12.385  35.983  0.00  0.00    +0.000 NA
ATOM      7  C   UNL     1      14.786  12.707  34.729  0.00  0.00    +0.000 A 
ATOM      8  C   UNL     1      13.884  13.594  34.155  0.00  0.00    +0.000 A 
ATOM      9  C   UNL     1      13.775  13.686  32.783  0.00  0.00    +0.000 A 
ATOM     10  C   UNL     1      14.542  12.916  31.932  0.00  0.00    +0.000 A 
ATOM     11 CL   UNL     1      14.381  13.056  30.182  0.00  0.00    +0.000 Cl
ATOM     12  C   UNL     1      15.441  12.033  32.505  0.00  0.00    +0.000 A 
ATOM     13  C   UNL     1      15.552  11.938  33.880  0.00  0.00    +0.000 A 
ATOM     14  C   UNL     1      16.771  10.766  36.995  0.00  0.00    +0.000 A 
ATOM     15  O   UNL     1      16.485  11.064  38.196  0.00  0.00    +0.000 OA
ENDROOT
BRANCH   1  16
ATOM     16  C   UNL     1      18.388   9.152  37.722  0.00  0.00    +0.000 C 
BRANCH  16  17
ATOM     17  C   UNL     1      19.785   9.542  37.982  0.00  0.00    +0.000 C 
BRANCH  17  19
ATOM     18  C   UNL     1      19.269  10.096  40.310  0.00  0.00    +0.000 C 
ATOM     19  C   UNL     1      20.065  10.480  39.087  0.00  0.00    +0.000 C 
ATOM     20  C   UNL     1      19.920  11.928  38.741  0.00  0.00    +0.000 C 
ENDBRANCH  17  19
ENDBRANCH  16  17
ENDBRANCH   1  16
TORSDOF 3
ENDMDL
MODEL 5
REMARK VINA RESULT:      -6.4     18.723     20.148
REMARK  Name = 
REMARK  3 active torsions:
REMARK  status: ('A' for Active; 'I' for Inactive)
REMARK    1  A    between atoms: C_2  and  C_4
REMARK    2  A    between atoms: C_4  and  C_5
REMARK    3  A    between atoms: C_5  and  N_6
REMARK                            x       y       z     vdW  Elec       q    Type
REMARK                         _______ _______ _______ _____ _____    ______ ____
ROOT
ATOM      1  N   UNL     1      33.904   3.609  34.714  0.00  0.00    +0.000 N 
ATOM      2  C   UNL     1      34.024   3.138  35.958  0.00  0.00    +0.000 A 
ATOM      3  N   UNL     1      33.985   1.806  36.238  0.00  0.00    +0.000 NA
ATOM      4  C   UNL     1      33.823   0.927  35.260  0.00  0.00    +0.000 A 
ATOM      5  C   UNL     1      33.695   1.383  33.967  0.00  0.00    +0.000 A 
ATOM      6  N   UNL     1      33.542   0.290  33.171  0.00  0.00    +0.000 NA
ATOM      7  C   UNL     1      33.569  -0.826  33.909  0.00  0.00    +0.000 A 
ATOM      8  C   UNL     1      33.464  -2.184  33.636  0.00  0.00    +0.000 A 
ATOM      9  C   UNL     1      33.534  -3.108  34.658  0.00  0.00    +0.000 A 
ATOM     10  C   UNL     1      33.709  -2.734  35.975  0.00  0.00    +0.000 A 
ATOM     11 CL   UNL     1      33.795  -3.938  37.260  0.00  0.00    +0.000 Cl
ATOM     12  C   UNL     1      33.814  -1.381  36.246  0.00  0.00    +0.000 A 
ATOM     13  C   UNL     1      33.744  -0.453  35.224  0.00  0.00    +0.000 A 
ATOM     14  C   UNL     1      33.737   2.748  33.699  0.00  0.00    +0.000 A 
ATOM     15  O   UNL     1      33.616   3.123  32.491  0.00  0.00    +0.000 OA
ENDROOT
BRANCH   1  16
ATOM     16  C   UNL     1      33.933   5.018  34.444  0.00  0.00    +0.000 C 
BRANCH  16  17
ATOM     17  C   UNL     1      33.840   5.928  35.598  0.00  0.00    +0.000 C 
BRANCH  17  19
ATOM     18  C   UNL     1      34.576   8.211  36.086  0.00  0.00    +0.000 C 
ATOM     19  C   UNL     1      35.003   6.773  35.931  0.00  0.00    +0.000 C 
ATOM     20  C   UNL     1      36.179   6.621  35.017  0.00  0.00    +0.000 C 
ENDBRANCH  17  19
ENDBRANCH  16  17
ENDBRANCH   1  16
TORSDOF 3
ENDMDL
MODEL 6
REMARK VINA RESULT:      -6.3     21.461     22.666
REMARK  Name = 
REMARK  3 active torsions:
REMARK  status: ('A' for Active; 'I' for Inactive)
REMARK    1  A    between atoms: C_2  and  C_4
REMARK    2  A    between atoms: C_4  and  C_5
REMARK    3  A    between atoms: C_5  and  N_6
REMARK                            x       y       z     vdW  Elec       q    Type
REMARK                         _______ _______ _______ _____ _____    ______ ____
ROOT
ATOM      1  N   UNL     1      23.519  -7.555  24.131  0.00  0.00    +0.000 N 
ATOM      2  C   UNL     1      23.353  -8.683  24.829  0.00  0.00    +0.000 A 
ATOM      3  N   UNL     1      22.256  -8.902  25.606  0.00  0.00    +0.000 NA
ATOM      4  C   UNL     1      21.307  -7.982  25.688  0.00  0.00    +0.000 A 
ATOM      5  C   UNL     1      21.450  -6.809  24.982  0.00  0.00    +0.000 A 
ATOM      6  N   UNL     1      20.351  -6.049  25.241  0.00  0.00    +0.000 NA
ATOM      7  C   UNL     1      19.530  -6.695  26.076  0.00  0.00    +0.000 A 
ATOM      8  C   UNL     1      18.304  -6.407  26.662  0.00  0.00    +0.000 A 
ATOM      9  C   UNL     1      17.703  -7.319  27.506  0.00  0.00    +0.000 A 
ATOM     10  C   UNL     1      18.283  -8.535  27.803  0.00  0.00    +0.000 A 
ATOM     11 CL   UNL     1      17.491  -9.680  28.886  0.00  0.00    +0.000 Cl
ATOM     12  C   UNL     1      19.504  -8.822  27.219  0.00  0.00    +0.000 A 
ATOM     13  C   UNL     1      20.108  -7.910  26.373  0.00  0.00    +0.000 A 
ATOM     14  C   UNL     1      22.577  -6.601  24.192  0.00  0.00    +0.000 A 
ATOM     15  O   UNL     1      22.667  -5.505  23.557  0.00  0.00    +0.000 OA
ENDROOT
BRANCH   1  16
ATOM     16  C   UNL     1      24.689  -7.339  23.331  0.00  0.00    +0.000 C 
BRANCH  16  17
ATOM     17  C   UNL     1      25.903  -8.091  23.694  0.00  0.00    +0.000 C 
BRANCH  17  19
ATOM     18  C   UNL     1      27.741  -7.670  22.133  0.00  0.00    +0.000 C 
ATOM     19  C   UNL     1      26.725  -8.675  22.615  0.00  0.00    +0.000 C 
ATOM     20  C   UNL     1      25.951  -9.291  21.492  0.00  0.00    +0.000 C 
ENDBRANCH  17  19
ENDBRANCH  16  17
ENDBRANCH   1  16
TORSDOF 3
ENDMDL
MODEL 7
REMARK VINA RESULT:      -6.2     19.208     20.699
REMARK  Name = 
REMARK  3 active torsions:
REMARK  status: ('A' for Active; 'I' for Inactive)
REMARK    1  A    between atoms: C_2  and  C_4
REMARK    2  A    between atoms: C_4  and  C_5
REMARK    3  A    between atoms: C_5  and  N_6
REMARK                            x       y       z     vdW  Elec       q    Type
REMARK                         _______ _______ _______ _____ _____    ______ ____
ROOT
ATOM      1  N   UNL     1      33.832   3.197  35.218  0.00  0.00    +0.000 N 
ATOM      2  C   UNL     1      33.660   2.787  33.958  0.00  0.00    +0.000 A 
ATOM      3  N   UNL     1      33.623   1.468  33.621  0.00  0.00    +0.000 NA
ATOM      4  C   UNL     1      33.760   0.540  34.556  0.00  0.00    +0.000 A 
ATOM      5  C   UNL     1      33.940   0.932  35.864  0.00  0.00    +0.000 A 
ATOM      6  N   UNL     1      34.052  -0.202  36.609  0.00  0.00    +0.000 NA
ATOM      7  C   UNL     1      33.951  -1.281  35.826  0.00  0.00    +0.000 A 
ATOM      8  C   UNL     1      33.990  -2.654  36.037  0.00  0.00    +0.000 A 
ATOM      9  C   UNL     1      33.849  -3.527  34.979  0.00  0.00    +0.000 A 
ATOM     10  C   UNL     1      33.666  -3.087  33.684  0.00  0.00    +0.000 A 
ATOM     11 CL   UNL     1      33.489  -4.227  32.351  0.00  0.00    +0.000 Cl
ATOM     12  C   UNL     1      33.626  -1.720  33.473  0.00  0.00    +0.000 A 
ATOM     13  C   UNL     1      33.767  -0.842  34.532  0.00  0.00    +0.000 A 
ATOM     14  C   UNL     1      33.975   2.284  36.192  0.00  0.00    +0.000 A 
ATOM     15  O   UNL     1      34.142   2.599  37.411  0.00  0.00    +0.000 OA
ENDROOT
BRANCH   1  16
ATOM     16  C   UNL     1      33.883   4.592  35.549  0.00  0.00    +0.000 C 
BRANCH  16  17
ATOM     17  C   UNL     1      34.619   5.477  34.629  0.00  0.00    +0.000 C 
BRANCH  17  19
ATOM     18  C   UNL     1      36.611   5.046  35.984  0.00  0.00    +0.000 C 
ATOM     19  C   UNL     1      35.924   6.017  35.056  0.00  0.00    +0.000 C 
ATOM     20  C   UNL     1      35.884   7.407  35.610  0.00  0.00    +0.000 C 
ENDBRANCH  17  19
ENDBRANCH  16  17
ENDBRANCH   1  16
TORSDOF 3
ENDMDL
MODEL 8
REMARK VINA RESULT:      -6.1     22.009     24.868
REMARK  Name = 
REMARK  3 active torsions:
REMARK  status: ('A' for Active; 'I' for Inactive)
REMARK    1  A    between atoms: C_2  and  C_4
REMARK    2  A    between atoms: C_4  and  C_5
REMARK    3  A    between atoms: C_5  and  N_6
REMARK                            x       y       z     vdW  Elec       q    Type
REMARK                         _______ _______ _______ _____ _____    ______ ____
ROOT
ATOM      1  N   UNL     1      28.774  27.924  19.354  0.00  0.00    +0.000 N 
ATOM      2  C   UNL     1      27.704  28.167  20.116  0.00  0.00    +0.000 A 
ATOM      3  N   UNL     1      27.336  27.343  21.137  0.00  0.00    +0.000 NA
ATOM      4  C   UNL     1      28.047  26.258  21.402  0.00  0.00    +0.000 A 
ATOM      5  C   UNL     1      29.154  25.980  20.633  0.00  0.00    +0.000 A 
ATOM      6  N   UNL     1      29.693  24.825  21.110  0.00  0.00    +0.000 NA
ATOM      7  C   UNL     1      28.973  24.371  22.142  0.00  0.00    +0.000 A 
ATOM      8  C   UNL     1      29.055  23.271  22.987  0.00  0.00    +0.000 A 
ATOM      9  C   UNL     1      28.121  23.087  23.985  0.00  0.00    +0.000 A 
ATOM     10  C   UNL     1      27.080  23.970  24.187  0.00  0.00    +0.000 A 
ATOM     11 CL   UNL     1      25.900  23.708  25.471  0.00  0.00    +0.000 Cl
ATOM     12  C   UNL     1      26.998  25.065  23.346  0.00  0.00    +0.000 A 
ATOM     13  C   UNL     1      27.933  25.253  22.344  0.00  0.00    +0.000 A 
ATOM     14  C   UNL     1      29.517  26.832  19.594  0.00  0.00    +0.000 A 
ATOM     15  O   UNL     1      30.546  26.537  18.911  0.00  0.00    +0.000 OA
ENDROOT
BRANCH   1  16
ATOM     16  C   UNL     1      29.134  28.797  18.274  0.00  0.00    +0.000 C 
BRANCH  16  17
ATOM     17  C   UNL     1      28.489  28.560  16.971  0.00  0.00    +0.000 C 
BRANCH  17  19
ATOM     18  C   UNL     1      29.067  26.701  15.487  0.00  0.00    +0.000 C 
ATOM     19  C   UNL     1      29.327  28.148  15.828  0.00  0.00    +0.000 C 
ATOM     20  C   UNL     1      30.786  28.448  15.972  0.00  0.00    +0.000 C 
ENDBRANCH  17  19
ENDBRANCH  16  17
ENDBRANCH   1  16
TORSDOF 3
ENDMDL
MODEL 9
REMARK VINA RESULT:      -6.0     22.328     25.598
REMARK  Name = 
REMARK  3 active torsions:
REMARK  status: ('A' for Active; 'I' for Inactive)
REMARK    1  A    between atoms: C_2  and  C_4
REMARK    2  A    between atoms: C_4  and  C_5
REMARK    3  A    between atoms: C_5  and  N_6
REMARK                            x       y       z     vdW  Elec       q    Type
REMARK                         _______ _______ _______ _____ _____    ______ ____
ROOT
ATOM      1  N   UNL     1      28.672  24.809  22.876  0.00  0.00    +0.000 N 
ATOM      2  C   UNL     1      29.137  24.194  21.785  0.00  0.00    +0.000 A 
ATOM      3  N   UNL     1      29.545  24.880  20.681  0.00  0.00    +0.000 NA
ATOM      4  C   UNL     1      29.488  26.203  20.665  0.00  0.00    +0.000 A 
ATOM      5  C   UNL     1      29.013  26.866  21.774  0.00  0.00    +0.000 A 
ATOM      6  N   UNL     1      29.060  28.197  21.496  0.00  0.00    +0.000 NA
ATOM      7  C   UNL     1      29.542  28.395  20.264  0.00  0.00    +0.000 A 
ATOM      8  C   UNL     1      29.802  29.512  19.480  0.00  0.00    +0.000 A 
ATOM      9  C   UNL     1      30.316  29.367  18.208  0.00  0.00    +0.000 A 
ATOM     10  C   UNL     1      30.592  28.129  17.665  0.00  0.00    +0.000 A 
ATOM     11 CL   UNL     1      31.250  27.976  16.036  0.00  0.00    +0.000 Cl
ATOM     12  C   UNL     1      30.334  27.016  18.446  0.00  0.00    +0.000 A 
ATOM     13  C   UNL     1      29.818  27.158  19.721  0.00  0.00    +0.000 A 
ATOM     14  C   UNL     1      28.600  26.149  22.894  0.00  0.00    +0.000 A 
ATOM     15  O   UNL     1      28.170  26.802  23.895  0.00  0.00    +0.000 OA
ENDROOT
BRANCH   1  16
ATOM     16  C   UNL     1      28.234  24.066  24.022  0.00  0.00    +0.000 C 
BRANCH  16  17
ATOM     17  C   UNL     1      29.031  22.888  24.407  0.00  0.00    +0.000 C 
BRANCH  17  19
ATOM     18  C   UNL     1      31.467  23.058  24.572  0.00  0.00    +0.000 C 
ATOM     19  C   UNL     1      30.165  23.070  25.333  0.00  0.00    +0.000 C 
ATOM     20  C   UNL     1      30.180  22.141  26.507  0.00  0.00    +0.000 C 
ENDBRANCH  17  19
ENDBRANCH  16  17
ENDBRANCH   1  16
TORSDOF 3
ENDMDL
MODEL 10
REMARK VINA RESULT:      -6.0     22.141     23.424
REMARK  Name = 
REMARK  3 active torsions:
REMARK  status: ('A' for Active; 'I' for Inactive)
REMARK    1  A    between atoms: C_2  and  C_4
REMARK    2  A    between atoms: C_4  and  C_5
REMARK    3  A    between atoms: C_5  and  N_6
REMARK                            x       y       z     vdW  Elec       q    Type
REMARK                         _______ _______ _______ _____ _____    ______ ____
ROOT
ATOM      1  N   UNL     1      25.047  -8.169  23.676  0.00  0.00    +0.000 N 
ATOM      2  C   UNL     1      24.764  -6.864  23.718  0.00  0.00    +0.000 A 
ATOM      3  N   UNL     1      23.597  -6.390  24.236  0.00  0.00    +0.000 NA
ATOM      4  C   UNL     1      22.695  -7.231  24.719  0.00  0.00    +0.000 A 
ATOM      5  C   UNL     1      22.958  -8.582  24.688  0.00  0.00    +0.000 A 
ATOM      6  N   UNL     1      21.884  -9.212  25.237  0.00  0.00    +0.000 NA
ATOM      7  C   UNL     1      20.963  -8.315  25.609  0.00  0.00    +0.000 A 
ATOM      8  C   UNL     1      19.710  -8.385  26.204  0.00  0.00    +0.000 A 
ATOM      9  C   UNL     1      18.995  -7.234  26.462  0.00  0.00    +0.000 A 
ATOM     10  C   UNL     1      19.481  -5.982  26.145  0.00  0.00    +0.000 A 
ATOM     11 CL   UNL     1      18.543  -4.528  26.486  0.00  0.00    +0.000 Cl
ATOM     12  C   UNL     1      20.730  -5.912  25.553  0.00  0.00    +0.000 A 
ATOM     13  C   UNL     1      21.449  -7.064  25.294  0.00  0.00    +0.000 A 
ATOM     14  C   UNL     1      24.156  -9.051  24.157  0.00  0.00    +0.000 A 
ATOM     15  O   UNL     1      24.357 -10.305  24.149  0.00  0.00    +0.000 OA
ENDROOT
BRANCH   1  16
ATOM     16  C   UNL     1      26.277  -8.648  23.114  0.00  0.00    +0.000 C 
BRANCH  16  17
ATOM     17  C   UNL     1      27.195  -7.645  22.546  0.00  0.00    +0.000 C 
BRANCH  17  19
ATOM     18  C   UNL     1      29.061  -9.136  23.080  0.00  0.00    +0.000 C 
ATOM     19  C   UNL     1      28.549  -8.071  22.142  0.00  0.00    +0.000 C 
ATOM     20  C   UNL     1      29.531  -6.958  21.948  0.00  0.00    +0.000 C 
ENDBRANCH  17  19
ENDBRANCH  16  17
ENDBRANCH   1  16
TORSDOF 3
ENDMDL
