MODEL 1
REMARK VINA RESULT:      -8.1      0.000      0.000
REMARK  Name = 
REMARK  7 active torsions:
REMARK  status: ('A' for Active; 'I' for Inactive)
REMARK    1  A    between atoms: C_2  and  O_3
REMARK    2  A    between atoms: O_3  and  C_4
REMARK    3  A    between atoms: C_7  and  N_8
REMARK    4  A    between atoms: N_8  and  C_9
REMARK    5  A    between atoms: C_10  and  S_11
REMARK    6  A    between atoms: S_11  and  C_12
REMARK    7  A    between atoms: N_21  and  C_22
REMARK                            x       y       z     vdW  Elec       q    Type
REMARK                         _______ _______ _______ _____ _____    ______ ____
ROOT
ATOM      1  C   UNL     1      36.399   4.594  14.843  0.00  0.00    +0.000 C 
ATOM      2  C   UNL     1      37.686   4.320  14.972  0.00  0.00    +0.000 C 
ATOM      3  C   UNL     1      37.874   2.899  15.200  0.00  0.00    +0.000 C 
ATOM      4  O   UNL     1      38.934   2.254  15.370  0.00  0.00    +0.000 OA
ATOM      5  N   UNL     1      36.579   2.296  15.203  0.00  0.00    +0.000 N 
ATOM      6  C   UNL     1      35.653   3.357  14.979  0.00  0.00    +0.000 C 
ATOM      7  O   UNL     1      34.396   3.217  14.914  0.00  0.00    +0.000 OA
ENDROOT
BRANCH   5   8
ATOM      8  C   UNL     1      36.258   0.918  15.390  0.00  0.00    +0.000 A 
ATOM      9  C   UNL     1      35.500   0.495  16.456  0.00  0.00    +0.000 A 
ATOM     10  C   UNL     1      35.229  -0.871  16.571  0.00  0.00    +0.000 A 
ATOM     11  C   UNL     1      35.691  -1.796  15.658  0.00  0.00    +0.000 A 
ATOM     12  C   UNL     1      36.445  -1.351  14.601  0.00  0.00    +0.000 A 
ATOM     13  C   UNL     1      36.726   0.004  14.469  0.00  0.00    +0.000 A 
ENDBRANCH   5   8
BRANCH   1  14
ATOM     14  N   UNL     1      35.852   5.885  14.610  0.00  0.00    +0.000 NA
BRANCH  14  18
ATOM     15  C   UNL     1      34.214   6.946  10.829  0.00  0.00    +0.000 A 
ATOM     16  C   UNL     1      35.459   6.361  10.921  0.00  0.00    +0.000 A 
ATOM     17  C   UNL     1      35.998   6.013  12.165  0.00  0.00    +0.000 A 
ATOM     18  C   UNL     1      35.308   6.241  13.331  0.00  0.00    +0.000 A 
ATOM     19  C   UNL     1      34.062   6.825  13.239  0.00  0.00    +0.000 A 
ATOM     20  C   UNL     1      33.536   7.166  12.010  0.00  0.00    +0.000 A 
BRANCH  15  21
ATOM     21  O   UNL     1      33.635   7.312   9.616  0.00  0.00    +0.000 OA
BRANCH  21  23
ATOM     22  C   UNL     1      33.645   6.315   7.472  0.00  0.00    +0.000 C 
ATOM     23  C   UNL     1      34.321   7.310   8.402  0.00  0.00    +0.000 C 
ENDBRANCH  21  23
ENDBRANCH  15  21
ENDBRANCH  14  18
ENDBRANCH   1  14
BRANCH   2  24
ATOM     24  S   UNL     1      39.001   5.530  14.878  0.00  0.00    +0.000 S 
BRANCH  24  25
ATOM     25  C   UNL     1      39.746   5.808  16.474  0.00  0.00    +0.000 A 
ATOM     26  C   UNL     1      39.052   5.565  17.653  0.00  0.00    +0.000 A 
ATOM     27  C   UNL     1      39.600   5.772  18.895  0.00  0.00    +0.000 A 
ATOM     28  C   UNL     1      40.892   6.240  19.018  0.00  0.00    +0.000 A 
ATOM     29  C   UNL     1      41.492   6.466  20.367  0.00  0.00    +0.000 C 
ATOM     30  C   UNL     1      41.596   6.485  17.858  0.00  0.00    +0.000 A 
ATOM     31  C   UNL     1      41.037   6.275  16.609  0.00  0.00    +0.000 A 
ENDBRANCH  24  25
ENDBRANCH   2  24
TORSDOF 7
ENDMDL
MODEL 2
REMARK VINA RESULT:      -7.7      4.168      8.431
REMARK  Name = 
REMARK  7 active torsions:
REMARK  status: ('A' for Active; 'I' for Inactive)
REMARK    1  A    between atoms: C_2  and  O_3
REMARK    2  A    between atoms: O_3  and  C_4
REMARK    3  A    between atoms: C_7  and  N_8
REMARK    4  A    between atoms: N_8  and  C_9
REMARK    5  A    between atoms: C_10  and  S_11
REMARK    6  A    between atoms: S_11  and  C_12
REMARK    7  A    between atoms: N_21  and  C_22
REMARK                            x       y       z     vdW  Elec       q    Type
REMARK                         _______ _______ _______ _____ _____    ______ ____
ROOT
ATOM      1  C   UNL     1      38.408   2.689  14.310  0.00  0.00    +0.000 C 
ATOM      2  C   UNL     1      37.330   2.330  14.987  0.00  0.00    +0.000 C 
ATOM      3  C   UNL     1      37.137   3.214  16.122  0.00  0.00    +0.000 C 
ATOM      4  O   UNL     1      36.239   3.203  16.995  0.00  0.00    +0.000 OA
ATOM      5  N   UNL     1      38.197   4.171  16.100  0.00  0.00    +0.000 N 
ATOM      6  C   UNL     1      38.995   3.843  14.964  0.00  0.00    +0.000 C 
ATOM      7  O   UNL     1      40.036   4.470  14.607  0.00  0.00    +0.000 OA
ENDROOT
BRANCH   5   8
ATOM      8  C   UNL     1      38.428   5.240  17.015  0.00  0.00    +0.000 A 
ATOM      9  C   UNL     1      38.070   6.533  16.715  0.00  0.00    +0.000 A 
ATOM     10  C   UNL     1      38.330   7.526  17.664  0.00  0.00    +0.000 A 
ATOM     11  C   UNL     1      38.926   7.252  18.877  0.00  0.00    +0.000 A 
ATOM     12  C   UNL     1      39.275   5.954  19.156  0.00  0.00    +0.000 A 
ATOM     13  C   UNL     1      39.025   4.951  18.225  0.00  0.00    +0.000 A 
ENDBRANCH   5   8
BRANCH   1  14
ATOM     14  N   UNL     1      38.897   2.046  13.140  0.00  0.00    +0.000 NA
BRANCH  14  18
ATOM     15  C   UNL     1      40.756  -1.775  13.361  0.00  0.00    +0.000 A 
ATOM     16  C   UNL     1      39.958  -1.438  12.289  0.00  0.00    +0.000 A 
ATOM     17  C   UNL     1      39.346  -0.182  12.217  0.00  0.00    +0.000 A 
ATOM     18  C   UNL     1      39.519   0.755  13.208  0.00  0.00    +0.000 A 
ATOM     19  C   UNL     1      40.317   0.418  14.280  0.00  0.00    +0.000 A 
ATOM     20  C   UNL     1      40.918  -0.822  14.346  0.00  0.00    +0.000 A 
BRANCH  15  21
ATOM     21  O   UNL     1      41.386  -3.012  13.480  0.00  0.00    +0.000 OA
BRANCH  21  23
ATOM     22  C   UNL     1      43.511  -2.822  12.462  0.00  0.00    +0.000 C 
ATOM     23  C   UNL     1      42.187  -3.568  12.484  0.00  0.00    +0.000 C 
ENDBRANCH  21  23
ENDBRANCH  15  21
ENDBRANCH  14  18
ENDBRANCH   1  14
BRANCH   2  24
ATOM     24  S   UNL     1      36.269   0.953  14.562  0.00  0.00    +0.000 S 
BRANCH  24  25
ATOM     25  C   UNL     1      36.922  -0.587  15.177  0.00  0.00    +0.000 A 
ATOM     26  C   UNL     1      37.482  -0.685  16.445  0.00  0.00    +0.000 A 
ATOM     27  C   UNL     1      37.994  -1.858  16.944  0.00  0.00    +0.000 A 
ATOM     28  C   UNL     1      37.969  -3.008  16.184  0.00  0.00    +0.000 A 
ATOM     29  C   UNL     1      38.524  -4.287  16.722  0.00  0.00    +0.000 C 
ATOM     30  C   UNL     1      37.416  -2.930  14.923  0.00  0.00    +0.000 A 
ATOM     31  C   UNL     1      36.902  -1.744  14.426  0.00  0.00    +0.000 A 
ENDBRANCH  24  25
ENDBRANCH   2  24
TORSDOF 7
ENDMDL
MODEL 3
REMARK VINA RESULT:      -7.7      2.460      7.095
REMARK  Name = 
REMARK  7 active torsions:
REMARK  status: ('A' for Active; 'I' for Inactive)
REMARK    1  A    between atoms: C_2  and  O_3
REMARK    2  A    between atoms: O_3  and  C_4
REMARK    3  A    between atoms: C_7  and  N_8
REMARK    4  A    between atoms: N_8  and  C_9
REMARK    5  A    between atoms: C_10  and  S_11
REMARK    6  A    between atoms: S_11  and  C_12
REMARK    7  A    between atoms: N_21  and  C_22
REMARK                            x       y       z     vdW  Elec       q    Type
REMARK                         _______ _______ _______ _____ _____    ______ ____
ROOT
ATOM      1  C   UNL     1      36.361   5.424  13.757  0.00  0.00    +0.000 C 
ATOM      2  C   UNL     1      37.425   5.973  14.319  0.00  0.00    +0.000 C 
ATOM      3  C   UNL     1      37.182   7.382  14.576  0.00  0.00    +0.000 C 
ATOM      4  O   UNL     1      37.937   8.238  15.092  0.00  0.00    +0.000 OA
ATOM      5  N   UNL     1      35.859   7.673  14.124  0.00  0.00    +0.000 N 
ATOM      6  C   UNL     1      35.343   6.447  13.611  0.00  0.00    +0.000 C 
ATOM      7  O   UNL     1      34.186   6.301  13.114  0.00  0.00    +0.000 OA
ENDROOT
BRANCH   5   8
ATOM      8  C   UNL     1      35.177   8.926  14.168  0.00  0.00    +0.000 A 
ATOM      9  C   UNL     1      35.075   9.727  13.056  0.00  0.00    +0.000 A 
ATOM     10  C   UNL     1      34.392  10.940  13.179  0.00  0.00    +0.000 A 
ATOM     11  C   UNL     1      33.823  11.352  14.365  0.00  0.00    +0.000 A 
ATOM     12  C   UNL     1      33.937  10.535  15.463  0.00  0.00    +0.000 A 
ATOM     13  C   UNL     1      34.613   9.324  15.362  0.00  0.00    +0.000 A 
ENDBRANCH   5   8
BRANCH   1  14
ATOM     14  N   UNL     1      36.247   4.061  13.370  0.00  0.00    +0.000 NA
BRANCH  14  18
ATOM     15  C   UNL     1      35.193   1.035  16.169  0.00  0.00    +0.000 A 
ATOM     16  C   UNL     1      34.658   2.302  16.262  0.00  0.00    +0.000 A 
ATOM     17  C   UNL     1      35.005   3.298  15.342  0.00  0.00    +0.000 A 
ATOM     18  C   UNL     1      35.887   3.047  14.319  0.00  0.00    +0.000 A 
ATOM     19  C   UNL     1      36.423   1.780  14.225  0.00  0.00    +0.000 A 
ATOM     20  C   UNL     1      36.077   0.803  15.135  0.00  0.00    +0.000 A 
BRANCH  15  21
ATOM     21  O   UNL     1      34.881   0.010  17.060  0.00  0.00    +0.000 OA
BRANCH  21  23
ATOM     22  C   UNL     1      35.782  -0.321  19.221  0.00  0.00    +0.000 C 
ATOM     23  C   UNL     1      35.840  -0.725  17.756  0.00  0.00    +0.000 C 
ENDBRANCH  21  23
ENDBRANCH  15  21
ENDBRANCH  14  18
ENDBRANCH   1  14
BRANCH   2  24
ATOM     24  S   UNL     1      38.941   5.103  14.703  0.00  0.00    +0.000 S 
BRANCH  24  25
ATOM     25  C   UNL     1      39.511   5.481  16.349  0.00  0.00    +0.000 A 
ATOM     26  C   UNL     1      40.727   6.116  16.570  0.00  0.00    +0.000 A 
ATOM     27  C   UNL     1      41.191   6.418  17.827  0.00  0.00    +0.000 A 
ATOM     28  C   UNL     1      40.448   6.093  18.941  0.00  0.00    +0.000 A 
ATOM     29  C   UNL     1      40.949   6.419  20.310  0.00  0.00    +0.000 C 
ATOM     30  C   UNL     1      39.238   5.463  18.741  0.00  0.00    +0.000 A 
ATOM     31  C   UNL     1      38.775   5.161  17.472  0.00  0.00    +0.000 A 
ENDBRANCH  24  25
ENDBRANCH   2  24
TORSDOF 7
ENDMDL
MODEL 4
REMARK VINA RESULT:      -7.5     23.778     26.847
REMARK  Name = 
REMARK  7 active torsions:
REMARK  status: ('A' for Active; 'I' for Inactive)
REMARK    1  A    between atoms: C_2  and  O_3
REMARK    2  A    between atoms: O_3  and  C_4
REMARK    3  A    between atoms: C_7  and  N_8
REMARK    4  A    between atoms: N_8  and  C_9
REMARK    5  A    between atoms: C_10  and  S_11
REMARK    6  A    between atoms: S_11  and  C_12
REMARK    7  A    between atoms: N_21  and  C_22
REMARK                            x       y       z     vdW  Elec       q    Type
REMARK                         _______ _______ _______ _____ _____    ______ ____
ROOT
ATOM      1  C   UNL     1      29.046  15.515  37.172  0.00  0.00    +0.000 C 
ATOM      2  C   UNL     1      27.982  15.478  37.956  0.00  0.00    +0.000 C 
ATOM      3  C   UNL     1      26.770  15.499  37.156  0.00  0.00    +0.000 C 
ATOM      4  O   UNL     1      25.573  15.477  37.523  0.00  0.00    +0.000 OA
ATOM      5  N   UNL     1      27.169  15.553  35.785  0.00  0.00    +0.000 N 
ATOM      6  C   UNL     1      28.595  15.562  35.793  0.00  0.00    +0.000 C 
ATOM      7  O   UNL     1      29.324  15.606  34.758  0.00  0.00    +0.000 OA
ENDROOT
BRANCH   5   8
ATOM      8  C   UNL     1      26.330  15.590  34.632  0.00  0.00    +0.000 A 
ATOM      9  C   UNL     1      26.030  14.450  33.925  0.00  0.00    +0.000 A 
ATOM     10  C   UNL     1      25.201  14.568  32.805  0.00  0.00    +0.000 A 
ATOM     11  C   UNL     1      24.680  15.777  32.395  0.00  0.00    +0.000 A 
ATOM     12  C   UNL     1      24.992  16.902  33.117  0.00  0.00    +0.000 A 
ATOM     13  C   UNL     1      25.816  16.806  34.233  0.00  0.00    +0.000 A 
ENDBRANCH   5   8
BRANCH   1  14
ATOM     14  N   UNL     1      30.396  15.508  37.616  0.00  0.00    +0.000 NA
BRANCH  14  18
ATOM     15  C   UNL     1      32.893  12.116  37.016  0.00  0.00    +0.000 A 
ATOM     16  C   UNL     1      32.019  12.171  38.081  0.00  0.00    +0.000 A 
ATOM     17  C   UNL     1      31.198  13.287  38.279  0.00  0.00    +0.000 A 
ATOM     18  C   UNL     1      31.235  14.361  37.422  0.00  0.00    +0.000 A 
ATOM     19  C   UNL     1      32.108  14.305  36.357  0.00  0.00    +0.000 A 
ATOM     20  C   UNL     1      32.915  13.203  36.167  0.00  0.00    +0.000 A 
BRANCH  15  21
ATOM     21  O   UNL     1      33.731  11.029  36.776  0.00  0.00    +0.000 OA
BRANCH  21  23
ATOM     22  C   UNL     1      35.521  11.132  38.317  0.00  0.00    +0.000 C 
ATOM     23  C   UNL     1      35.122  11.097  36.850  0.00  0.00    +0.000 C 
ENDBRANCH  21  23
ENDBRANCH  15  21
ENDBRANCH  14  18
ENDBRANCH   1  14
BRANCH   2  24
ATOM     24  S   UNL     1      28.033  15.412  39.743  0.00  0.00    +0.000 S 
BRANCH  24  25
ATOM     25  C   UNL     1      27.881  13.738  40.339  0.00  0.00    +0.000 A 
ATOM     26  C   UNL     1      26.644  13.118  40.458  0.00  0.00    +0.000 A 
ATOM     27  C   UNL     1      26.497  11.831  40.916  0.00  0.00    +0.000 A 
ATOM     28  C   UNL     1      27.602  11.092  41.281  0.00  0.00    +0.000 A 
ATOM     29  C   UNL     1      27.448   9.692  41.779  0.00  0.00    +0.000 C 
ATOM     30  C   UNL     1      28.839  11.691  41.169  0.00  0.00    +0.000 A 
ATOM     31  C   UNL     1      28.979  12.989  40.707  0.00  0.00    +0.000 A 
ENDBRANCH  24  25
ENDBRANCH   2  24
TORSDOF 7
ENDMDL
MODEL 5
REMARK VINA RESULT:      -7.4     24.119     27.346
REMARK  Name = 
REMARK  7 active torsions:
REMARK  status: ('A' for Active; 'I' for Inactive)
REMARK    1  A    between atoms: C_2  and  O_3
REMARK    2  A    between atoms: O_3  and  C_4
REMARK    3  A    between atoms: C_7  and  N_8
REMARK    4  A    between atoms: N_8  and  C_9
REMARK    5  A    between atoms: C_10  and  S_11
REMARK    6  A    between atoms: S_11  and  C_12
REMARK    7  A    between atoms: N_21  and  C_22
REMARK                            x       y       z     vdW  Elec       q    Type
REMARK                         _______ _______ _______ _____ _____    ______ ____
ROOT
ATOM      1  C   UNL     1      27.532  15.542  38.168  0.00  0.00    +0.000 C 
ATOM      2  C   UNL     1      28.624  15.861  37.493  0.00  0.00    +0.000 C 
ATOM      3  C   UNL     1      28.315  15.999  36.081  0.00  0.00    +0.000 C 
ATOM      4  O   UNL     1      29.072  16.289  35.126  0.00  0.00    +0.000 OA
ATOM      5  N   UNL     1      26.919  15.739  35.925  0.00  0.00    +0.000 N 
ATOM      6  C   UNL     1      26.427  15.452  37.233  0.00  0.00    +0.000 C 
ATOM      7  O   UNL     1      25.222  15.169  37.506  0.00  0.00    +0.000 OA
ENDROOT
BRANCH   5   8
ATOM      8  C   UNL     1      26.157  15.756  34.719  0.00  0.00    +0.000 A 
ATOM      9  C   UNL     1      25.526  16.897  34.285  0.00  0.00    +0.000 A 
ATOM     10  C   UNL     1      24.797  16.834  33.093  0.00  0.00    +0.000 A 
ATOM     11  C   UNL     1      24.695  15.677  32.350  0.00  0.00    +0.000 A 
ATOM     12  C   UNL     1      25.334  14.550  32.802  0.00  0.00    +0.000 A 
ATOM     13  C   UNL     1      26.063  14.592  33.985  0.00  0.00    +0.000 A 
ENDBRANCH   5   8
BRANCH   1  14
ATOM     14  N   UNL     1      27.466  15.329  39.572  0.00  0.00    +0.000 NA
BRANCH  14  18
ATOM     15  C   UNL     1      27.642  11.405  41.208  0.00  0.00    +0.000 A 
ATOM     16  C   UNL     1      26.432  12.037  41.016  0.00  0.00    +0.000 A 
ATOM     17  C   UNL     1      26.374  13.328  40.479  0.00  0.00    +0.000 A 
ATOM     18  C   UNL     1      27.516  14.006  40.125  0.00  0.00    +0.000 A 
ATOM     19  C   UNL     1      28.726  13.374  40.317  0.00  0.00    +0.000 A 
ATOM     20  C   UNL     1      28.777  12.101  40.847  0.00  0.00    +0.000 A 
BRANCH  15  21
ATOM     21  O   UNL     1      27.753  10.122  41.741  0.00  0.00    +0.000 OA
BRANCH  21  23
ATOM     22  C   UNL     1      26.936   8.004  42.401  0.00  0.00    +0.000 C 
ATOM     23  C   UNL     1      27.014   9.032  41.284  0.00  0.00    +0.000 C 
ENDBRANCH  21  23
ENDBRANCH  15  21
ENDBRANCH  14  18
ENDBRANCH   1  14
BRANCH   2  24
ATOM     24  S   UNL     1      30.243  16.085  38.220  0.00  0.00    +0.000 S 
BRANCH  24  25
ATOM     25  C   UNL     1      31.310  14.698  37.877  0.00  0.00    +0.000 A 
ATOM     26  C   UNL     1      32.266  14.273  38.790  0.00  0.00    +0.000 A 
ATOM     27  C   UNL     1      33.102  13.209  38.552  0.00  0.00    +0.000 A 
ATOM     28  C   UNL     1      33.018  12.509  37.367  0.00  0.00    +0.000 A 
ATOM     29  C   UNL     1      33.924  11.351  37.103  0.00  0.00    +0.000 C 
ATOM     30  C   UNL     1      32.074  12.917  36.449  0.00  0.00    +0.000 A 
ATOM     31  C   UNL     1      31.235  13.990  36.695  0.00  0.00    +0.000 A 
ENDBRANCH  24  25
ENDBRANCH   2  24
TORSDOF 7
ENDMDL
MODEL 6
REMARK VINA RESULT:      -7.4      3.667      6.600
REMARK  Name = 
REMARK  7 active torsions:
REMARK  status: ('A' for Active; 'I' for Inactive)
REMARK    1  A    between atoms: C_2  and  O_3
REMARK    2  A    between atoms: O_3  and  C_4
REMARK    3  A    between atoms: C_7  and  N_8
REMARK    4  A    between atoms: N_8  and  C_9
REMARK    5  A    between atoms: C_10  and  S_11
REMARK    6  A    between atoms: S_11  and  C_12
REMARK    7  A    between atoms: N_21  and  C_22
REMARK                            x       y       z     vdW  Elec       q    Type
REMARK                         _______ _______ _______ _____ _____    ______ ____
ROOT
ATOM      1  C   UNL     1      37.207  -0.614  15.546  0.00  0.00    +0.000 C 
ATOM      2  C   UNL     1      37.895  -1.112  14.533  0.00  0.00    +0.000 C 
ATOM      3  C   UNL     1      37.442  -2.459  14.235  0.00  0.00    +0.000 C 
ATOM      4  O   UNL     1      37.841  -3.257  13.356  0.00  0.00    +0.000 OA
ATOM      5  N   UNL     1      36.397  -2.768  15.158  0.00  0.00    +0.000 N 
ATOM      6  C   UNL     1      36.248  -1.612  15.980  0.00  0.00    +0.000 C 
ATOM      7  O   UNL     1      35.411  -1.500  16.926  0.00  0.00    +0.000 OA
ENDROOT
BRANCH   5   8
ATOM      8  C   UNL     1      35.645  -3.977  15.255  0.00  0.00    +0.000 A 
ATOM      9  C   UNL     1      34.457  -4.139  14.583  0.00  0.00    +0.000 A 
ATOM     10  C   UNL     1      33.779  -5.353  14.728  0.00  0.00    +0.000 A 
ATOM     11  C   UNL     1      34.259  -6.379  15.514  0.00  0.00    +0.000 A 
ATOM     12  C   UNL     1      35.447  -6.194  16.176  0.00  0.00    +0.000 A 
ATOM     13  C   UNL     1      36.137  -4.995  16.044  0.00  0.00    +0.000 A 
ENDBRANCH   5   8
BRANCH   1  14
ATOM     14  N   UNL     1      37.385   0.681  16.103  0.00  0.00    +0.000 NA
BRANCH  14  18
ATOM     15  C   UNL     1      35.342   4.068  14.536  0.00  0.00    +0.000 A 
ATOM     16  C   UNL     1      34.644   3.001  15.059  0.00  0.00    +0.000 A 
ATOM     17  C   UNL     1      35.316   1.886  15.573  0.00  0.00    +0.000 A 
ATOM     18  C   UNL     1      36.688   1.819  15.576  0.00  0.00    +0.000 A 
ATOM     19  C   UNL     1      37.387   2.886  15.053  0.00  0.00    +0.000 A 
ATOM     20  C   UNL     1      36.719   3.982  14.547  0.00  0.00    +0.000 A 
BRANCH  15  21
ATOM     21  O   UNL     1      34.720   5.200  14.011  0.00  0.00    +0.000 OA
BRANCH  21  23
ATOM     22  C   UNL     1      34.232   6.908  12.451  0.00  0.00    +0.000 C 
ATOM     23  C   UNL     1      35.315   6.038  13.069  0.00  0.00    +0.000 C 
ENDBRANCH  21  23
ENDBRANCH  15  21
ENDBRANCH  14  18
ENDBRANCH   1  14
BRANCH   2  24
ATOM     24  S   UNL     1      39.197  -0.248  13.660  0.00  0.00    +0.000 S 
BRANCH  24  25
ATOM     25  C   UNL     1      38.636   0.347  12.076  0.00  0.00    +0.000 A 
ATOM     26  C   UNL     1      37.339   0.809  11.890  0.00  0.00    +0.000 A 
ATOM     27  C   UNL     1      36.880   1.271  10.681  0.00  0.00    +0.000 A 
ATOM     28  C   UNL     1      37.711   1.293   9.582  0.00  0.00    +0.000 A 
ATOM     29  C   UNL     1      37.216   1.795   8.265  0.00  0.00    +0.000 C 
ATOM     30  C   UNL     1      39.002   0.838   9.747  0.00  0.00    +0.000 A 
ATOM     31  C   UNL     1      39.459   0.373  10.969  0.00  0.00    +0.000 A 
ENDBRANCH  24  25
ENDBRANCH   2  24
TORSDOF 7
ENDMDL
MODEL 7
REMARK VINA RESULT:      -7.4      2.599      7.990
REMARK  Name = 
REMARK  7 active torsions:
REMARK  status: ('A' for Active; 'I' for Inactive)
REMARK    1  A    between atoms: C_2  and  O_3
REMARK    2  A    between atoms: O_3  and  C_4
REMARK    3  A    between atoms: C_7  and  N_8
REMARK    4  A    between atoms: N_8  and  C_9
REMARK    5  A    between atoms: C_10  and  S_11
REMARK    6  A    between atoms: S_11  and  C_12
REMARK    7  A    between atoms: N_21  and  C_22
REMARK                            x       y       z     vdW  Elec       q    Type
REMARK                         _______ _______ _______ _____ _____    ______ ____
ROOT
ATOM      1  C   UNL     1      36.933   4.380  15.520  0.00  0.00    +0.000 C 
ATOM      2  C   UNL     1      37.208   5.459  14.805  0.00  0.00    +0.000 C 
ATOM      3  C   UNL     1      38.262   6.225  15.444  0.00  0.00    +0.000 C 
ATOM      4  O   UNL     1      38.797   7.299  15.081  0.00  0.00    +0.000 OA
ATOM      5  N   UNL     1      38.633   5.527  16.634  0.00  0.00    +0.000 N 
ATOM      6  C   UNL     1      37.800   4.370  16.683  0.00  0.00    +0.000 C 
ATOM      7  O   UNL     1      37.832   3.495  17.599  0.00  0.00    +0.000 OA
ENDROOT
BRANCH   5   8
ATOM      8  C   UNL     1      39.627   5.896  17.589  0.00  0.00    +0.000 A 
ATOM      9  C   UNL     1      40.938   6.084  17.225  0.00  0.00    +0.000 A 
ATOM     10  C   UNL     1      41.853   6.443  18.219  0.00  0.00    +0.000 A 
ATOM     11  C   UNL     1      41.485   6.613  19.536  0.00  0.00    +0.000 A 
ATOM     12  C   UNL     1      40.169   6.420  19.877  0.00  0.00    +0.000 A 
ATOM     13  C   UNL     1      39.243   6.062  18.904  0.00  0.00    +0.000 A 
ENDBRANCH   5   8
BRANCH   1  14
ATOM     14  N   UNL     1      35.954   3.404  15.192  0.00  0.00    +0.000 NA
BRANCH  14  18
ATOM     15  C   UNL     1      36.101  -0.506  16.863  0.00  0.00    +0.000 A 
ATOM     16  C   UNL     1      35.170   0.412  17.296  0.00  0.00    +0.000 A 
ATOM     17  C   UNL     1      35.122   1.699  16.747  0.00  0.00    +0.000 A 
ATOM     18  C   UNL     1      35.998   2.088  15.762  0.00  0.00    +0.000 A 
ATOM     19  C   UNL     1      36.929   1.169  15.329  0.00  0.00    +0.000 A 
ATOM     20  C   UNL     1      36.972  -0.098  15.874  0.00  0.00    +0.000 A 
BRANCH  15  21
ATOM     21  O   UNL     1      36.191  -1.798  17.378  0.00  0.00    +0.000 OA
BRANCH  21  23
ATOM     22  C   UNL     1      37.328  -1.844  19.451  0.00  0.00    +0.000 C 
ATOM     23  C   UNL     1      37.332  -2.302  18.001  0.00  0.00    +0.000 C 
ENDBRANCH  21  23
ENDBRANCH  15  21
ENDBRANCH  14  18
ENDBRANCH   1  14
BRANCH   2  24
ATOM     24  S   UNL     1      36.393   5.904  13.276  0.00  0.00    +0.000 S 
BRANCH  24  25
ATOM     25  C   UNL     1      35.614   7.503  13.394  0.00  0.00    +0.000 A 
ATOM     26  C   UNL     1      34.690   7.790  14.391  0.00  0.00    +0.000 A 
ATOM     27  C   UNL     1      34.073   9.012  14.504  0.00  0.00    +0.000 A 
ATOM     28  C   UNL     1      34.358  10.022  13.610  0.00  0.00    +0.000 A 
ATOM     29  C   UNL     1      33.690  11.353  13.729  0.00  0.00    +0.000 C 
ATOM     30  C   UNL     1      35.273   9.755  12.614  0.00  0.00    +0.000 A 
ATOM     31  C   UNL     1      35.891   8.521  12.505  0.00  0.00    +0.000 A 
ENDBRANCH  24  25
ENDBRANCH   2  24
TORSDOF 7
ENDMDL
MODEL 8
REMARK VINA RESULT:      -7.3      2.027      8.206
REMARK  Name = 
REMARK  7 active torsions:
REMARK  status: ('A' for Active; 'I' for Inactive)
REMARK    1  A    between atoms: C_2  and  O_3
REMARK    2  A    between atoms: O_3  and  C_4
REMARK    3  A    between atoms: C_7  and  N_8
REMARK    4  A    between atoms: N_8  and  C_9
REMARK    5  A    between atoms: C_10  and  S_11
REMARK    6  A    between atoms: S_11  and  C_12
REMARK    7  A    between atoms: N_21  and  C_22
REMARK                            x       y       z     vdW  Elec       q    Type
REMARK                         _______ _______ _______ _____ _____    ______ ____
ROOT
ATOM      1  C   UNL     1      36.687   4.399  14.810  0.00  0.00    +0.000 C 
ATOM      2  C   UNL     1      36.408   5.687  14.701  0.00  0.00    +0.000 C 
ATOM      3  C   UNL     1      37.471   6.480  15.293  0.00  0.00    +0.000 C 
ATOM      4  O   UNL     1      37.576   7.725  15.388  0.00  0.00    +0.000 OA
ATOM      5  N   UNL     1      38.454   5.570  15.787  0.00  0.00    +0.000 N 
ATOM      6  C   UNL     1      37.965   4.264  15.484  0.00  0.00    +0.000 C 
ATOM      7  O   UNL     1      38.563   3.184  15.768  0.00  0.00    +0.000 OA
ENDROOT
BRANCH   5   8
ATOM      8  C   UNL     1      39.679   5.881  16.449  0.00  0.00    +0.000 A 
ATOM      9  C   UNL     1      40.827   6.152  15.745  0.00  0.00    +0.000 A 
ATOM     10  C   UNL     1      41.988   6.449  16.465  0.00  0.00    +0.000 A 
ATOM     11  C   UNL     1      42.015   6.478  17.844  0.00  0.00    +0.000 A 
ATOM     12  C   UNL     1      40.856   6.204  18.526  0.00  0.00    +0.000 A 
ATOM     13  C   UNL     1      39.691   5.907  17.828  0.00  0.00    +0.000 A 
ENDBRANCH   5   8
BRANCH   1  14
ATOM     14  N   UNL     1      35.868   3.337  14.339  0.00  0.00    +0.000 NA
BRANCH  14  18
ATOM     15  C   UNL     1      35.347  -0.227  16.602  0.00  0.00    +0.000 A 
ATOM     16  C   UNL     1      34.816   0.969  17.035  0.00  0.00    +0.000 A 
ATOM     17  C   UNL     1      34.988   2.141  16.291  0.00  0.00    +0.000 A 
ATOM     18  C   UNL     1      35.689   2.140  15.109  0.00  0.00    +0.000 A 
ATOM     19  C   UNL     1      36.220   0.944  14.676  0.00  0.00    +0.000 A 
ATOM     20  C   UNL     1      36.047  -0.209  15.414  0.00  0.00    +0.000 A 
BRANCH  15  21
ATOM     21  O   UNL     1      35.205  -1.422  17.307  0.00  0.00    +0.000 OA
BRANCH  21  23
ATOM     22  C   UNL     1      36.717  -1.191  19.109  0.00  0.00    +0.000 C 
ATOM     23  C   UNL     1      36.259  -2.065  17.953  0.00  0.00    +0.000 C 
ENDBRANCH  21  23
ENDBRANCH  15  21
ENDBRANCH  14  18
ENDBRANCH   1  14
BRANCH   2  24
ATOM     24  S   UNL     1      34.932   6.350  13.937  0.00  0.00    +0.000 S 
BRANCH  24  25
ATOM     25  C   UNL     1      35.081   6.394  12.161  0.00  0.00    +0.000 A 
ATOM     26  C   UNL     1      34.240   7.176  11.380  0.00  0.00    +0.000 A 
ATOM     27  C   UNL     1      34.330   7.228  10.010  0.00  0.00    +0.000 A 
ATOM     28  C   UNL     1      35.284   6.486   9.347  0.00  0.00    +0.000 A 
ATOM     29  C   UNL     1      35.387   6.539   7.857  0.00  0.00    +0.000 C 
ATOM     30  C   UNL     1      36.129   5.704  10.106  0.00  0.00    +0.000 A 
ATOM     31  C   UNL     1      36.032   5.657  11.486  0.00  0.00    +0.000 A 
ENDBRANCH  24  25
ENDBRANCH   2  24
TORSDOF 7
ENDMDL
MODEL 9
REMARK VINA RESULT:      -7.3      2.426      5.915
REMARK  Name = 
REMARK  7 active torsions:
REMARK  status: ('A' for Active; 'I' for Inactive)
REMARK    1  A    between atoms: C_2  and  O_3
REMARK    2  A    between atoms: O_3  and  C_4
REMARK    3  A    between atoms: C_7  and  N_8
REMARK    4  A    between atoms: N_8  and  C_9
REMARK    5  A    between atoms: C_10  and  S_11
REMARK    6  A    between atoms: S_11  and  C_12
REMARK    7  A    between atoms: N_21  and  C_22
REMARK                            x       y       z     vdW  Elec       q    Type
REMARK                         _______ _______ _______ _____ _____    ______ ____
ROOT
ATOM      1  C   UNL     1      38.114   4.475  14.729  0.00  0.00    +0.000 C 
ATOM      2  C   UNL     1      37.673   3.525  15.536  0.00  0.00    +0.000 C 
ATOM      3  C   UNL     1      37.828   3.935  16.920  0.00  0.00    +0.000 C 
ATOM      4  O   UNL     1      37.531   3.319  17.970  0.00  0.00    +0.000 OA
ATOM      5  N   UNL     1      38.410   5.239  16.914  0.00  0.00    +0.000 N 
ATOM      6  C   UNL     1      38.589   5.579  15.540  0.00  0.00    +0.000 C 
ATOM      7  O   UNL     1      39.084   6.669  15.124  0.00  0.00    +0.000 OA
ENDROOT
BRANCH   5   8
ATOM      8  C   UNL     1      38.749   6.050  18.037  0.00  0.00    +0.000 A 
ATOM      9  C   UNL     1      38.010   7.160  18.372  0.00  0.00    +0.000 A 
ATOM     10  C   UNL     1      38.406   7.904  19.487  0.00  0.00    +0.000 A 
ATOM     11  C   UNL     1      39.501   7.563  20.252  0.00  0.00    +0.000 A 
ATOM     12  C   UNL     1      40.224   6.450  19.900  0.00  0.00    +0.000 A 
ATOM     13  C   UNL     1      39.846   5.697  18.794  0.00  0.00    +0.000 A 
ENDBRANCH   5   8
BRANCH   1  14
ATOM     14  N   UNL     1      38.114   4.413  13.309  0.00  0.00    +0.000 NA
BRANCH  14  18
ATOM     15  C   UNL     1      35.175   6.436  10.993  0.00  0.00    +0.000 A 
ATOM     16  C   UNL     1      35.048   6.333  12.361  0.00  0.00    +0.000 A 
ATOM     17  C   UNL     1      36.015   5.667  13.123  0.00  0.00    +0.000 A 
ATOM     18  C   UNL     1      37.118   5.096  12.535  0.00  0.00    +0.000 A 
ATOM     19  C   UNL     1      37.244   5.198  11.166  0.00  0.00    +0.000 A 
ATOM     20  C   UNL     1      36.288   5.856  10.420  0.00  0.00    +0.000 A 
BRANCH  15  21
ATOM     21  O   UNL     1      34.240   7.087  10.190  0.00  0.00    +0.000 OA
BRANCH  21  23
ATOM     22  C   UNL     1      34.779   9.381  10.377  0.00  0.00    +0.000 C 
ATOM     23  C   UNL     1      34.532   8.218   9.429  0.00  0.00    +0.000 C 
ENDBRANCH  21  23
ENDBRANCH  15  21
ENDBRANCH  14  18
ENDBRANCH   1  14
BRANCH   2  24
ATOM     24  S   UNL     1      36.987   1.963  14.996  0.00  0.00    +0.000 S 
BRANCH  24  25
ATOM     25  C   UNL     1      38.245   0.706  14.873  0.00  0.00    +0.000 A 
ATOM     26  C   UNL     1      39.507   0.987  14.364  0.00  0.00    +0.000 A 
ATOM     27  C   UNL     1      40.494   0.039  14.256  0.00  0.00    +0.000 A 
ATOM     28  C   UNL     1      40.261  -1.259  14.661  0.00  0.00    +0.000 A 
ATOM     29  C   UNL     1      41.332  -2.294  14.546  0.00  0.00    +0.000 C 
ATOM     30  C   UNL     1      39.014  -1.556  15.170  0.00  0.00    +0.000 A 
ATOM     31  C   UNL     1      38.024  -0.595  15.275  0.00  0.00    +0.000 A 
ENDBRANCH  24  25
ENDBRANCH   2  24
TORSDOF 7
ENDMDL
MODEL 10
REMARK VINA RESULT:      -7.1      3.644      7.570
REMARK  Name = 
REMARK  7 active torsions:
REMARK  status: ('A' for Active; 'I' for Inactive)
REMARK    1  A    between atoms: C_2  and  O_3
REMARK    2  A    between atoms: O_3  and  C_4
REMARK    3  A    between atoms: C_7  and  N_8
REMARK    4  A    between atoms: N_8  and  C_9
REMARK    5  A    between atoms: C_10  and  S_11
REMARK    6  A    between atoms: S_11  and  C_12
REMARK    7  A    between atoms: N_21  and  C_22
REMARK                            x       y       z     vdW  Elec       q    Type
REMARK                         _______ _______ _______ _____ _____    ______ ____
ROOT
ATOM      1  C   UNL     1      37.971   1.821  14.679  0.00  0.00    +0.000 C 
ATOM      2  C   UNL     1      38.732   1.378  13.692  0.00  0.00    +0.000 C 
ATOM      3  C   UNL     1      38.915  -0.057  13.808  0.00  0.00    +0.000 C 
ATOM      4  O   UNL     1      39.564  -0.838  13.075  0.00  0.00    +0.000 OA
ATOM      5  N   UNL     1      38.195  -0.484  14.965  0.00  0.00    +0.000 N 
ATOM      6  C   UNL     1      37.601   0.692  15.512  0.00  0.00    +0.000 C 
ATOM      7  O   UNL     1      36.878   0.721  16.552  0.00  0.00    +0.000 OA
ENDROOT
BRANCH   5   8
ATOM      8  C   UNL     1      38.080  -1.809  15.484  0.00  0.00    +0.000 A 
ATOM      9  C   UNL     1      38.996  -2.313  16.375  0.00  0.00    +0.000 A 
ATOM     10  C   UNL     1      38.816  -3.620  16.837  0.00  0.00    +0.000 A 
ATOM     11  C   UNL     1      37.760  -4.408  16.432  0.00  0.00    +0.000 A 
ATOM     12  C   UNL     1      36.856  -3.883  15.541  0.00  0.00    +0.000 A 
ATOM     13  C   UNL     1      37.018  -2.585  15.070  0.00  0.00    +0.000 A 
ENDBRANCH   5   8
BRANCH   1  14
ATOM     14  N   UNL     1      37.585   3.174  14.877  0.00  0.00    +0.000 NA
BRANCH  14  18
ATOM     15  C   UNL     1      39.647   5.669  17.638  0.00  0.00    +0.000 A 
ATOM     16  C   UNL     1      38.602   4.871  18.051  0.00  0.00    +0.000 A 
ATOM     17  C   UNL     1      37.923   4.051  17.142  0.00  0.00    +0.000 A 
ATOM     18  C   UNL     1      38.274   4.014  15.814  0.00  0.00    +0.000 A 
ATOM     19  C   UNL     1      39.320   4.812  15.401  0.00  0.00    +0.000 A 
ATOM     20  C   UNL     1      39.985   5.618  16.301  0.00  0.00    +0.000 A 
BRANCH  15  21
ATOM     21  O   UNL     1      40.354   6.503  18.502  0.00  0.00    +0.000 OA
BRANCH  21  23
ATOM     22  C   UNL     1      39.378   7.587  20.363  0.00  0.00    +0.000 C 
ATOM     23  C   UNL     1      40.253   6.437  19.891  0.00  0.00    +0.000 C 
ENDBRANCH  21  23
ENDBRANCH  15  21
ENDBRANCH  14  18
ENDBRANCH   1  14
BRANCH   2  24
ATOM     24  S   UNL     1      39.432   2.405  12.404  0.00  0.00    +0.000 S 
BRANCH  24  25
ATOM     25  C   UNL     1      38.635   2.117  10.836  0.00  0.00    +0.000 A 
ATOM     26  C   UNL     1      39.179   1.256   9.891  0.00  0.00    +0.000 A 
ATOM     27  C   UNL     1      38.588   1.018   8.674  0.00  0.00    +0.000 A 
ATOM     28  C   UNL     1      37.404   1.641   8.340  0.00  0.00    +0.000 A 
ATOM     29  C   UNL     1      36.757   1.385   7.018  0.00  0.00    +0.000 C 
ATOM     30  C   UNL     1      36.850   2.499   9.267  0.00  0.00    +0.000 A 
ATOM     31  C   UNL     1      37.451   2.735  10.491  0.00  0.00    +0.000 A 
ENDBRANCH  24  25
ENDBRANCH   2  24
TORSDOF 7
ENDMDL
