MODEL 1
REMARK VINA RESULT:      -7.3      0.000      0.000
REMARK  Name = 
REMARK  7 active torsions:
REMARK  status: ('A' for Active; 'I' for Inactive)
REMARK    1  A    between atoms: C_5  and  C_6
REMARK    2  A    between atoms: C_6  and  O_7
REMARK    3  A    between atoms: O_7  and  C_8
REMARK    4  A    between atoms: C_11  and  C_12
REMARK    5  A    between atoms: N_14  and  N_15
REMARK    6  A    between atoms: C_16  and  C_17
REMARK    7  A    between atoms: C_20  and  N_21
REMARK                            x       y       z     vdW  Elec       q    Type
REMARK                         _______ _______ _______ _____ _____    ______ ____
ROOT
ATOM      1  C   UNL     1      38.782   4.962  16.272  0.00  0.00    +0.000 A 
ATOM      2  C   UNL     1      37.823   4.368  17.096  0.00  0.00    +0.000 A 
ATOM      3  C   UNL     1      37.271   3.152  16.759  0.00  0.00    +0.000 A 
ATOM      4  C   UNL     1      37.622   2.467  15.618  0.00  0.00    +0.000 A 
ATOM      5  C   UNL     1      38.570   3.058  14.807  0.00  0.00    +0.000 A 
ATOM      6  C   UNL     1      39.128   4.274  15.134  0.00  0.00    +0.000 A 
ENDROOT
BRANCH   4   7
ATOM      7  C   UNL     1      37.021   1.178  15.282  0.00  0.00    +0.000 C 
ATOM      8  O   UNL     1      36.398   1.086  14.194  0.00  0.00    +0.000 OA
ATOM      9  N   UNL     1      37.101   0.045  16.100  0.00  0.00    +0.000 NA
BRANCH   9  10
ATOM     10  N   UNL     1      36.501  -1.156  15.714  0.00  0.00    +0.000 NA
ATOM     11  C   UNL     1      36.335  -2.141  16.498  0.00  0.00    +0.000 C 
BRANCH  11  12
ATOM     12  C   UNL     1      35.717  -3.402  16.135  0.00  0.00    +0.000 A 
ATOM     13  C   UNL     1      36.303  -4.632  16.347  0.00  0.00    +0.000 A 
ATOM     14  C   UNL     1      35.643  -5.789  15.969  0.00  0.00    +0.000 A 
ATOM     15  C   UNL     1      34.397  -5.761  15.377  0.00  0.00    +0.000 A 
ATOM     16  C   UNL     1      33.817  -4.526  15.168  0.00  0.00    +0.000 A 
ATOM     17  C   UNL     1      34.474  -3.376  15.543  0.00  0.00    +0.000 A 
BRANCH  15  18
ATOM     18  N   UNL     1      33.774  -6.983  15.014  0.00  0.00    +0.000 N 
ATOM     19  C   UNL     1      33.932  -7.561  13.698  0.00  0.00    +0.000 C 
ATOM     20  C   UNL     1      32.953  -7.681  15.981  0.00  0.00    +0.000 C 
ENDBRANCH  15  18
ENDBRANCH  11  12
ENDBRANCH   9  10
ENDBRANCH   4   7
BRANCH   1  21
ATOM     21  O   UNL     1      39.299   6.173  16.654  0.00  0.00    +0.000 OA
BRANCH  21  22
ATOM     22  C   UNL     1      40.624   6.578  16.539  0.00  0.00    +0.000 C 
BRANCH  22  27
ATOM     23  C   UNL     1      43.322   6.357  21.648  0.00  0.00    +0.000 C 
ATOM     24  C   UNL     1      42.606   6.414  20.325  0.00  0.00    +0.000 A 
ATOM     25  C   UNL     1      41.239   6.257  20.248  0.00  0.00    +0.000 A 
ATOM     26  C   UNL     1      40.594   6.311  19.032  0.00  0.00    +0.000 A 
ATOM     27  C   UNL     1      41.281   6.519  17.860  0.00  0.00    +0.000 A 
ATOM     28  C   UNL     1      42.644   6.675  17.936  0.00  0.00    +0.000 A 
ATOM     29  C   UNL     1      43.291   6.622  19.150  0.00  0.00    +0.000 A 
ENDBRANCH  22  27
ENDBRANCH  21  22
ENDBRANCH   1  21
TORSDOF 7
ENDMDL
MODEL 2
REMARK VINA RESULT:      -7.1      3.733     11.371
REMARK  Name = 
REMARK  7 active torsions:
REMARK  status: ('A' for Active; 'I' for Inactive)
REMARK    1  A    between atoms: C_5  and  C_6
REMARK    2  A    between atoms: C_6  and  O_7
REMARK    3  A    between atoms: O_7  and  C_8
REMARK    4  A    between atoms: C_11  and  C_12
REMARK    5  A    between atoms: N_14  and  N_15
REMARK    6  A    between atoms: C_16  and  C_17
REMARK    7  A    between atoms: C_20  and  N_21
REMARK                            x       y       z     vdW  Elec       q    Type
REMARK                         _______ _______ _______ _____ _____    ______ ____
ROOT
ATOM      1  C   UNL     1      37.134   0.273  14.295  0.00  0.00    +0.000 A 
ATOM      2  C   UNL     1      36.219   0.954  15.100  0.00  0.00    +0.000 A 
ATOM      3  C   UNL     1      36.545   2.176  15.646  0.00  0.00    +0.000 A 
ATOM      4  C   UNL     1      37.763   2.783  15.436  0.00  0.00    +0.000 A 
ATOM      5  C   UNL     1      38.664   2.106  14.639  0.00  0.00    +0.000 A 
ATOM      6  C   UNL     1      38.348   0.883  14.088  0.00  0.00    +0.000 A 
ENDROOT
BRANCH   4   7
ATOM      7  C   UNL     1      38.086   4.080  16.026  0.00  0.00    +0.000 C 
ATOM      8  O   UNL     1      37.859   5.110  15.342  0.00  0.00    +0.000 OA
ATOM      9  N   UNL     1      38.633   4.239  17.305  0.00  0.00    +0.000 NA
BRANCH   9  10
ATOM     10  N   UNL     1      38.918   5.511  17.805  0.00  0.00    +0.000 NA
ATOM     11  C   UNL     1      39.405   5.719  18.958  0.00  0.00    +0.000 C 
BRANCH  11  12
ATOM     12  C   UNL     1      39.715   7.023  19.513  0.00  0.00    +0.000 A 
ATOM     13  C   UNL     1      40.984   7.559  19.552  0.00  0.00    +0.000 A 
ATOM     14  C   UNL     1      41.192   8.813  20.101  0.00  0.00    +0.000 A 
ATOM     15  C   UNL     1      40.157   9.564  20.622  0.00  0.00    +0.000 A 
ATOM     16  C   UNL     1      38.890   9.021  20.579  0.00  0.00    +0.000 A 
ATOM     17  C   UNL     1      38.683   7.774  20.033  0.00  0.00    +0.000 A 
BRANCH  15  18
ATOM     18  N   UNL     1      40.437  10.843  21.169  0.00  0.00    +0.000 N 
ATOM     19  C   UNL     1      39.430  11.877  21.250  0.00  0.00    +0.000 C 
ATOM     20  C   UNL     1      41.766  11.133  21.665  0.00  0.00    +0.000 C 
ENDBRANCH  15  18
ENDBRANCH  11  12
ENDBRANCH   9  10
ENDBRANCH   4   7
BRANCH   1  21
ATOM     21  O   UNL     1      36.759  -0.940  13.776  0.00  0.00    +0.000 OA
BRANCH  21  22
ATOM     22  C   UNL     1      37.222  -2.188  14.176  0.00  0.00    +0.000 C 
BRANCH  22  27
ATOM     23  C   UNL     1      37.560  -2.348  19.946  0.00  0.00    +0.000 C 
ATOM     24  C   UNL     1      37.488  -2.306  18.443  0.00  0.00    +0.000 A 
ATOM     25  C   UNL     1      38.625  -2.165  17.679  0.00  0.00    +0.000 A 
ATOM     26  C   UNL     1      38.547  -2.128  16.303  0.00  0.00    +0.000 A 
ATOM     27  C   UNL     1      37.343  -2.228  15.647  0.00  0.00    +0.000 A 
ATOM     28  C   UNL     1      36.209  -2.369  16.408  0.00  0.00    +0.000 A 
ATOM     29  C   UNL     1      36.284  -2.406  17.783  0.00  0.00    +0.000 A 
ENDBRANCH  22  27
ENDBRANCH  21  22
ENDBRANCH   1  21
TORSDOF 7
ENDMDL
MODEL 3
REMARK VINA RESULT:      -7.1      4.315     11.630
REMARK  Name = 
REMARK  7 active torsions:
REMARK  status: ('A' for Active; 'I' for Inactive)
REMARK    1  A    between atoms: C_5  and  C_6
REMARK    2  A    between atoms: C_6  and  O_7
REMARK    3  A    between atoms: O_7  and  C_8
REMARK    4  A    between atoms: C_11  and  C_12
REMARK    5  A    between atoms: N_14  and  N_15
REMARK    6  A    between atoms: C_16  and  C_17
REMARK    7  A    between atoms: C_20  and  N_21
REMARK                            x       y       z     vdW  Elec       q    Type
REMARK                         _______ _______ _______ _____ _____    ______ ____
ROOT
ATOM      1  C   UNL     1      37.026   0.260  14.621  0.00  0.00    +0.000 A 
ATOM      2  C   UNL     1      36.215   0.802  15.619  0.00  0.00    +0.000 A 
ATOM      3  C   UNL     1      36.492   2.044  16.145  0.00  0.00    +0.000 A 
ATOM      4  C   UNL     1      37.560   2.807  15.728  0.00  0.00    +0.000 A 
ATOM      5  C   UNL     1      38.359   2.267  14.741  0.00  0.00    +0.000 A 
ATOM      6  C   UNL     1      38.090   1.024  14.208  0.00  0.00    +0.000 A 
ENDROOT
BRANCH   4   7
ATOM      7  C   UNL     1      37.834   4.123  16.301  0.00  0.00    +0.000 C 
ATOM      8  O   UNL     1      37.468   5.134  15.652  0.00  0.00    +0.000 OA
ATOM      9  N   UNL     1      38.479   4.318  17.528  0.00  0.00    +0.000 NA
BRANCH   9  10
ATOM     10  N   UNL     1      38.709   5.607  18.015  0.00  0.00    +0.000 NA
ATOM     11  C   UNL     1      39.373   5.850  19.069  0.00  0.00    +0.000 C 
BRANCH  11  12
ATOM     12  C   UNL     1      39.633   7.173  19.606  0.00  0.00    +0.000 A 
ATOM     13  C   UNL     1      40.876   7.769  19.608  0.00  0.00    +0.000 A 
ATOM     14  C   UNL     1      41.037   9.036  20.143  0.00  0.00    +0.000 A 
ATOM     15  C   UNL     1      39.982   9.742  20.684  0.00  0.00    +0.000 A 
ATOM     16  C   UNL     1      38.741   9.138  20.678  0.00  0.00    +0.000 A 
ATOM     17  C   UNL     1      38.581   7.878  20.147  0.00  0.00    +0.000 A 
BRANCH  15  18
ATOM     18  N   UNL     1      40.213  11.036  21.215  0.00  0.00    +0.000 N 
ATOM     19  C   UNL     1      39.148  12.002  21.369  0.00  0.00    +0.000 C 
ATOM     20  C   UNL     1      41.552  11.415  21.618  0.00  0.00    +0.000 C 
ENDBRANCH  15  18
ENDBRANCH  11  12
ENDBRANCH   9  10
ENDBRANCH   4   7
BRANCH   1  21
ATOM     21  O   UNL     1      36.705  -0.981  14.132  0.00  0.00    +0.000 OA
BRANCH  21  22
ATOM     22  C   UNL     1      37.166  -2.201  14.610  0.00  0.00    +0.000 C 
BRANCH  22  27
ATOM     23  C   UNL     1      42.652  -3.033  12.985  0.00  0.00    +0.000 C 
ATOM     24  C   UNL     1      41.219  -2.820  13.393  0.00  0.00    +0.000 A 
ATOM     25  C   UNL     1      40.200  -2.871  12.469  0.00  0.00    +0.000 A 
ATOM     26  C   UNL     1      38.891  -2.674  12.853  0.00  0.00    +0.000 A 
ATOM     27  C   UNL     1      38.556  -2.422  14.163  0.00  0.00    +0.000 A 
ATOM     28  C   UNL     1      39.572  -2.371  15.085  0.00  0.00    +0.000 A 
ATOM     29  C   UNL     1      40.880  -2.567  14.703  0.00  0.00    +0.000 A 
ENDBRANCH  22  27
ENDBRANCH  21  22
ENDBRANCH   1  21
TORSDOF 7
ENDMDL
MODEL 4
REMARK VINA RESULT:      -7.1      4.806     12.721
REMARK  Name = 
REMARK  7 active torsions:
REMARK  status: ('A' for Active; 'I' for Inactive)
REMARK    1  A    between atoms: C_5  and  C_6
REMARK    2  A    between atoms: C_6  and  O_7
REMARK    3  A    between atoms: O_7  and  C_8
REMARK    4  A    between atoms: C_11  and  C_12
REMARK    5  A    between atoms: N_14  and  N_15
REMARK    6  A    between atoms: C_16  and  C_17
REMARK    7  A    between atoms: C_20  and  N_21
REMARK                            x       y       z     vdW  Elec       q    Type
REMARK                         _______ _______ _______ _____ _____    ______ ____
ROOT
ATOM      1  C   UNL     1      38.532   4.618  16.098  0.00  0.00    +0.000 A 
ATOM      2  C   UNL     1      38.124   4.372  17.410  0.00  0.00    +0.000 A 
ATOM      3  C   UNL     1      38.801   4.936  18.468  0.00  0.00    +0.000 A 
ATOM      4  C   UNL     1      39.894   5.756  18.300  0.00  0.00    +0.000 A 
ATOM      5  C   UNL     1      40.294   5.996  17.000  0.00  0.00    +0.000 A 
ATOM      6  C   UNL     1      39.623   5.437  15.934  0.00  0.00    +0.000 A 
ENDROOT
BRANCH   4   7
ATOM      7  C   UNL     1      40.597   6.343  19.439  0.00  0.00    +0.000 C 
ATOM      8  O   UNL     1      39.906   6.775  20.396  0.00  0.00    +0.000 OA
ATOM      9  N   UNL     1      41.990   6.452  19.522  0.00  0.00    +0.000 NA
BRANCH   9  10
ATOM     10  N   UNL     1      42.594   7.026  20.642  0.00  0.00    +0.000 NA
ATOM     11  C   UNL     1      43.255   6.364  21.500  0.00  0.00    +0.000 C 
BRANCH  11  12
ATOM     12  C   UNL     1      43.895   6.923  22.675  0.00  0.00    +0.000 A 
ATOM     13  C   UNL     1      44.126   8.270  22.856  0.00  0.00    +0.000 A 
ATOM     14  C   UNL     1      44.746   8.720  24.009  0.00  0.00    +0.000 A 
ATOM     15  C   UNL     1      45.151   7.857  25.007  0.00  0.00    +0.000 A 
ATOM     16  C   UNL     1      44.917   6.510  24.819  0.00  0.00    +0.000 A 
ATOM     17  C   UNL     1      44.301   6.063  23.671  0.00  0.00    +0.000 A 
BRANCH  15  18
ATOM     18  N   UNL     1      45.780   8.382  26.165  0.00  0.00    +0.000 N 
ATOM     19  C   UNL     1      45.753   9.793  26.477  0.00  0.00    +0.000 C 
ATOM     20  C   UNL     1      46.474   7.488  27.068  0.00  0.00    +0.000 C 
ENDBRANCH  15  18
ENDBRANCH  11  12
ENDBRANCH   9  10
ENDBRANCH   4   7
BRANCH   1  21
ATOM     21  O   UNL     1      37.823   4.032  15.081  0.00  0.00    +0.000 OA
BRANCH  21  22
ATOM     22  C   UNL     1      36.444   3.872  15.022  0.00  0.00    +0.000 C 
BRANCH  22  27
ATOM     23  C   UNL     1      34.938  -1.422  16.794  0.00  0.00    +0.000 C 
ATOM     24  C   UNL     1      35.339  -0.050  16.321  0.00  0.00    +0.000 A 
ATOM     25  C   UNL     1      36.285   0.115  15.334  0.00  0.00    +0.000 A 
ATOM     26  C   UNL     1      36.645   1.376  14.909  0.00  0.00    +0.000 A 
ATOM     27  C   UNL     1      36.079   2.506  15.449  0.00  0.00    +0.000 A 
ATOM     28  C   UNL     1      35.136   2.343  16.433  0.00  0.00    +0.000 A 
ATOM     29  C   UNL     1      34.775   1.084  16.859  0.00  0.00    +0.000 A 
ENDBRANCH  22  27
ENDBRANCH  21  22
ENDBRANCH   1  21
TORSDOF 7
ENDMDL
MODEL 5
REMARK VINA RESULT:      -6.8      5.261     12.564
REMARK  Name = 
REMARK  7 active torsions:
REMARK  status: ('A' for Active; 'I' for Inactive)
REMARK    1  A    between atoms: C_5  and  C_6
REMARK    2  A    between atoms: C_6  and  O_7
REMARK    3  A    between atoms: O_7  and  C_8
REMARK    4  A    between atoms: C_11  and  C_12
REMARK    5  A    between atoms: N_14  and  N_15
REMARK    6  A    between atoms: C_16  and  C_17
REMARK    7  A    between atoms: C_20  and  N_21
REMARK                            x       y       z     vdW  Elec       q    Type
REMARK                         _______ _______ _______ _____ _____    ______ ____
ROOT
ATOM      1  C   UNL     1      38.718   4.672  16.001  0.00  0.00    +0.000 A 
ATOM      2  C   UNL     1      38.220   4.389  17.275  0.00  0.00    +0.000 A 
ATOM      3  C   UNL     1      38.815   4.933  18.392  0.00  0.00    +0.000 A 
ATOM      4  C   UNL     1      39.908   5.766  18.321  0.00  0.00    +0.000 A 
ATOM      5  C   UNL     1      40.396   6.043  17.060  0.00  0.00    +0.000 A 
ATOM      6  C   UNL     1      39.809   5.504  15.936  0.00  0.00    +0.000 A 
ENDROOT
BRANCH   4   7
ATOM      7  C   UNL     1      40.522   6.331  19.521  0.00  0.00    +0.000 C 
ATOM      8  O   UNL     1      39.765   6.845  20.382  0.00  0.00    +0.000 OA
ATOM      9  N   UNL     1      41.901   6.332  19.763  0.00  0.00    +0.000 NA
BRANCH   9  10
ATOM     10  N   UNL     1      42.418   6.891  20.934  0.00  0.00    +0.000 NA
ATOM     11  C   UNL     1      43.336   6.350  21.624  0.00  0.00    +0.000 C 
BRANCH  11  12
ATOM     12  C   UNL     1      43.898   6.899  22.843  0.00  0.00    +0.000 A 
ATOM     13  C   UNL     1      44.233   6.139  23.943  0.00  0.00    +0.000 A 
ATOM     14  C   UNL     1      44.765   6.745  25.069  0.00  0.00    +0.000 A 
ATOM     15  C   UNL     1      44.979   8.107  25.136  0.00  0.00    +0.000 A 
ATOM     16  C   UNL     1      44.641   8.861  24.031  0.00  0.00    +0.000 A 
ATOM     17  C   UNL     1      44.112   8.258  22.911  0.00  0.00    +0.000 A 
BRANCH  15  18
ATOM     18  N   UNL     1      45.528   8.665  26.319  0.00  0.00    +0.000 N 
ATOM     19  C   UNL     1      45.582   7.926  27.560  0.00  0.00    +0.000 C 
ATOM     20  C   UNL     1      46.052  10.015  26.296  0.00  0.00    +0.000 C 
ENDBRANCH  15  18
ENDBRANCH  11  12
ENDBRANCH   9  10
ENDBRANCH   4   7
BRANCH   1  21
ATOM     21  O   UNL     1      38.088   4.105  14.923  0.00  0.00    +0.000 OA
BRANCH  21  22
ATOM     22  C   UNL     1      38.693   3.391  13.895  0.00  0.00    +0.000 C 
BRANCH  22  27
ATOM     23  C   UNL     1      39.530  -2.118  15.438  0.00  0.00    +0.000 C 
ATOM     24  C   UNL     1      39.298  -0.684  15.043  0.00  0.00    +0.000 A 
ATOM     25  C   UNL     1      38.066  -0.090  15.210  0.00  0.00    +0.000 A 
ATOM     26  C   UNL     1      37.865   1.223  14.844  0.00  0.00    +0.000 A 
ATOM     27  C   UNL     1      38.874   1.983  14.303  0.00  0.00    +0.000 A 
ATOM     28  C   UNL     1      40.102   1.391  14.136  0.00  0.00    +0.000 A 
ATOM     29  C   UNL     1      40.306   0.079  14.501  0.00  0.00    +0.000 A 
ENDBRANCH  22  27
ENDBRANCH  21  22
ENDBRANCH   1  21
TORSDOF 7
ENDMDL
MODEL 6
REMARK VINA RESULT:      -6.8     26.447     29.118
REMARK  Name = 
REMARK  7 active torsions:
REMARK  status: ('A' for Active; 'I' for Inactive)
REMARK    1  A    between atoms: C_5  and  C_6
REMARK    2  A    between atoms: C_6  and  O_7
REMARK    3  A    between atoms: O_7  and  C_8
REMARK    4  A    between atoms: C_11  and  C_12
REMARK    5  A    between atoms: N_14  and  N_15
REMARK    6  A    between atoms: C_16  and  C_17
REMARK    7  A    between atoms: C_20  and  N_21
REMARK                            x       y       z     vdW  Elec       q    Type
REMARK                         _______ _______ _______ _____ _____    ______ ____
ROOT
ATOM      1  C   UNL     1      25.765  16.655  38.358  0.00  0.00    +0.000 A 
ATOM      2  C   UNL     1      24.712  15.747  38.485  0.00  0.00    +0.000 A 
ATOM      3  C   UNL     1      24.807  14.687  39.360  0.00  0.00    +0.000 A 
ATOM      4  C   UNL     1      25.919  14.465  40.142  0.00  0.00    +0.000 A 
ATOM      5  C   UNL     1      26.957  15.366  40.012  0.00  0.00    +0.000 A 
ATOM      6  C   UNL     1      26.872  16.430  39.140  0.00  0.00    +0.000 A 
ENDROOT
BRANCH   4   7
ATOM      7  C   UNL     1      25.996  13.333  41.062  0.00  0.00    +0.000 C 
ATOM      8  O   UNL     1      25.848  13.563  42.289  0.00  0.00    +0.000 OA
ATOM      9  N   UNL     1      26.226  12.014  40.656  0.00  0.00    +0.000 NA
BRANCH   9  10
ATOM     10  N   UNL     1      26.289  10.981  41.593  0.00  0.00    +0.000 NA
ATOM     11  C   UNL     1      27.166  10.063  41.569  0.00  0.00    +0.000 C 
BRANCH  11  12
ATOM     12  C   UNL     1      27.265   8.975  42.523  0.00  0.00    +0.000 A 
ATOM     13  C   UNL     1      28.090   7.883  42.359  0.00  0.00    +0.000 A 
ATOM     14  C   UNL     1      28.122   6.887  43.319  0.00  0.00    +0.000 A 
ATOM     15  C   UNL     1      27.345   6.943  44.459  0.00  0.00    +0.000 A 
ATOM     16  C   UNL     1      26.522   8.039  44.616  0.00  0.00    +0.000 A 
ATOM     17  C   UNL     1      26.490   9.030  43.660  0.00  0.00    +0.000 A 
BRANCH  15  18
ATOM     18  N   UNL     1      27.425   5.890  45.406  0.00  0.00    +0.000 N 
ATOM     19  C   UNL     1      28.409   4.836  45.297  0.00  0.00    +0.000 C 
ATOM     20  C   UNL     1      26.498   5.857  46.518  0.00  0.00    +0.000 C 
ENDBRANCH  15  18
ENDBRANCH  11  12
ENDBRANCH   9  10
ENDBRANCH   4   7
BRANCH   1  21
ATOM     21  O   UNL     1      25.618  17.692  37.473  0.00  0.00    +0.000 OA
BRANCH  21  22
ATOM     22  C   UNL     1      26.454  17.988  36.402  0.00  0.00    +0.000 C 
BRANCH  22  27
ATOM     23  C   UNL     1      25.141  14.590  31.912  0.00  0.00    +0.000 C 
ATOM     24  C   UNL     1      25.495  15.464  33.085  0.00  0.00    +0.000 A 
ATOM     25  C   UNL     1      26.435  15.070  34.011  0.00  0.00    +0.000 A 
ATOM     26  C   UNL     1      26.750  15.878  35.081  0.00  0.00    +0.000 A 
ATOM     27  C   UNL     1      26.144  17.098  35.265  0.00  0.00    +0.000 A 
ATOM     28  C   UNL     1      25.206  17.493  34.343  0.00  0.00    +0.000 A 
ATOM     29  C   UNL     1      24.890  16.686  33.273  0.00  0.00    +0.000 A 
ENDBRANCH  22  27
ENDBRANCH  21  22
ENDBRANCH   1  21
TORSDOF 7
ENDMDL
MODEL 7
REMARK VINA RESULT:      -6.8      8.668     13.516
REMARK  Name = 
REMARK  7 active torsions:
REMARK  status: ('A' for Active; 'I' for Inactive)
REMARK    1  A    between atoms: C_5  and  C_6
REMARK    2  A    between atoms: C_6  and  O_7
REMARK    3  A    between atoms: O_7  and  C_8
REMARK    4  A    between atoms: C_11  and  C_12
REMARK    5  A    between atoms: N_14  and  N_15
REMARK    6  A    between atoms: C_16  and  C_17
REMARK    7  A    between atoms: C_20  and  N_21
REMARK                            x       y       z     vdW  Elec       q    Type
REMARK                         _______ _______ _______ _____ _____    ______ ____
ROOT
ATOM      1  C   UNL     1      44.200   7.432  21.586  0.00  0.00    +0.000 A 
ATOM      2  C   UNL     1      44.278   6.042  21.697  0.00  0.00    +0.000 A 
ATOM      3  C   UNL     1      44.333   5.444  22.937  0.00  0.00    +0.000 A 
ATOM      4  C   UNL     1      44.314   6.163  24.111  0.00  0.00    +0.000 A 
ATOM      5  C   UNL     1      44.236   7.536  23.995  0.00  0.00    +0.000 A 
ATOM      6  C   UNL     1      44.181   8.145  22.760  0.00  0.00    +0.000 A 
ENDROOT
BRANCH   4   7
ATOM      7  C   UNL     1      44.374   5.505  25.414  0.00  0.00    +0.000 C 
ATOM      8  O   UNL     1      45.467   4.994  25.765  0.00  0.00    +0.000 OA
ATOM      9  N   UNL     1      43.285   5.413  26.290  0.00  0.00    +0.000 NA
BRANCH   9  10
ATOM     10  N   UNL     1      43.415   4.767  27.522  0.00  0.00    +0.000 NA
ATOM     11  C   UNL     1      42.449   4.207  28.125  0.00  0.00    +0.000 C 
BRANCH  11  12
ATOM     12  C   UNL     1      42.543   3.528  29.403  0.00  0.00    +0.000 A 
ATOM     13  C   UNL     1      41.590   3.621  30.394  0.00  0.00    +0.000 A 
ATOM     14  C   UNL     1      41.759   2.940  31.587  0.00  0.00    +0.000 A 
ATOM     15  C   UNL     1      42.867   2.154  31.831  0.00  0.00    +0.000 A 
ATOM     16  C   UNL     1      43.818   2.066  30.834  0.00  0.00    +0.000 A 
ATOM     17  C   UNL     1      43.649   2.744  29.648  0.00  0.00    +0.000 A 
BRANCH  15  18
ATOM     18  N   UNL     1      42.981   1.481  33.074  0.00  0.00    +0.000 N 
ATOM     19  C   UNL     1      42.507   0.127  33.257  0.00  0.00    +0.000 C 
ATOM     20  C   UNL     1      43.586   2.159  34.201  0.00  0.00    +0.000 C 
ENDBRANCH  15  18
ENDBRANCH  11  12
ENDBRANCH   9  10
ENDBRANCH   4   7
BRANCH   1  21
ATOM     21  O   UNL     1      44.147   7.975  20.328  0.00  0.00    +0.000 OA
BRANCH  21  22
ATOM     22  C   UNL     1      43.079   8.670  19.772  0.00  0.00    +0.000 C 
BRANCH  22  27
ATOM     23  C   UNL     1      38.856   4.972  18.387  0.00  0.00    +0.000 C 
ATOM     24  C   UNL     1      39.949   5.937  18.762  0.00  0.00    +0.000 A 
ATOM     25  C   UNL     1      39.889   6.662  19.932  0.00  0.00    +0.000 A 
ATOM     26  C   UNL     1      40.895   7.543  20.265  0.00  0.00    +0.000 A 
ATOM     27  C   UNL     1      41.986   7.731  19.450  0.00  0.00    +0.000 A 
ATOM     28  C   UNL     1      42.046   7.010  18.283  0.00  0.00    +0.000 A 
ATOM     29  C   UNL     1      41.042   6.129  17.949  0.00  0.00    +0.000 A 
ENDBRANCH  22  27
ENDBRANCH  21  22
ENDBRANCH   1  21
TORSDOF 7
ENDMDL
MODEL 8
REMARK VINA RESULT:      -6.7      6.767      8.172
REMARK  Name = 
REMARK  7 active torsions:
REMARK  status: ('A' for Active; 'I' for Inactive)
REMARK    1  A    between atoms: C_5  and  C_6
REMARK    2  A    between atoms: C_6  and  O_7
REMARK    3  A    between atoms: O_7  and  C_8
REMARK    4  A    between atoms: C_11  and  C_12
REMARK    5  A    between atoms: N_14  and  N_15
REMARK    6  A    between atoms: C_16  and  C_17
REMARK    7  A    between atoms: C_20  and  N_21
REMARK                            x       y       z     vdW  Elec       q    Type
REMARK                         _______ _______ _______ _____ _____    ______ ____
ROOT
ATOM      1  C   UNL     1      38.497   3.501  15.168  0.00  0.00    +0.000 A 
ATOM      2  C   UNL     1      39.193   2.480  14.517  0.00  0.00    +0.000 A 
ATOM      3  C   UNL     1      38.788   2.043  13.275  0.00  0.00    +0.000 A 
ATOM      4  C   UNL     1      37.699   2.573  12.618  0.00  0.00    +0.000 A 
ATOM      5  C   UNL     1      37.015   3.581  13.266  0.00  0.00    +0.000 A 
ATOM      6  C   UNL     1      37.412   4.026  14.509  0.00  0.00    +0.000 A 
ENDROOT
BRANCH   4   7
ATOM      7  C   UNL     1      37.289   2.092  11.301  0.00  0.00    +0.000 C 
ATOM      8  O   UNL     1      37.039   0.867  11.174  0.00  0.00    +0.000 OA
ATOM      9  N   UNL     1      37.160   2.916  10.177  0.00  0.00    +0.000 NA
BRANCH   9  10
ATOM     10  N   UNL     1      36.763   2.386   8.947  0.00  0.00    +0.000 NA
ATOM     11  C   UNL     1      36.569   3.091   7.909  0.00  0.00    +0.000 C 
BRANCH  11  12
ATOM     12  C   UNL     1      36.158   2.579   6.616  0.00  0.00    +0.000 A 
ATOM     13  C   UNL     1      35.480   3.325   5.675  0.00  0.00    +0.000 A 
ATOM     14  C   UNL     1      35.123   2.757   4.464  0.00  0.00    +0.000 A 
ATOM     15  C   UNL     1      35.425   1.446   4.154  0.00  0.00    +0.000 A 
ATOM     16  C   UNL     1      36.103   0.706   5.100  0.00  0.00    +0.000 A 
ATOM     17  C   UNL     1      36.458   1.271   6.305  0.00  0.00    +0.000 A 
BRANCH  15  18
ATOM     18  N   UNL     1      35.032   0.924   2.895  0.00  0.00    +0.000 N 
ATOM     19  C   UNL     1      34.332   1.727   1.918  0.00  0.00    +0.000 C 
ATOM     20  C   UNL     1      35.334  -0.453   2.566  0.00  0.00    +0.000 C 
ENDBRANCH  15  18
ENDBRANCH  11  12
ENDBRANCH   9  10
ENDBRANCH   4   7
BRANCH   1  21
ATOM     21  O   UNL     1      38.942   3.899  16.402  0.00  0.00    +0.000 OA
BRANCH  21  22
ATOM     22  C   UNL     1      38.515   5.012  17.115  0.00  0.00    +0.000 C 
BRANCH  22  27
ATOM     23  C   UNL     1      42.895   7.357  20.072  0.00  0.00    +0.000 C 
ATOM     24  C   UNL     1      41.764   6.745  19.289  0.00  0.00    +0.000 A 
ATOM     25  C   UNL     1      41.878   6.512  17.937  0.00  0.00    +0.000 A 
ATOM     26  C   UNL     1      40.836   5.953  17.230  0.00  0.00    +0.000 A 
ATOM     27  C   UNL     1      39.653   5.609  17.841  0.00  0.00    +0.000 A 
ATOM     28  C   UNL     1      39.539   5.841  19.190  0.00  0.00    +0.000 A 
ATOM     29  C   UNL     1      40.579   6.400  19.898  0.00  0.00    +0.000 A 
ENDBRANCH  22  27
ENDBRANCH  21  22
ENDBRANCH   1  21
TORSDOF 7
ENDMDL
MODEL 9
REMARK VINA RESULT:      -6.7     27.850     29.231
REMARK  Name = 
REMARK  7 active torsions:
REMARK  status: ('A' for Active; 'I' for Inactive)
REMARK    1  A    between atoms: C_5  and  C_6
REMARK    2  A    between atoms: C_6  and  O_7
REMARK    3  A    between atoms: O_7  and  C_8
REMARK    4  A    between atoms: C_11  and  C_12
REMARK    5  A    between atoms: N_14  and  N_15
REMARK    6  A    between atoms: C_16  and  C_17
REMARK    7  A    between atoms: C_20  and  N_21
REMARK                            x       y       z     vdW  Elec       q    Type
REMARK                         _______ _______ _______ _____ _____    ______ ____
ROOT
ATOM      1  C   UNL     1      25.348  16.191  37.365  0.00  0.00    +0.000 A 
ATOM      2  C   UNL     1      26.644  15.755  37.648  0.00  0.00    +0.000 A 
ATOM      3  C   UNL     1      26.864  14.805  38.620  0.00  0.00    +0.000 A 
ATOM      4  C   UNL     1      25.844  14.242  39.354  0.00  0.00    +0.000 A 
ATOM      5  C   UNL     1      24.565  14.676  39.071  0.00  0.00    +0.000 A 
ATOM      6  C   UNL     1      24.333  15.626  38.100  0.00  0.00    +0.000 A 
ENDROOT
BRANCH   4   7
ATOM      7  C   UNL     1      26.103  13.236  40.382  0.00  0.00    +0.000 C 
ATOM      8  O   UNL     1      25.345  13.212  41.384  0.00  0.00    +0.000 OA
ATOM      9  N   UNL     1      27.143  12.302  40.312  0.00  0.00    +0.000 NA
BRANCH   9  10
ATOM     10  N   UNL     1      27.332  11.368  41.334  0.00  0.00    +0.000 NA
ATOM     11  C   UNL     1      27.925  10.258  41.169  0.00  0.00    +0.000 C 
BRANCH  11  12
ATOM     12  C   UNL     1      28.140   9.264  42.203  0.00  0.00    +0.000 A 
ATOM     13  C   UNL     1      27.480   8.055  42.254  0.00  0.00    +0.000 A 
ATOM     14  C   UNL     1      27.745   7.162  43.278  0.00  0.00    +0.000 A 
ATOM     15  C   UNL     1      28.663   7.439  44.272  0.00  0.00    +0.000 A 
ATOM     16  C   UNL     1      29.319   8.651  44.214  0.00  0.00    +0.000 A 
ATOM     17  C   UNL     1      29.055   9.539  43.195  0.00  0.00    +0.000 A 
BRANCH  15  18
ATOM     18  N   UNL     1      28.889   6.481  45.293  0.00  0.00    +0.000 N 
ATOM     19  C   UNL     1      28.184   5.219  45.328  0.00  0.00    +0.000 C 
ATOM     20  C   UNL     1      29.850   6.764  46.338  0.00  0.00    +0.000 C 
ENDBRANCH  15  18
ENDBRANCH  11  12
ENDBRANCH   9  10
ENDBRANCH   4   7
BRANCH   1  21
ATOM     21  O   UNL     1      25.184  17.138  36.388  0.00  0.00    +0.000 OA
BRANCH  21  22
ATOM     22  C   UNL     1      25.490  16.994  35.039  0.00  0.00    +0.000 C 
BRANCH  22  27
ATOM     23  C   UNL     1      22.794  20.999  31.858  0.00  0.00    +0.000 C 
ATOM     24  C   UNL     1      23.494  19.965  32.699  0.00  0.00    +0.000 A 
ATOM     25  C   UNL     1      23.823  20.219  34.012  0.00  0.00    +0.000 A 
ATOM     26  C   UNL     1      24.464  19.266  34.773  0.00  0.00    +0.000 A 
ATOM     27  C   UNL     1      24.798  18.037  34.256  0.00  0.00    +0.000 A 
ATOM     28  C   UNL     1      24.471  17.783  32.947  0.00  0.00    +0.000 A 
ATOM     29  C   UNL     1      23.830  18.734  32.185  0.00  0.00    +0.000 A 
ENDBRANCH  22  27
ENDBRANCH  21  22
ENDBRANCH   1  21
TORSDOF 7
ENDMDL
MODEL 10
REMARK VINA RESULT:      -6.5      7.117     10.584
REMARK  Name = 
REMARK  7 active torsions:
REMARK  status: ('A' for Active; 'I' for Inactive)
REMARK    1  A    between atoms: C_5  and  C_6
REMARK    2  A    between atoms: C_6  and  O_7
REMARK    3  A    between atoms: O_7  and  C_8
REMARK    4  A    between atoms: C_11  and  C_12
REMARK    5  A    between atoms: N_14  and  N_15
REMARK    6  A    between atoms: C_16  and  C_17
REMARK    7  A    between atoms: C_20  and  N_21
REMARK                            x       y       z     vdW  Elec       q    Type
REMARK                         _______ _______ _______ _____ _____    ______ ____
ROOT
ATOM      1  C   UNL     1      40.082  -1.053  13.723  0.00  0.00    +0.000 A 
ATOM      2  C   UNL     1      39.574   0.232  13.926  0.00  0.00    +0.000 A 
ATOM      3  C   UNL     1      38.944   0.903  12.901  0.00  0.00    +0.000 A 
ATOM      4  C   UNL     1      38.782   0.360  11.646  0.00  0.00    +0.000 A 
ATOM      5  C   UNL     1      39.285  -0.910  11.450  0.00  0.00    +0.000 A 
ATOM      6  C   UNL     1      39.917  -1.590  12.469  0.00  0.00    +0.000 A 
ENDROOT
BRANCH   4   7
ATOM      7  C   UNL     1      38.110   1.092  10.574  0.00  0.00    +0.000 C 
ATOM      8  O   UNL     1      37.064   1.726  10.862  0.00  0.00    +0.000 OA
ATOM      9  N   UNL     1      38.565   1.126   9.251  0.00  0.00    +0.000 NA
BRANCH   9  10
ATOM     10  N   UNL     1      37.871   1.846   8.277  0.00  0.00    +0.000 NA
ATOM     11  C   UNL     1      37.024   1.324   7.488  0.00  0.00    +0.000 C 
BRANCH  11  12
ATOM     12  C   UNL     1      36.283   2.038   6.466  0.00  0.00    +0.000 A 
ATOM     13  C   UNL     1      35.906   1.482   5.262  0.00  0.00    +0.000 A 
ATOM     14  C   UNL     1      35.200   2.235   4.340  0.00  0.00    +0.000 A 
ATOM     15  C   UNL     1      34.852   3.549   4.581  0.00  0.00    +0.000 A 
ATOM     16  C   UNL     1      35.233   4.099   5.787  0.00  0.00    +0.000 A 
ATOM     17  C   UNL     1      35.935   3.349   6.705  0.00  0.00    +0.000 A 
BRANCH  15  18
ATOM     18  N   UNL     1      34.128   4.266   3.594  0.00  0.00    +0.000 N 
ATOM     19  C   UNL     1      33.768   3.673   2.326  0.00  0.00    +0.000 C 
ATOM     20  C   UNL     1      33.732   5.635   3.853  0.00  0.00    +0.000 C 
ENDBRANCH  15  18
ENDBRANCH  11  12
ENDBRANCH   9  10
ENDBRANCH   4   7
BRANCH   1  21
ATOM     21  O   UNL     1      40.699  -1.676  14.776  0.00  0.00    +0.000 OA
BRANCH  21  22
ATOM     22  C   UNL     1      40.271  -2.833  15.417  0.00  0.00    +0.000 C 
BRANCH  22  27
ATOM     23  C   UNL     1      34.781  -2.201  17.117  0.00  0.00    +0.000 C 
ATOM     24  C   UNL     1      36.206  -2.373  16.661  0.00  0.00    +0.000 A 
ATOM     25  C   UNL     1      36.509  -3.093  15.526  0.00  0.00    +0.000 A 
ATOM     26  C   UNL     1      37.816  -3.244  15.119  0.00  0.00    +0.000 A 
ATOM     27  C   UNL     1      38.859  -2.688  15.822  0.00  0.00    +0.000 A 
ATOM     28  C   UNL     1      38.557  -1.970  16.953  0.00  0.00    +0.000 A 
ATOM     29  C   UNL     1      37.251  -1.818  17.362  0.00  0.00    +0.000 A 
ENDBRANCH  22  27
ENDBRANCH  21  22
ENDBRANCH   1  21
TORSDOF 7
ENDMDL
