MODEL 1
REMARK VINA RESULT:      -8.3      0.000      0.000
REMARK  Name = 
REMARK  7 active torsions:
REMARK  status: ('A' for Active; 'I' for Inactive)
REMARK    1  A    between atoms: C_2  and  O_3
REMARK    2  A    between atoms: O_3  and  C_4
REMARK    3  A    between atoms: C_7  and  C_8
REMARK    4  A    between atoms: C_10  and  C_11
REMARK    5  A    between atoms: N_13  and  C_14
REMARK    6  A    between atoms: C_14  and  C_15
REMARK    7  A    between atoms: C_19  and  O_20
REMARK                            x       y       z     vdW  Elec       q    Type
REMARK                         _______ _______ _______ _____ _____    ______ ____
ROOT
ATOM      1  C   UNL     1      38.926   5.530  16.808  0.00  0.00    +0.000 A 
ATOM      2  C   UNL     1      38.183   4.383  17.000  0.00  0.00    +0.000 A 
ATOM      3  C   UNL     1      37.240   4.031  16.059  0.00  0.00    +0.000 A 
ATOM      4  C   UNL     1      37.005   4.793  14.912  0.00  0.00    +0.000 A 
ATOM      5  C   UNL     1      36.053   4.412  13.989  0.00  0.00    +0.000 A 
ATOM      6  C   UNL     1      35.870   5.210  12.872  0.00  0.00    +0.000 A 
ATOM      7  C   UNL     1      36.633   6.348  12.717  0.00  0.00    +0.000 A 
ATOM      8  C   UNL     1      37.578   6.711  13.650  0.00  0.00    +0.000 A 
ATOM      9  C   UNL     1      37.785   5.926  14.784  0.00  0.00    +0.000 A 
ATOM     10  N   UNL     1      38.705   6.266  15.707  0.00  0.00    +0.000 NA
ENDROOT
BRANCH   1  14
ATOM     11  C   UNL     1      41.777   6.708  19.748  0.00  0.00    +0.000 A 
ATOM     12  C   UNL     1      40.485   6.398  20.080  0.00  0.00    +0.000 A 
ATOM     13  C   UNL     1      39.580   6.020  19.115  0.00  0.00    +0.000 A 
ATOM     14  C   UNL     1      39.945   5.943  17.793  0.00  0.00    +0.000 A 
ATOM     15  C   UNL     1      41.233   6.248  17.427  0.00  0.00    +0.000 A 
ATOM     16  C   UNL     1      42.131   6.625  18.408  0.00  0.00    +0.000 A 
BRANCH  11  17
ATOM     17  O   UNL     1      42.690   7.090  20.729  0.00  0.00    +0.000 OA
BRANCH  17  19
ATOM     18  C   UNL     1      44.762   5.998  21.012  0.00  0.00    +0.000 C 
ATOM     19  C   UNL     1      43.333   6.096  21.511  0.00  0.00    +0.000 C 
ENDBRANCH  17  19
ENDBRANCH  11  17
ENDBRANCH   1  14
BRANCH   3  20
ATOM     20  C   UNL     1      36.413   2.830  16.198  0.00  0.00    +0.000 C 
ATOM     21  O   UNL     1      35.236   2.824  16.617  0.00  0.00    +0.000 OA
ATOM     22  N   UNL     1      36.994   1.583  15.831  0.00  0.00    +0.000 NA
BRANCH  22  23
ATOM     23  C   UNL     1      36.321   0.325  15.908  0.00  0.00    +0.000 C 
BRANCH  23  24
ATOM     24  C   UNL     1      37.033  -0.669  16.746  0.00  0.00    +0.000 A 
ATOM     25  C   UNL     1      36.702  -0.749  18.080  0.00  0.00    +0.000 A 
ATOM     26  C   UNL     1      37.321  -1.650  18.930  0.00  0.00    +0.000 A 
ATOM     27  C   UNL     1      38.283  -2.486  18.450  0.00  0.00    +0.000 A 
ATOM     28  C   UNL     1      38.642  -2.430  17.103  0.00  0.00    +0.000 A 
ATOM     29  C   UNL     1      38.007  -1.518  16.270  0.00  0.00    +0.000 A 
BRANCH  28  30
ATOM     30  O   UNL     1      39.619  -3.298  16.674  0.00  0.00    +0.000 OA
ATOM     31  C   UNL     1      40.344  -3.154  15.483  0.00  0.00    +0.000 C 
ENDBRANCH  28  30
ENDBRANCH  23  24
ENDBRANCH  22  23
ENDBRANCH   3  20
TORSDOF 7
ENDMDL
MODEL 2
REMARK VINA RESULT:      -8.2      1.054      1.443
REMARK  Name = 
REMARK  7 active torsions:
REMARK  status: ('A' for Active; 'I' for Inactive)
REMARK    1  A    between atoms: C_2  and  O_3
REMARK    2  A    between atoms: O_3  and  C_4
REMARK    3  A    between atoms: C_7  and  C_8
REMARK    4  A    between atoms: C_10  and  C_11
REMARK    5  A    between atoms: N_13  and  C_14
REMARK    6  A    between atoms: C_14  and  C_15
REMARK    7  A    between atoms: C_19  and  O_20
REMARK                            x       y       z     vdW  Elec       q    Type
REMARK                         _______ _______ _______ _____ _____    ______ ____
ROOT
ATOM      1  C   UNL     1      38.683   5.642  16.838  0.00  0.00    +0.000 A 
ATOM      2  C   UNL     1      38.191   4.355  16.747  0.00  0.00    +0.000 A 
ATOM      3  C   UNL     1      37.242   4.066  15.792  0.00  0.00    +0.000 A 
ATOM      4  C   UNL     1      36.754   5.030  14.906  0.00  0.00    +0.000 A 
ATOM      5  C   UNL     1      35.802   4.707  13.960  0.00  0.00    +0.000 A 
ATOM      6  C   UNL     1      35.360   5.707  13.111  0.00  0.00    +0.000 A 
ATOM      7  C   UNL     1      35.876   6.980  13.233  0.00  0.00    +0.000 A 
ATOM      8  C   UNL     1      36.825   7.282  14.184  0.00  0.00    +0.000 A 
ATOM      9  C   UNL     1      37.289   6.294  15.053  0.00  0.00    +0.000 A 
ATOM     10  N   UNL     1      38.217   6.572  15.989  0.00  0.00    +0.000 NA
ENDROOT
BRANCH   1  14
ATOM     11  C   UNL     1      41.707   6.662  19.661  0.00  0.00    +0.000 A 
ATOM     12  C   UNL     1      41.979   6.546  18.324  0.00  0.00    +0.000 A 
ATOM     13  C   UNL     1      40.987   6.215  17.429  0.00  0.00    +0.000 A 
ATOM     14  C   UNL     1      39.699   5.992  17.849  0.00  0.00    +0.000 A 
ATOM     15  C   UNL     1      39.394   6.100  19.184  0.00  0.00    +0.000 A 
ATOM     16  C   UNL     1      40.401   6.434  20.071  0.00  0.00    +0.000 A 
BRANCH  11  17
ATOM     17  O   UNL     1      42.715   6.998  20.563  0.00  0.00    +0.000 OA
BRANCH  17  19
ATOM     18  C   UNL     1      43.913   6.673  22.569  0.00  0.00    +0.000 C 
ATOM     19  C   UNL     1      43.304   5.984  21.363  0.00  0.00    +0.000 C 
ENDBRANCH  17  19
ENDBRANCH  11  17
ENDBRANCH   1  14
BRANCH   3  20
ATOM     20  C   UNL     1      36.674   2.724  15.640  0.00  0.00    +0.000 C 
ATOM     21  O   UNL     1      37.020   1.903  14.765  0.00  0.00    +0.000 OA
ATOM     22  N   UNL     1      35.656   2.332  16.555  0.00  0.00    +0.000 NA
BRANCH  22  23
ATOM     23  C   UNL     1      35.003   1.061  16.539  0.00  0.00    +0.000 C 
BRANCH  23  24
ATOM     24  C   UNL     1      35.731   0.021  17.303  0.00  0.00    +0.000 A 
ATOM     25  C   UNL     1      35.724   0.100  18.678  0.00  0.00    +0.000 A 
ATOM     26  C   UNL     1      36.380  -0.832  19.463  0.00  0.00    +0.000 A 
ATOM     27  C   UNL     1      37.054  -1.861  18.877  0.00  0.00    +0.000 A 
ATOM     28  C   UNL     1      37.082  -1.970  17.488  0.00  0.00    +0.000 A 
ATOM     29  C   UNL     1      36.416  -1.022  16.720  0.00  0.00    +0.000 A 
BRANCH  28  30
ATOM     30  O   UNL     1      37.778  -3.028  16.951  0.00  0.00    +0.000 OA
ATOM     31  C   UNL     1      39.152  -3.018  16.674  0.00  0.00    +0.000 C 
ENDBRANCH  28  30
ENDBRANCH  23  24
ENDBRANCH  22  23
ENDBRANCH   3  20
TORSDOF 7
ENDMDL
MODEL 3
REMARK VINA RESULT:      -8.0      3.607     10.025
REMARK  Name = 
REMARK  7 active torsions:
REMARK  status: ('A' for Active; 'I' for Inactive)
REMARK    1  A    between atoms: C_2  and  O_3
REMARK    2  A    between atoms: O_3  and  C_4
REMARK    3  A    between atoms: C_7  and  C_8
REMARK    4  A    between atoms: C_10  and  C_11
REMARK    5  A    between atoms: N_13  and  C_14
REMARK    6  A    between atoms: C_14  and  C_15
REMARK    7  A    between atoms: C_19  and  O_20
REMARK                            x       y       z     vdW  Elec       q    Type
REMARK                         _______ _______ _______ _____ _____    ______ ____
ROOT
ATOM      1  C   UNL     1      36.887  -2.531  15.067  0.00  0.00    +0.000 A 
ATOM      2  C   UNL     1      36.421  -1.239  15.214  0.00  0.00    +0.000 A 
ATOM      3  C   UNL     1      37.296  -0.188  15.050  0.00  0.00    +0.000 A 
ATOM      4  C   UNL     1      38.644  -0.379  14.738  0.00  0.00    +0.000 A 
ATOM      5  C   UNL     1      39.495   0.697  14.579  0.00  0.00    +0.000 A 
ATOM      6  C   UNL     1      40.820   0.442  14.268  0.00  0.00    +0.000 A 
ATOM      7  C   UNL     1      41.246  -0.862  14.129  0.00  0.00    +0.000 A 
ATOM      8  C   UNL     1      40.381  -1.922  14.291  0.00  0.00    +0.000 A 
ATOM      9  C   UNL     1      39.042  -1.694  14.603  0.00  0.00    +0.000 A 
ATOM     10  N   UNL     1      38.181  -2.719  14.766  0.00  0.00    +0.000 NA
ENDROOT
BRANCH   1  14
ATOM     11  C   UNL     1      34.370  -5.924  15.619  0.00  0.00    +0.000 A 
ATOM     12  C   UNL     1      35.668  -5.911  16.056  0.00  0.00    +0.000 A 
ATOM     13  C   UNL     1      36.464  -4.804  15.868  0.00  0.00    +0.000 A 
ATOM     14  C   UNL     1      35.982  -3.684  15.237  0.00  0.00    +0.000 A 
ATOM     15  C   UNL     1      34.684  -3.665  14.786  0.00  0.00    +0.000 A 
ATOM     16  C   UNL     1      33.896  -4.785  14.984  0.00  0.00    +0.000 A 
BRANCH  11  17
ATOM     17  O   UNL     1      33.568  -7.047  15.813  0.00  0.00    +0.000 OA
BRANCH  17  19
ATOM     18  C   UNL     1      34.045  -8.678  14.178  0.00  0.00    +0.000 C 
ATOM     19  C   UNL     1      34.126  -8.342  15.654  0.00  0.00    +0.000 C 
ENDBRANCH  17  19
ENDBRANCH  11  17
ENDBRANCH   1  14
BRANCH   3  20
ATOM     20  C   UNL     1      36.873   1.206  15.195  0.00  0.00    +0.000 C 
ATOM     21  O   UNL     1      36.364   1.891  14.282  0.00  0.00    +0.000 OA
ATOM     22  N   UNL     1      37.057   1.823  16.465  0.00  0.00    +0.000 NA
BRANCH  22  23
ATOM     23  C   UNL     1      36.697   3.172  16.767  0.00  0.00    +0.000 C 
BRANCH  23  24
ATOM     24  C   UNL     1      37.867   4.065  16.936  0.00  0.00    +0.000 A 
ATOM     25  C   UNL     1      38.587   4.412  15.814  0.00  0.00    +0.000 A 
ATOM     26  C   UNL     1      39.693   5.241  15.887  0.00  0.00    +0.000 A 
ATOM     27  C   UNL     1      40.092   5.737  17.092  0.00  0.00    +0.000 A 
ATOM     28  C   UNL     1      39.386   5.405  18.247  0.00  0.00    +0.000 A 
ATOM     29  C   UNL     1      38.279   4.571  18.148  0.00  0.00    +0.000 A 
BRANCH  28  30
ATOM     30  O   UNL     1      39.835   5.934  19.435  0.00  0.00    +0.000 OA
ATOM     31  C   UNL     1      39.354   7.118  20.010  0.00  0.00    +0.000 C 
ENDBRANCH  28  30
ENDBRANCH  23  24
ENDBRANCH  22  23
ENDBRANCH   3  20
TORSDOF 7
ENDMDL
MODEL 4
REMARK VINA RESULT:      -8.0      3.103      9.205
REMARK  Name = 
REMARK  7 active torsions:
REMARK  status: ('A' for Active; 'I' for Inactive)
REMARK    1  A    between atoms: C_2  and  O_3
REMARK    2  A    between atoms: O_3  and  C_4
REMARK    3  A    between atoms: C_7  and  C_8
REMARK    4  A    between atoms: C_10  and  C_11
REMARK    5  A    between atoms: N_13  and  C_14
REMARK    6  A    between atoms: C_14  and  C_15
REMARK    7  A    between atoms: C_19  and  O_20
REMARK                            x       y       z     vdW  Elec       q    Type
REMARK                         _______ _______ _______ _____ _____    ______ ____
ROOT
ATOM      1  C   UNL     1      37.297  -0.805  15.495  0.00  0.00    +0.000 A 
ATOM      2  C   UNL     1      37.464   0.544  15.253  0.00  0.00    +0.000 A 
ATOM      3  C   UNL     1      38.689   1.000  14.816  0.00  0.00    +0.000 A 
ATOM      4  C   UNL     1      39.774   0.146  14.607  0.00  0.00    +0.000 A 
ATOM      5  C   UNL     1      40.987   0.635  14.168  0.00  0.00    +0.000 A 
ATOM      6  C   UNL     1      42.024  -0.263  13.978  0.00  0.00    +0.000 A 
ATOM      7  C   UNL     1      41.817  -1.603  14.231  0.00  0.00    +0.000 A 
ATOM      8  C   UNL     1      40.599  -2.071  14.669  0.00  0.00    +0.000 A 
ATOM      9  C   UNL     1      39.537  -1.190  14.867  0.00  0.00    +0.000 A 
ATOM     10  N   UNL     1      38.337  -1.630  15.296  0.00  0.00    +0.000 NA
ENDROOT
BRANCH   1  14
ATOM     11  C   UNL     1      33.575  -2.434  16.778  0.00  0.00    +0.000 A 
ATOM     12  C   UNL     1      34.361  -3.072  15.856  0.00  0.00    +0.000 A 
ATOM     13  C   UNL     1      35.561  -2.529  15.456  0.00  0.00    +0.000 A 
ATOM     14  C   UNL     1      36.002  -1.333  15.966  0.00  0.00    +0.000 A 
ATOM     15  C   UNL     1      35.237  -0.668  16.892  0.00  0.00    +0.000 A 
ATOM     16  C   UNL     1      34.034  -1.227  17.286  0.00  0.00    +0.000 A 
BRANCH  11  17
ATOM     17  O   UNL     1      32.362  -2.989  17.181  0.00  0.00    +0.000 OA
BRANCH  17  19
ATOM     18  C   UNL     1      30.403  -2.980  18.495  0.00  0.00    +0.000 C 
ATOM     19  C   UNL     1      31.316  -2.138  17.624  0.00  0.00    +0.000 C 
ENDBRANCH  17  19
ENDBRANCH  11  17
ENDBRANCH   1  14
BRANCH   3  20
ATOM     20  C   UNL     1      38.938   2.417  14.542  0.00  0.00    +0.000 C 
ATOM     21  O   UNL     1      39.245   2.879  13.423  0.00  0.00    +0.000 OA
ATOM     22  N   UNL     1      38.824   3.328  15.630  0.00  0.00    +0.000 NA
BRANCH  22  23
ATOM     23  C   UNL     1      39.036   4.738  15.527  0.00  0.00    +0.000 C 
BRANCH  23  24
ATOM     24  C   UNL     1      39.611   5.334  16.755  0.00  0.00    +0.000 A 
ATOM     25  C   UNL     1      38.859   5.297  17.908  0.00  0.00    +0.000 A 
ATOM     26  C   UNL     1      39.324   5.832  19.097  0.00  0.00    +0.000 A 
ATOM     27  C   UNL     1      40.556   6.413  19.146  0.00  0.00    +0.000 A 
ATOM     28  C   UNL     1      41.343   6.467  17.996  0.00  0.00    +0.000 A 
ATOM     29  C   UNL     1      40.854   5.923  16.814  0.00  0.00    +0.000 A 
BRANCH  28  30
ATOM     30  O   UNL     1      42.577   7.065  18.103  0.00  0.00    +0.000 OA
ATOM     31  C   UNL     1      43.528   7.118  17.075  0.00  0.00    +0.000 C 
ENDBRANCH  28  30
ENDBRANCH  23  24
ENDBRANCH  22  23
ENDBRANCH   3  20
TORSDOF 7
ENDMDL
MODEL 5
REMARK VINA RESULT:      -8.0      2.670      8.817
REMARK  Name = 
REMARK  7 active torsions:
REMARK  status: ('A' for Active; 'I' for Inactive)
REMARK    1  A    between atoms: C_2  and  O_3
REMARK    2  A    between atoms: O_3  and  C_4
REMARK    3  A    between atoms: C_7  and  C_8
REMARK    4  A    between atoms: C_10  and  C_11
REMARK    5  A    between atoms: N_13  and  C_14
REMARK    6  A    between atoms: C_14  and  C_15
REMARK    7  A    between atoms: C_19  and  O_20
REMARK                            x       y       z     vdW  Elec       q    Type
REMARK                         _______ _______ _______ _____ _____    ______ ____
ROOT
ATOM      1  C   UNL     1      38.763  -1.407  14.688  0.00  0.00    +0.000 A 
ATOM      2  C   UNL     1      38.508  -0.051  14.629  0.00  0.00    +0.000 A 
ATOM      3  C   UNL     1      37.371   0.443  15.229  0.00  0.00    +0.000 A 
ATOM      4  C   UNL     1      36.461  -0.378  15.899  0.00  0.00    +0.000 A 
ATOM      5  C   UNL     1      35.331   0.151  16.491  0.00  0.00    +0.000 A 
ATOM      6  C   UNL     1      34.469  -0.716  17.141  0.00  0.00    +0.000 A 
ATOM      7  C   UNL     1      34.759  -2.063  17.178  0.00  0.00    +0.000 A 
ATOM      8  C   UNL     1      35.892  -2.571  16.582  0.00  0.00    +0.000 A 
ATOM      9  C   UNL     1      36.779  -1.721  15.921  0.00  0.00    +0.000 A 
ATOM     10  N   UNL     1      37.892  -2.200  15.331  0.00  0.00    +0.000 NA
ENDROOT
BRANCH   1  14
ATOM     11  C   UNL     1      42.319  -2.991  12.954  0.00  0.00    +0.000 A 
ATOM     12  C   UNL     1      42.356  -2.163  14.045  0.00  0.00    +0.000 A 
ATOM     13  C   UNL     1      41.195  -1.662  14.590  0.00  0.00    +0.000 A 
ATOM     14  C   UNL     1      39.969  -1.976  14.056  0.00  0.00    +0.000 A 
ATOM     15  C   UNL     1      39.898  -2.804  12.963  0.00  0.00    +0.000 A 
ATOM     16  C   UNL     1      41.073  -3.300  12.427  0.00  0.00    +0.000 A 
BRANCH  11  17
ATOM     17  O   UNL     1      43.496  -3.496  12.407  0.00  0.00    +0.000 OA
BRANCH  17  19
ATOM     18  C   UNL     1      44.298  -4.703  10.546  0.00  0.00    +0.000 C 
ATOM     19  C   UNL     1      43.727  -3.378  11.012  0.00  0.00    +0.000 C 
ENDBRANCH  17  19
ENDBRANCH  11  17
ENDBRANCH   1  14
BRANCH   3  20
ATOM     20  C   UNL     1      37.035   1.869  15.203  0.00  0.00    +0.000 C 
ATOM     21  O   UNL     1      36.311   2.411  14.342  0.00  0.00    +0.000 OA
ATOM     22  N   UNL     1      37.574   2.692  16.233  0.00  0.00    +0.000 NA
BRANCH  22  23
ATOM     23  C   UNL     1      37.341   4.097  16.348  0.00  0.00    +0.000 C 
BRANCH  23  24
ATOM     24  C   UNL     1      38.521   4.847  16.837  0.00  0.00    +0.000 A 
ATOM     25  C   UNL     1      39.479   5.221  15.920  0.00  0.00    +0.000 A 
ATOM     26  C   UNL     1      40.610   5.924  16.297  0.00  0.00    +0.000 A 
ATOM     27  C   UNL     1      40.797   6.262  17.604  0.00  0.00    +0.000 A 
ATOM     28  C   UNL     1      39.848   5.897  18.557  0.00  0.00    +0.000 A 
ATOM     29  C   UNL     1      38.720   5.193  18.155  0.00  0.00    +0.000 A 
BRANCH  28  30
ATOM     30  O   UNL     1      40.089   6.265  19.860  0.00  0.00    +0.000 OA
ATOM     31  C   UNL     1      39.692   7.482  20.430  0.00  0.00    +0.000 C 
ENDBRANCH  28  30
ENDBRANCH  23  24
ENDBRANCH  22  23
ENDBRANCH   3  20
TORSDOF 7
ENDMDL
MODEL 6
REMARK VINA RESULT:      -7.8      2.637      8.282
REMARK  Name = 
REMARK  7 active torsions:
REMARK  status: ('A' for Active; 'I' for Inactive)
REMARK    1  A    between atoms: C_2  and  O_3
REMARK    2  A    between atoms: O_3  and  C_4
REMARK    3  A    between atoms: C_7  and  C_8
REMARK    4  A    between atoms: C_10  and  C_11
REMARK    5  A    between atoms: N_13  and  C_14
REMARK    6  A    between atoms: C_14  and  C_15
REMARK    7  A    between atoms: C_19  and  O_20
REMARK                            x       y       z     vdW  Elec       q    Type
REMARK                         _______ _______ _______ _____ _____    ______ ____
ROOT
ATOM      1  C   UNL     1      39.050  -0.302  14.706  0.00  0.00    +0.000 A 
ATOM      2  C   UNL     1      39.103   1.078  14.689  0.00  0.00    +0.000 A 
ATOM      3  C   UNL     1      38.055   1.795  15.224  0.00  0.00    +0.000 A 
ATOM      4  C   UNL     1      36.935   1.177  15.786  0.00  0.00    +0.000 A 
ATOM      5  C   UNL     1      35.903   1.926  16.314  0.00  0.00    +0.000 A 
ATOM      6  C   UNL     1      34.821   1.254  16.857  0.00  0.00    +0.000 A 
ATOM      7  C   UNL     1      34.806  -0.125  16.855  0.00  0.00    +0.000 A 
ATOM      8  C   UNL     1      35.847  -0.853  16.324  0.00  0.00    +0.000 A 
ATOM      9  C   UNL     1      36.949  -0.203  15.770  0.00  0.00    +0.000 A 
ATOM     10  N   UNL     1      37.976  -0.900  15.245  0.00  0.00    +0.000 NA
ENDROOT
BRANCH   1  14
ATOM     11  C   UNL     1      42.314  -2.533  13.116  0.00  0.00    +0.000 A 
ATOM     12  C   UNL     1      42.498  -1.319  13.723  0.00  0.00    +0.000 A 
ATOM     13  C   UNL     1      41.430  -0.615  14.230  0.00  0.00    +0.000 A 
ATOM     14  C   UNL     1      40.151  -1.106  14.142  0.00  0.00    +0.000 A 
ATOM     15  C   UNL     1      39.932  -2.321  13.538  0.00  0.00    +0.000 A 
ATOM     16  C   UNL     1      41.016  -3.017  13.034  0.00  0.00    +0.000 A 
BRANCH  11  17
ATOM     17  O   UNL     1      43.399  -3.242  12.605  0.00  0.00    +0.000 OA
BRANCH  17  19
ATOM     18  C   UNL     1      45.598  -4.043  12.900  0.00  0.00    +0.000 C 
ATOM     19  C   UNL     1      44.718  -2.807  12.893  0.00  0.00    +0.000 C 
ENDBRANCH  17  19
ENDBRANCH  11  17
ENDBRANCH   1  14
BRANCH   3  20
ATOM     20  C   UNL     1      38.042   3.259  15.238  0.00  0.00    +0.000 C 
ATOM     21  O   UNL     1      37.617   3.973  14.305  0.00  0.00    +0.000 OA
ATOM     22  N   UNL     1      38.551   3.912  16.396  0.00  0.00    +0.000 NA
BRANCH  22  23
ATOM     23  C   UNL     1      38.608   5.330  16.564  0.00  0.00    +0.000 C 
BRANCH  23  24
ATOM     24  C   UNL     1      39.664   5.766  17.507  0.00  0.00    +0.000 A 
ATOM     25  C   UNL     1      39.350   5.837  18.846  0.00  0.00    +0.000 A 
ATOM     26  C   UNL     1      40.280   6.235  19.791  0.00  0.00    +0.000 A 
ATOM     27  C   UNL     1      41.543   6.568  19.403  0.00  0.00    +0.000 A 
ATOM     28  C   UNL     1      41.894   6.507  18.055  0.00  0.00    +0.000 A 
ATOM     29  C   UNL     1      40.943   6.104  17.125  0.00  0.00    +0.000 A 
BRANCH  28  30
ATOM     30  O   UNL     1      43.182   6.854  17.722  0.00  0.00    +0.000 OA
ATOM     31  C   UNL     1      43.697   6.845  16.418  0.00  0.00    +0.000 C 
ENDBRANCH  28  30
ENDBRANCH  23  24
ENDBRANCH  22  23
ENDBRANCH   3  20
TORSDOF 7
ENDMDL
MODEL 7
REMARK VINA RESULT:      -7.8      2.912      8.343
REMARK  Name = 
REMARK  7 active torsions:
REMARK  status: ('A' for Active; 'I' for Inactive)
REMARK    1  A    between atoms: C_2  and  O_3
REMARK    2  A    between atoms: O_3  and  C_4
REMARK    3  A    between atoms: C_7  and  C_8
REMARK    4  A    between atoms: C_10  and  C_11
REMARK    5  A    between atoms: N_13  and  C_14
REMARK    6  A    between atoms: C_14  and  C_15
REMARK    7  A    between atoms: C_19  and  O_20
REMARK                            x       y       z     vdW  Elec       q    Type
REMARK                         _______ _______ _______ _____ _____    ______ ____
ROOT
ATOM      1  C   UNL     1      39.137   0.245  14.766  0.00  0.00    +0.000 A 
ATOM      2  C   UNL     1      39.118   1.625  14.711  0.00  0.00    +0.000 A 
ATOM      3  C   UNL     1      38.013   2.299  15.184  0.00  0.00    +0.000 A 
ATOM      4  C   UNL     1      36.906   1.637  15.720  0.00  0.00    +0.000 A 
ATOM      5  C   UNL     1      35.815   2.344  16.186  0.00  0.00    +0.000 A 
ATOM      6  C   UNL     1      34.749   1.630  16.707  0.00  0.00    +0.000 A 
ATOM      7  C   UNL     1      34.807   0.252  16.745  0.00  0.00    +0.000 A 
ATOM      8  C   UNL     1      35.905  -0.434  16.275  0.00  0.00    +0.000 A 
ATOM      9  C   UNL     1      36.993   0.260  15.746  0.00  0.00    +0.000 A 
ATOM     10  N   UNL     1      38.076  -0.395  15.281  0.00  0.00    +0.000 NA
ENDROOT
BRANCH   1  14
ATOM     11  C   UNL     1      42.541  -1.837  13.272  0.00  0.00    +0.000 A 
ATOM     12  C   UNL     1      42.340  -0.507  13.015  0.00  0.00    +0.000 A 
ATOM     13  C   UNL     1      41.234   0.147  13.507  0.00  0.00    +0.000 A 
ATOM     14  C   UNL     1      40.301  -0.514  14.268  0.00  0.00    +0.000 A 
ATOM     15  C   UNL     1      40.473  -1.848  14.544  0.00  0.00    +0.000 A 
ATOM     16  C   UNL     1      41.591  -2.492  14.043  0.00  0.00    +0.000 A 
BRANCH  11  17
ATOM     17  O   UNL     1      43.664  -2.494  12.772  0.00  0.00    +0.000 OA
BRANCH  17  19
ATOM     18  C   UNL     1      45.604  -3.680  13.399  0.00  0.00    +0.000 C 
ATOM     19  C   UNL     1      44.917  -2.328  13.416  0.00  0.00    +0.000 C 
ENDBRANCH  17  19
ENDBRANCH  11  17
ENDBRANCH   1  14
BRANCH   3  20
ATOM     20  C   UNL     1      37.923   3.760  15.154  0.00  0.00    +0.000 C 
ATOM     21  O   UNL     1      37.460   4.422  14.201  0.00  0.00    +0.000 OA
ATOM     22  N   UNL     1      38.396   4.474  16.292  0.00  0.00    +0.000 NA
BRANCH  22  23
ATOM     23  C   UNL     1      38.377   5.897  16.417  0.00  0.00    +0.000 C 
BRANCH  23  24
ATOM     24  C   UNL     1      38.761   6.370  17.768  0.00  0.00    +0.000 A 
ATOM     25  C   UNL     1      39.854   5.790  18.373  0.00  0.00    +0.000 A 
ATOM     26  C   UNL     1      40.276   6.175  19.634  0.00  0.00    +0.000 A 
ATOM     27  C   UNL     1      39.606   7.152  20.306  0.00  0.00    +0.000 A 
ATOM     28  C   UNL     1      38.495   7.759  19.722  0.00  0.00    +0.000 A 
ATOM     29  C   UNL     1      38.090   7.356  18.456  0.00  0.00    +0.000 A 
BRANCH  28  30
ATOM     30  O   UNL     1      37.857   8.739  20.447  0.00  0.00    +0.000 OA
ATOM     31  C   UNL     1      38.452   9.940  20.857  0.00  0.00    +0.000 C 
ENDBRANCH  28  30
ENDBRANCH  23  24
ENDBRANCH  22  23
ENDBRANCH   3  20
TORSDOF 7
ENDMDL
MODEL 8
REMARK VINA RESULT:      -7.7     25.038     28.256
REMARK  Name = 
REMARK  7 active torsions:
REMARK  status: ('A' for Active; 'I' for Inactive)
REMARK    1  A    between atoms: C_2  and  O_3
REMARK    2  A    between atoms: O_3  and  C_4
REMARK    3  A    between atoms: C_7  and  C_8
REMARK    4  A    between atoms: C_10  and  C_11
REMARK    5  A    between atoms: N_13  and  C_14
REMARK    6  A    between atoms: C_14  and  C_15
REMARK    7  A    between atoms: C_19  and  O_20
REMARK                            x       y       z     vdW  Elec       q    Type
REMARK                         _______ _______ _______ _____ _____    ______ ____
ROOT
ATOM      1  C   UNL     1      10.981  -0.746  25.580  0.00  0.00    +0.000 A 
ATOM      2  C   UNL     1      12.185  -0.840  26.250  0.00  0.00    +0.000 A 
ATOM      3  C   UNL     1      12.706   0.285  26.852  0.00  0.00    +0.000 A 
ATOM      4  C   UNL     1      12.060   1.523  26.811  0.00  0.00    +0.000 A 
ATOM      5  C   UNL     1      12.609   2.630  27.426  0.00  0.00    +0.000 A 
ATOM      6  C   UNL     1      11.918   3.828  27.351  0.00  0.00    +0.000 A 
ATOM      7  C   UNL     1      10.719   3.880  26.673  0.00  0.00    +0.000 A 
ATOM      8  C   UNL     1      10.187   2.763  26.067  0.00  0.00    +0.000 A 
ATOM      9  C   UNL     1      10.861   1.544  26.126  0.00  0.00    +0.000 A 
ATOM     10  N   UNL     1      10.356   0.441  25.538  0.00  0.00    +0.000 NA
ENDROOT
BRANCH   1  14
ATOM     11  C   UNL     1       9.398  -4.203  23.657  0.00  0.00    +0.000 A 
ATOM     12  C   UNL     1      10.746  -4.022  23.817  0.00  0.00    +0.000 A 
ATOM     13  C   UNL     1      11.236  -2.898  24.442  0.00  0.00    +0.000 A 
ATOM     14  C   UNL     1      10.391  -1.927  24.920  0.00  0.00    +0.000 A 
ATOM     15  C   UNL     1       9.034  -2.079  24.774  0.00  0.00    +0.000 A 
ATOM     16  C   UNL     1       8.556  -3.215  24.146  0.00  0.00    +0.000 A 
BRANCH  11  17
ATOM     17  O   UNL     1       8.906  -5.344  23.025  0.00  0.00    +0.000 OA
BRANCH  17  19
ATOM     18  C   UNL     1       9.221  -5.127  20.697  0.00  0.00    +0.000 C 
ATOM     19  C   UNL     1       8.191  -5.215  21.806  0.00  0.00    +0.000 C 
ENDBRANCH  17  19
ENDBRANCH  11  17
ENDBRANCH   1  14
BRANCH   3  20
ATOM     20  C   UNL     1      13.979   0.260  27.576  0.00  0.00    +0.000 C 
ATOM     21  O   UNL     1      14.086   0.188  28.818  0.00  0.00    +0.000 OA
ATOM     22  N   UNL     1      15.175   0.325  26.808  0.00  0.00    +0.000 NA
BRANCH  22  23
ATOM     23  C   UNL     1      16.492   0.312  27.363  0.00  0.00    +0.000 C 
BRANCH  23  24
ATOM     24  C   UNL     1      17.540  -0.032  26.373  0.00  0.00    +0.000 A 
ATOM     25  C   UNL     1      17.902  -1.354  26.244  0.00  0.00    +0.000 A 
ATOM     26  C   UNL     1      18.872  -1.758  25.342  0.00  0.00    +0.000 A 
ATOM     27  C   UNL     1      19.496  -0.836  24.557  0.00  0.00    +0.000 A 
ATOM     28  C   UNL     1      19.154   0.512  24.664  0.00  0.00    +0.000 A 
ATOM     29  C   UNL     1      18.176   0.892  25.575  0.00  0.00    +0.000 A 
BRANCH  28  30
ATOM     30  O   UNL     1      19.815   1.398  23.846  0.00  0.00    +0.000 OA
ATOM     31  C   UNL     1      20.854   1.050  22.971  0.00  0.00    +0.000 C 
ENDBRANCH  28  30
ENDBRANCH  23  24
ENDBRANCH  22  23
ENDBRANCH   3  20
TORSDOF 7
ENDMDL
MODEL 9
REMARK VINA RESULT:      -7.5      3.112      7.525
REMARK  Name = 
REMARK  7 active torsions:
REMARK  status: ('A' for Active; 'I' for Inactive)
REMARK    1  A    between atoms: C_2  and  O_3
REMARK    2  A    between atoms: O_3  and  C_4
REMARK    3  A    between atoms: C_7  and  C_8
REMARK    4  A    between atoms: C_10  and  C_11
REMARK    5  A    between atoms: N_13  and  C_14
REMARK    6  A    between atoms: C_14  and  C_15
REMARK    7  A    between atoms: C_19  and  O_20
REMARK                            x       y       z     vdW  Elec       q    Type
REMARK                         _______ _______ _______ _____ _____    ______ ____
ROOT
ATOM      1  C   UNL     1      38.433   4.918  17.003  0.00  0.00    +0.000 A 
ATOM      2  C   UNL     1      37.930   5.497  15.855  0.00  0.00    +0.000 A 
ATOM      3  C   UNL     1      36.937   4.847  15.156  0.00  0.00    +0.000 A 
ATOM      4  C   UNL     1      36.415   3.618  15.566  0.00  0.00    +0.000 A 
ATOM      5  C   UNL     1      35.419   2.994  14.842  0.00  0.00    +0.000 A 
ATOM      6  C   UNL     1      34.943   1.777  15.302  0.00  0.00    +0.000 A 
ATOM      7  C   UNL     1      35.470   1.232  16.453  0.00  0.00    +0.000 A 
ATOM      8  C   UNL     1      36.464   1.871  17.161  0.00  0.00    +0.000 A 
ATOM      9  C   UNL     1      36.962   3.097  16.722  0.00  0.00    +0.000 A 
ATOM     10  N   UNL     1      37.934   3.737  17.401  0.00  0.00    +0.000 NA
ENDROOT
BRANCH   1  14
ATOM     11  C   UNL     1      41.433   6.827  19.349  0.00  0.00    +0.000 A 
ATOM     12  C   UNL     1      40.222   6.470  19.880  0.00  0.00    +0.000 A 
ATOM     13  C   UNL     1      39.267   5.854  19.104  0.00  0.00    +0.000 A 
ATOM     14  C   UNL     1      39.499   5.581  17.779  0.00  0.00    +0.000 A 
ATOM     15  C   UNL     1      40.703   5.927  17.216  0.00  0.00    +0.000 A 
ATOM     16  C   UNL     1      41.654   6.545  18.009  0.00  0.00    +0.000 A 
BRANCH  11  17
ATOM     17  O   UNL     1      42.397   7.450  20.139  0.00  0.00    +0.000 OA
BRANCH  17  19
ATOM     18  C   UNL     1      43.473   5.807  21.445  0.00  0.00    +0.000 C 
ATOM     19  C   UNL     1      43.655   6.822  20.334  0.00  0.00    +0.000 C 
ENDBRANCH  17  19
ENDBRANCH  11  17
ENDBRANCH   1  14
BRANCH   3  20
ATOM     20  C   UNL     1      36.359   5.401  13.929  0.00  0.00    +0.000 C 
ATOM     21  O   UNL     1      36.848   5.257  12.789  0.00  0.00    +0.000 OA
ATOM     22  N   UNL     1      35.158   6.155  14.048  0.00  0.00    +0.000 NA
BRANCH  22  23
ATOM     23  C   UNL     1      34.472   6.759  12.950  0.00  0.00    +0.000 C 
BRANCH  23  24
ATOM     24  C   UNL     1      34.344   8.230  13.078  0.00  0.00    +0.000 A 
ATOM     25  C   UNL     1      34.448   8.992  11.935  0.00  0.00    +0.000 A 
ATOM     26  C   UNL     1      34.340  10.372  11.970  0.00  0.00    +0.000 A 
ATOM     27  C   UNL     1      34.125  11.008  13.156  0.00  0.00    +0.000 A 
ATOM     28  C   UNL     1      34.016  10.265  14.331  0.00  0.00    +0.000 A 
ATOM     29  C   UNL     1      34.127   8.881  14.271  0.00  0.00    +0.000 A 
BRANCH  28  30
ATOM     30  O   UNL     1      33.799  10.959  15.498  0.00  0.00    +0.000 OA
ATOM     31  C   UNL     1      33.948  12.346  15.639  0.00  0.00    +0.000 C 
ENDBRANCH  28  30
ENDBRANCH  23  24
ENDBRANCH  22  23
ENDBRANCH   3  20
TORSDOF 7
ENDMDL
MODEL 10
REMARK VINA RESULT:      -7.4      3.706      9.042
REMARK  Name = 
REMARK  7 active torsions:
REMARK  status: ('A' for Active; 'I' for Inactive)
REMARK    1  A    between atoms: C_2  and  O_3
REMARK    2  A    between atoms: O_3  and  C_4
REMARK    3  A    between atoms: C_7  and  C_8
REMARK    4  A    between atoms: C_10  and  C_11
REMARK    5  A    between atoms: N_13  and  C_14
REMARK    6  A    between atoms: C_14  and  C_15
REMARK    7  A    between atoms: C_19  and  O_20
REMARK                            x       y       z     vdW  Elec       q    Type
REMARK                         _______ _______ _______ _____ _____    ______ ____
ROOT
ATOM      1  C   UNL     1      37.792  -0.836  13.511  0.00  0.00    +0.000 A 
ATOM      2  C   UNL     1      37.599   0.446  13.985  0.00  0.00    +0.000 A 
ATOM      3  C   UNL     1      36.716   0.650  15.023  0.00  0.00    +0.000 A 
ATOM      4  C   UNL     1      36.005  -0.395  15.618  0.00  0.00    +0.000 A 
ATOM      5  C   UNL     1      35.129  -0.156  16.657  0.00  0.00    +0.000 A 
ATOM      6  C   UNL     1      34.456  -1.235  17.205  0.00  0.00    +0.000 A 
ATOM      7  C   UNL     1      34.677  -2.500  16.703  0.00  0.00    +0.000 A 
ATOM      8  C   UNL     1      35.556  -2.718  15.666  0.00  0.00    +0.000 A 
ATOM      9  C   UNL     1      36.248  -1.650  15.095  0.00  0.00    +0.000 A 
ATOM     10  N   UNL     1      37.112  -1.844  14.079  0.00  0.00    +0.000 NA
ENDROOT
BRANCH   1  14
ATOM     11  C   UNL     1      40.504  -1.712  10.343  0.00  0.00    +0.000 A 
ATOM     12  C   UNL     1      40.155  -2.654  11.274  0.00  0.00    +0.000 A 
ATOM     13  C   UNL     1      39.277  -2.350  12.290  0.00  0.00    +0.000 A 
ATOM     14  C   UNL     1      38.727  -1.097  12.399  0.00  0.00    +0.000 A 
ATOM     15  C   UNL     1      39.056  -0.130  11.481  0.00  0.00    +0.000 A 
ATOM     16  C   UNL     1      39.939  -0.451  10.466  0.00  0.00    +0.000 A 
BRANCH  11  17
ATOM     17  O   UNL     1      41.392  -2.025   9.316  0.00  0.00    +0.000 OA
BRANCH  17  19
ATOM     18  C   UNL     1      40.868  -3.426   7.492  0.00  0.00    +0.000 C 
ATOM     19  C   UNL     1      41.501  -3.368   8.869  0.00  0.00    +0.000 C 
ENDBRANCH  17  19
ENDBRANCH  11  17
ENDBRANCH   1  14
BRANCH   3  20
ATOM     20  C   UNL     1      36.459   1.982  15.575  0.00  0.00    +0.000 C 
ATOM     21  O   UNL     1      35.508   2.718  15.236  0.00  0.00    +0.000 OA
ATOM     22  N   UNL     1      37.358   2.470  16.565  0.00  0.00    +0.000 NA
BRANCH  22  23
ATOM     23  C   UNL     1      37.246   3.746  17.199  0.00  0.00    +0.000 C 
BRANCH  23  24
ATOM     24  C   UNL     1      38.457   4.585  17.044  0.00  0.00    +0.000 A 
ATOM     25  C   UNL     1      39.015   5.135  18.177  0.00  0.00    +0.000 A 
ATOM     26  C   UNL     1      40.147   5.930  18.117  0.00  0.00    +0.000 A 
ATOM     27  C   UNL     1      40.735   6.186  16.915  0.00  0.00    +0.000 A 
ATOM     28  C   UNL     1      40.195   5.646  15.749  0.00  0.00    +0.000 A 
ATOM     29  C   UNL     1      39.059   4.850  15.834  0.00  0.00    +0.000 A 
BRANCH  28  30
ATOM     30  O   UNL     1      40.830   5.937  14.565  0.00  0.00    +0.000 OA
ATOM     31  C   UNL     1      42.220   5.924  14.383  0.00  0.00    +0.000 C 
ENDBRANCH  28  30
ENDBRANCH  23  24
ENDBRANCH  22  23
ENDBRANCH   3  20
TORSDOF 7
ENDMDL
