MODEL 1
REMARK VINA RESULT:      -7.3      0.000      0.000
REMARK  Name = 
REMARK  0 active torsions:
REMARK  status: ('A' for Active; 'I' for Inactive)
REMARK                            x       y       z     vdW  Elec       q    Type
REMARK                         _______ _______ _______ _____ _____    ______ ____
ROOT
ATOM      1  C   UNL     1      26.853  24.203  21.865  0.00  0.00    +0.000 C 
ATOM      2  C   UNL     1      28.240  24.488  22.304  0.00  0.00    +0.000 C 
ATOM      3  C   UNL     1      28.928  23.464  23.076  0.00  0.00    +0.000 C 
ATOM      4  C   UNL     1      28.058  23.091  24.256  0.00  0.00    +0.000 C 
ATOM      5  C   UNL     1      27.964  24.388  25.206  0.00  0.00    +0.000 C 
ATOM      6  C   UNL     1      26.920  25.208  24.174  0.00  0.00    +0.000 C 
ATOM      7  C   UNL     1      26.852  26.520  25.076  0.00  0.00    +0.000 C 
ATOM      8  C   UNL     1      26.139  26.222  26.321  0.00  0.00    +0.000 C 
ATOM      9  C   UNL     1      26.140  24.999  26.793  0.00  0.00    +0.000 C 
ATOM     10  C   UNL     1      25.401  24.745  28.061  0.00  0.00    +0.000 C 
ATOM     11  C   UNL     1      26.673  24.512  29.090  0.00  0.00    +0.000 C 
ATOM     12  O   UNL     1      25.749  24.020  30.201  0.00  0.00    +0.000 OA
ATOM     13  C   UNL     1      26.940  22.992  28.539  0.00  0.00    +0.000 C 
ATOM     14  C   UNL     1      27.658  23.130  27.239  0.00  0.00    +0.000 C 
ATOM     15  C   UNL     1      26.809  23.846  26.179  0.00  0.00    +0.000 C 
ATOM     16  C   UNL     1      25.924  22.888  25.550  0.00  0.00    +0.000 C 
ATOM     17  C   UNL     1      28.206  25.791  23.277  0.00  0.00    +0.000 C 
ATOM     18  C   UNL     1      27.304  26.580  22.204  0.00  0.00    +0.000 C 
ATOM     19  C   UNL     1      28.309  26.489  21.056  0.00  0.00    +0.000 C 
ATOM     20  C   UNL     1      28.975  25.141  21.221  0.00  0.00    +0.000 C 
ATOM     21  O   UNL     1      29.901  24.801  20.546  0.00  0.00    +0.000 OA
ENDROOT
TORSDOF 0
ENDMDL
MODEL 2
REMARK VINA RESULT:      -7.1      3.081      4.256
REMARK  Name = 
REMARK  0 active torsions:
REMARK  status: ('A' for Active; 'I' for Inactive)
REMARK                            x       y       z     vdW  Elec       q    Type
REMARK                         _______ _______ _______ _____ _____    ______ ____
ROOT
ATOM      1  C   UNL     1      27.183  25.186  24.242  0.00  0.00    +0.000 C 
ATOM      2  C   UNL     1      27.033  23.716  24.124  0.00  0.00    +0.000 C 
ATOM      3  C   UNL     1      26.596  22.984  25.304  0.00  0.00    +0.000 C 
ATOM      4  C   UNL     1      27.515  23.340  26.452  0.00  0.00    +0.000 C 
ATOM      5  C   UNL     1      28.976  22.774  26.085  0.00  0.00    +0.000 C 
ATOM      6  C   UNL     1      29.276  23.969  24.940  0.00  0.00    +0.000 C 
ATOM      7  C   UNL     1      30.704  23.397  24.527  0.00  0.00    +0.000 C 
ATOM      8  C   UNL     1      31.642  23.571  25.639  0.00  0.00    +0.000 C 
ATOM      9  C   UNL     1      31.190  23.614  26.869  0.00  0.00    +0.000 C 
ATOM     10  C   UNL     1      32.181  23.792  27.966  0.00  0.00    +0.000 C 
ATOM     11  C   UNL     1      32.144  22.280  28.632  0.00  0.00    +0.000 C 
ATOM     12  O   UNL     1      32.968  22.735  29.834  0.00  0.00    +0.000 OA
ATOM     13  C   UNL     1      30.726  22.571  29.402  0.00  0.00    +0.000 C 
ATOM     14  C   UNL     1      29.651  22.447  28.375  0.00  0.00    +0.000 C 
ATOM     15  C   UNL     1      29.782  23.501  27.266  0.00  0.00    +0.000 C 
ATOM     16  C   UNL     1      29.170  24.736  27.710  0.00  0.00    +0.000 C 
ATOM     17  C   UNL     1      28.488  23.086  23.758  0.00  0.00    +0.000 C 
ATOM     18  C   UNL     1      28.679  24.178  22.593  0.00  0.00    +0.000 C 
ATOM     19  C   UNL     1      27.434  23.781  21.800  0.00  0.00    +0.000 C 
ATOM     20  C   UNL     1      26.411  23.385  22.842  0.00  0.00    +0.000 C 
ATOM     21  O   UNL     1      25.354  22.911  22.550  0.00  0.00    +0.000 OA
ENDROOT
TORSDOF 0
ENDMDL
MODEL 3
REMARK VINA RESULT:      -6.8      2.991      4.485
REMARK  Name = 
REMARK  0 active torsions:
REMARK  status: ('A' for Active; 'I' for Inactive)
REMARK                            x       y       z     vdW  Elec       q    Type
REMARK                         _______ _______ _______ _____ _____    ______ ____
ROOT
ATOM      1  C   UNL     1      28.154  25.121  25.014  0.00  0.00    +0.000 C 
ATOM      2  C   UNL     1      27.678  23.717  24.987  0.00  0.00    +0.000 C 
ATOM      3  C   UNL     1      26.777  23.288  26.046  0.00  0.00    +0.000 C 
ATOM      4  C   UNL     1      27.419  23.612  27.378  0.00  0.00    +0.000 C 
ATOM      5  C   UNL     1      28.736  22.695  27.505  0.00  0.00    +0.000 C 
ATOM      6  C   UNL     1      29.616  23.606  26.398  0.00  0.00    +0.000 C 
ATOM      7  C   UNL     1      30.912  22.683  26.473  0.00  0.00    +0.000 C 
ATOM      8  C   UNL     1      31.536  22.822  27.792  0.00  0.00    +0.000 C 
ATOM      9  C   UNL     1      30.802  23.151  28.826  0.00  0.00    +0.000 C 
ATOM     10  C   UNL     1      31.481  23.279  30.146  0.00  0.00    +0.000 C 
ATOM     11  C   UNL     1      30.892  21.933  30.902  0.00  0.00    +0.000 C 
ATOM     12  O   UNL     1      31.457  22.381  32.248  0.00  0.00    +0.000 OA
ATOM     13  C   UNL     1      29.442  22.637  31.194  0.00  0.00    +0.000 C 
ATOM     14  C   UNL     1      28.680  22.589  29.912  0.00  0.00    +0.000 C 
ATOM     15  C   UNL     1      29.357  23.406  28.802  0.00  0.00    +0.000 C 
ATOM     16  C   UNL     1      28.978  24.797  28.937  0.00  0.00    +0.000 C 
ATOM     17  C   UNL     1      28.972  22.740  25.120  0.00  0.00    +0.000 C 
ATOM     18  C   UNL     1      29.730  23.572  23.970  0.00  0.00    +0.000 C 
ATOM     19  C   UNL     1      28.680  23.334  22.885  0.00  0.00    +0.000 C 
ATOM     20  C   UNL     1      27.354  23.333  23.613  0.00  0.00    +0.000 C 
ATOM     21  O   UNL     1      26.327  23.058  23.067  0.00  0.00    +0.000 OA
ENDROOT
TORSDOF 0
ENDMDL
MODEL 4
REMARK VINA RESULT:      -6.6      1.300      6.119
REMARK  Name = 
REMARK  0 active torsions:
REMARK  status: ('A' for Active; 'I' for Inactive)
REMARK                            x       y       z     vdW  Elec       q    Type
REMARK                         _______ _______ _______ _____ _____    ______ ____
ROOT
ATOM      1  C   UNL     1      28.660  23.950  28.927  0.00  0.00    +0.000 C 
ATOM      2  C   UNL     1      27.695  22.932  28.445  0.00  0.00    +0.000 C 
ATOM      3  C   UNL     1      28.178  21.936  27.501  0.00  0.00    +0.000 C 
ATOM      4  C   UNL     1      28.823  22.656  26.337  0.00  0.00    +0.000 C 
ATOM      5  C   UNL     1      27.661  23.473  25.579  0.00  0.00    +0.000 C 
ATOM      6  C   UNL     1      27.551  24.650  26.775  0.00  0.00    +0.000 C 
ATOM      7  C   UNL     1      26.366  25.444  26.065  0.00  0.00    +0.000 C 
ATOM      8  C   UNL     1      26.864  26.071  24.838  0.00  0.00    +0.000 C 
ATOM      9  C   UNL     1      27.883  25.542  24.206  0.00  0.00    +0.000 C 
ATOM     10  C   UNL     1      28.352  26.215  22.963  0.00  0.00    +0.000 C 
ATOM     11  C   UNL     1      27.841  25.121  21.835  0.00  0.00    +0.000 C 
ATOM     12  O   UNL     1      28.622  25.822  20.727  0.00  0.00    +0.000 OA
ATOM     13  C   UNL     1      29.078  24.095  22.158  0.00  0.00    +0.000 C 
ATOM     14  C   UNL     1      28.722  23.381  23.418  0.00  0.00    +0.000 C 
ATOM     15  C   UNL     1      28.610  24.335  24.615  0.00  0.00    +0.000 C 
ATOM     16  C   UNL     1      29.930  24.570  25.162  0.00  0.00    +0.000 C 
ATOM     17  C   UNL     1      26.495  23.702  27.661  0.00  0.00    +0.000 C 
ATOM     18  C   UNL     1      26.347  24.736  28.885  0.00  0.00    +0.000 C 
ATOM     19  C   UNL     1      26.035  23.680  29.946  0.00  0.00    +0.000 C 
ATOM     20  C   UNL     1      26.864  22.476  29.559  0.00  0.00    +0.000 C 
ATOM     21  O   UNL     1      26.766  21.427  30.124  0.00  0.00    +0.000 OA
ENDROOT
TORSDOF 0
ENDMDL
MODEL 5
REMARK VINA RESULT:      -6.5     20.951     22.599
REMARK  Name = 
REMARK  0 active torsions:
REMARK  status: ('A' for Active; 'I' for Inactive)
REMARK                            x       y       z     vdW  Elec       q    Type
REMARK                         _______ _______ _______ _____ _____    ______ ____
ROOT
ATOM      1  C   UNL     1      26.264   6.925  16.411  0.00  0.00    +0.000 C 
ATOM      2  C   UNL     1      27.466   6.085  16.629  0.00  0.00    +0.000 C 
ATOM      3  C   UNL     1      27.818   5.127  15.591  0.00  0.00    +0.000 C 
ATOM      4  C   UNL     1      26.607   4.267  15.306  0.00  0.00    +0.000 C 
ATOM      5  C   UNL     1      26.311   3.407  16.634  0.00  0.00    +0.000 C 
ATOM      6  C   UNL     1      25.687   4.718  17.482  0.00  0.00    +0.000 C 
ATOM      7  C   UNL     1      25.432   3.896  18.822  0.00  0.00    +0.000 C 
ATOM      8  C   UNL     1      24.355   2.926  18.604  0.00  0.00    +0.000 C 
ATOM      9  C   UNL     1      24.133   2.463  17.398  0.00  0.00    +0.000 C 
ATOM     10  C   UNL     1      23.027   1.479  17.227  0.00  0.00    +0.000 C 
ATOM     11  C   UNL     1      23.907   0.107  16.953  0.00  0.00    +0.000 C 
ATOM     12  O   UNL     1      22.658  -0.672  16.549  0.00  0.00    +0.000 OA
ATOM     13  C   UNL     1      24.230   0.532  15.403  0.00  0.00    +0.000 C 
ATOM     14  C   UNL     1      25.318   1.551  15.460  0.00  0.00    +0.000 C 
ATOM     15  C   UNL     1      24.882   2.829  16.191  0.00  0.00    +0.000 C 
ATOM     16  C   UNL     1      24.171   3.687  15.266  0.00  0.00    +0.000 C 
ATOM     17  C   UNL     1      27.220   5.184  17.962  0.00  0.00    +0.000 C 
ATOM     18  C   UNL     1      26.742   6.491  18.768  0.00  0.00    +0.000 C 
ATOM     19  C   UNL     1      28.042   7.274  18.584  0.00  0.00    +0.000 C 
ATOM     20  C   UNL     1      28.537   6.897  17.205  0.00  0.00    +0.000 C 
ATOM     21  O   UNL     1      29.601   7.252  16.791  0.00  0.00    +0.000 OA
ENDROOT
TORSDOF 0
ENDMDL
MODEL 6
REMARK VINA RESULT:      -6.5     20.729     22.422
REMARK  Name = 
REMARK  0 active torsions:
REMARK  status: ('A' for Active; 'I' for Inactive)
REMARK                            x       y       z     vdW  Elec       q    Type
REMARK                         _______ _______ _______ _____ _____    ______ ____
ROOT
ATOM      1  C   UNL     1      28.278   5.996  18.358  0.00  0.00    +0.000 C 
ATOM      2  C   UNL     1      27.893   6.293  16.958  0.00  0.00    +0.000 C 
ATOM      3  C   UNL     1      26.525   6.722  16.709  0.00  0.00    +0.000 C 
ATOM      4  C   UNL     1      25.587   5.703  17.318  0.00  0.00    +0.000 C 
ATOM      5  C   UNL     1      25.786   4.328  16.504  0.00  0.00    +0.000 C 
ATOM      6  C   UNL     1      27.272   3.989  17.215  0.00  0.00    +0.000 C 
ATOM      7  C   UNL     1      27.509   2.651  16.383  0.00  0.00    +0.000 C 
ATOM      8  C   UNL     1      26.546   1.632  16.808  0.00  0.00    +0.000 C 
ATOM      9  C   UNL     1      25.389   2.000  17.304  0.00  0.00    +0.000 C 
ATOM     10  C   UNL     1      24.443   0.928  17.722  0.00  0.00    +0.000 C 
ATOM     11  C   UNL     1      23.309   1.067  16.528  0.00  0.00    +0.000 C 
ATOM     12  O   UNL     1      22.351   0.130  17.259  0.00  0.00    +0.000 OA
ATOM     13  C   UNL     1      22.641   2.399  17.211  0.00  0.00    +0.000 C 
ATOM     14  C   UNL     1      23.537   3.544  16.876  0.00  0.00    +0.000 C 
ATOM     15  C   UNL     1      24.938   3.384  17.485  0.00  0.00    +0.000 C 
ATOM     16  C   UNL     1      24.916   3.846  18.858  0.00  0.00    +0.000 C 
ATOM     17  C   UNL     1      28.068   4.931  16.084  0.00  0.00    +0.000 C 
ATOM     18  C   UNL     1      29.536   4.711  16.704  0.00  0.00    +0.000 C 
ATOM     19  C   UNL     1      30.116   6.036  16.209  0.00  0.00    +0.000 C 
ATOM     20  C   UNL     1      28.973   7.023  16.295  0.00  0.00    +0.000 C 
ATOM     21  O   UNL     1      29.060   8.137  15.871  0.00  0.00    +0.000 OA
ENDROOT
TORSDOF 0
ENDMDL
MODEL 7
REMARK VINA RESULT:      -6.3     29.797     31.876
REMARK  Name = 
REMARK  0 active torsions:
REMARK  status: ('A' for Active; 'I' for Inactive)
REMARK                            x       y       z     vdW  Elec       q    Type
REMARK                         _______ _______ _______ _____ _____    ______ ____
ROOT
ATOM      1  C   UNL     1      34.122  -8.228  31.038  0.00  0.00    +0.000 C 
ATOM      2  C   UNL     1      33.436  -7.296  30.111  0.00  0.00    +0.000 C 
ATOM      3  C   UNL     1      34.064  -6.007  29.860  0.00  0.00    +0.000 C 
ATOM      4  C   UNL     1      34.332  -5.340  31.191  0.00  0.00    +0.000 C 
ATOM      5  C   UNL     1      32.903  -5.024  31.861  0.00  0.00    +0.000 C 
ATOM      6  C   UNL     1      32.608  -6.630  32.263  0.00  0.00    +0.000 C 
ATOM      7  C   UNL     1      31.170  -6.345  32.887  0.00  0.00    +0.000 C 
ATOM      8  C   UNL     1      31.316  -5.573  34.124  0.00  0.00    +0.000 C 
ATOM      9  C   UNL     1      32.359  -4.796  34.284  0.00  0.00    +0.000 C 
ATOM     10  C   UNL     1      32.464  -4.032  35.558  0.00  0.00    +0.000 C 
ATOM     11  C   UNL     1      32.152  -2.507  35.002  0.00  0.00    +0.000 C 
ATOM     12  O   UNL     1      32.561  -1.884  36.335  0.00  0.00    +0.000 OA
ATOM     13  C   UNL     1      33.660  -2.343  34.380  0.00  0.00    +0.000 C 
ATOM     14  C   UNL     1      33.676  -3.106  33.098  0.00  0.00    +0.000 C 
ATOM     15  C   UNL     1      33.443  -4.608  33.313  0.00  0.00    +0.000 C 
ATOM     16  C   UNL     1      34.698  -5.239  33.666  0.00  0.00    +0.000 C 
ATOM     17  C   UNL     1      31.980  -6.934  30.743  0.00  0.00    +0.000 C 
ATOM     18  C   UNL     1      31.694  -8.495  31.001  0.00  0.00    +0.000 C 
ATOM     19  C   UNL     1      31.826  -8.924  29.540  0.00  0.00    +0.000 C 
ATOM     20  C   UNL     1      32.910  -8.038  28.966  0.00  0.00    +0.000 C 
ATOM     21  O   UNL     1      33.183  -8.038  27.802  0.00  0.00    +0.000 OA
ENDROOT
TORSDOF 0
ENDMDL
MODEL 8
REMARK VINA RESULT:      -6.3      2.756      6.449
REMARK  Name = 
REMARK  0 active torsions:
REMARK  status: ('A' for Active; 'I' for Inactive)
REMARK                            x       y       z     vdW  Elec       q    Type
REMARK                         _______ _______ _______ _____ _____    ______ ____
ROOT
ATOM      1  C   UNL     1      30.731  24.416  29.263  0.00  0.00    +0.000 C 
ATOM      2  C   UNL     1      30.568  22.949  29.128  0.00  0.00    +0.000 C 
ATOM      3  C   UNL     1      31.244  22.292  28.019  0.00  0.00    +0.000 C 
ATOM      4  C   UNL     1      30.851  22.995  26.738  0.00  0.00    +0.000 C 
ATOM      5  C   UNL     1      29.276  22.743  26.522  0.00  0.00    +0.000 C 
ATOM      6  C   UNL     1      28.821  23.819  27.732  0.00  0.00    +0.000 C 
ATOM      7  C   UNL     1      27.260  23.547  27.566  0.00  0.00    +0.000 C 
ATOM      8  C   UNL     1      26.805  24.075  26.277  0.00  0.00    +0.000 C 
ATOM      9  C   UNL     1      27.649  24.167  25.279  0.00  0.00    +0.000 C 
ATOM     10  C   UNL     1      27.140  24.710  23.989  0.00  0.00    +0.000 C 
ATOM     11  C   UNL     1      27.133  23.329  23.082  0.00  0.00    +0.000 C 
ATOM     12  O   UNL     1      26.864  24.112  21.800  0.00  0.00    +0.000 OA
ATOM     13  C   UNL     1      28.756  23.377  22.857  0.00  0.00    +0.000 C 
ATOM     14  C   UNL     1      29.376  22.876  24.118  0.00  0.00    +0.000 C 
ATOM     15  C   UNL     1      29.065  23.782  25.318  0.00  0.00    +0.000 C 
ATOM     16  C   UNL     1      30.001  24.887  25.336  0.00  0.00    +0.000 C 
ATOM     17  C   UNL     1      28.988  22.633  28.899  0.00  0.00    +0.000 C 
ATOM     18  C   UNL     1      28.609  23.582  30.141  0.00  0.00    +0.000 C 
ATOM     19  C   UNL     1      29.417  22.808  31.184  0.00  0.00    +0.000 C 
ATOM     20  C   UNL     1      30.646  22.322  30.448  0.00  0.00    +0.000 C 
ATOM     21  O   UNL     1      31.438  21.581  30.950  0.00  0.00    +0.000 OA
ENDROOT
TORSDOF 0
ENDMDL
MODEL 9
REMARK VINA RESULT:      -6.3      2.072      3.717
REMARK  Name = 
REMARK  0 active torsions:
REMARK  status: ('A' for Active; 'I' for Inactive)
REMARK                            x       y       z     vdW  Elec       q    Type
REMARK                         _______ _______ _______ _____ _____    ______ ____
ROOT
ATOM      1  C   UNL     1      29.174  25.659  24.667  0.00  0.00    +0.000 C 
ATOM      2  C   UNL     1      28.330  24.987  23.650  0.00  0.00    +0.000 C 
ATOM      3  C   UNL     1      27.374  25.804  22.918  0.00  0.00    +0.000 C 
ATOM      4  C   UNL     1      26.518  26.548  23.919  0.00  0.00    +0.000 C 
ATOM      5  C   UNL     1      25.655  25.447  24.717  0.00  0.00    +0.000 C 
ATOM      6  C   UNL     1      26.966  24.911  25.623  0.00  0.00    +0.000 C 
ATOM      7  C   UNL     1      26.141  23.783  26.388  0.00  0.00    +0.000 C 
ATOM      8  C   UNL     1      25.175  24.412  27.293  0.00  0.00    +0.000 C 
ATOM      9  C   UNL     1      24.715  25.609  27.021  0.00  0.00    +0.000 C 
ATOM     10  C   UNL     1      23.735  26.206  27.970  0.00  0.00    +0.000 C 
ATOM     11  C   UNL     1      22.361  26.115  27.055  0.00  0.00    +0.000 C 
ATOM     12  O   UNL     1      21.585  26.982  28.044  0.00  0.00    +0.000 OA
ATOM     13  C   UNL     1      22.789  27.409  26.145  0.00  0.00    +0.000 C 
ATOM     14  C   UNL     1      23.805  26.924  25.166  0.00  0.00    +0.000 C 
ATOM     15  C   UNL     1      25.082  26.421  25.855  0.00  0.00    +0.000 C 
ATOM     16  C   UNL     1      25.944  27.549  26.141  0.00  0.00    +0.000 C 
ATOM     17  C   UNL     1      27.427  23.863  24.404  0.00  0.00    +0.000 C 
ATOM     18  C   UNL     1      28.733  23.307  25.160  0.00  0.00    +0.000 C 
ATOM     19  C   UNL     1      29.514  22.960  23.892  0.00  0.00    +0.000 C 
ATOM     20  C   UNL     1      29.139  24.032  22.893  0.00  0.00    +0.000 C 
ATOM     21  O   UNL     1      29.492  23.991  21.752  0.00  0.00    +0.000 OA
ENDROOT
TORSDOF 0
ENDMDL
MODEL 10
REMARK VINA RESULT:      -6.3     32.043     34.168
REMARK  Name = 
REMARK  0 active torsions:
REMARK  status: ('A' for Active; 'I' for Inactive)
REMARK                            x       y       z     vdW  Elec       q    Type
REMARK                         _______ _______ _______ _____ _____    ______ ____
ROOT
ATOM      1  C   UNL     1      19.153  -8.928  27.850  0.00  0.00    +0.000 C 
ATOM      2  C   UNL     1      18.403  -8.938  26.570  0.00  0.00    +0.000 C 
ATOM      3  C   UNL     1      18.649 -10.038  25.651  0.00  0.00    +0.000 C 
ATOM      4  C   UNL     1      20.138 -10.128  25.401  0.00  0.00    +0.000 C 
ATOM      5  C   UNL     1      20.572  -8.785  24.626  0.00  0.00    +0.000 C 
ATOM      6  C   UNL     1      20.447  -7.818  25.995  0.00  0.00    +0.000 C 
ATOM      7  C   UNL     1      20.827  -6.470  25.236  0.00  0.00    +0.000 C 
ATOM      8  C   UNL     1      22.233  -6.518  24.825  0.00  0.00    +0.000 C 
ATOM      9  C   UNL     1      22.806  -7.676  24.607  0.00  0.00    +0.000 C 
ATOM     10  C   UNL     1      24.236  -7.674  24.192  0.00  0.00    +0.000 C 
ATOM     11  C   UNL     1      24.074  -8.122  22.609  0.00  0.00    +0.000 C 
ATOM     12  O   UNL     1      25.580  -8.320  22.459  0.00  0.00    +0.000 OA
ATOM     13  C   UNL     1      23.833  -9.696  23.000  0.00  0.00    +0.000 C 
ATOM     14  C   UNL     1      22.420  -9.808  23.464  0.00  0.00    +0.000 C 
ATOM     15  C   UNL     1      22.160  -8.988  24.736  0.00  0.00    +0.000 C 
ATOM     16  C   UNL     1      22.566  -9.760  25.892  0.00  0.00    +0.000 C 
ATOM     17  C   UNL     1      18.809  -7.600  25.736  0.00  0.00    +0.000 C 
ATOM     18  C   UNL     1      18.562  -6.698  27.045  0.00  0.00    +0.000 C 
ATOM     19  C   UNL     1      17.096  -7.088  27.231  0.00  0.00    +0.000 C 
ATOM     20  C   UNL     1      17.017  -8.538  26.808  0.00  0.00    +0.000 C 
ATOM     21  O   UNL     1      15.977  -9.122  26.725  0.00  0.00    +0.000 OA
ENDROOT
TORSDOF 0
ENDMDL
