MODEL 1
REMARK VINA RESULT:      -8.4      0.000      0.000
REMARK  Name = 
REMARK  6 active torsions:
REMARK  status: ('A' for Active; 'I' for Inactive)
REMARK    1  A    between atoms: C_2  and  O_3
REMARK    2  A    between atoms: O_3  and  C_4
REMARK    3  A    between atoms: C_7  and  C_8
REMARK    4  A    between atoms: C_10  and  C_11
REMARK    5  A    between atoms: N_13  and  C_14
REMARK    6  A    between atoms: C_20  and  C_21
REMARK                            x       y       z     vdW  Elec       q    Type
REMARK                         _______ _______ _______ _____ _____    ______ ____
ROOT
ATOM      1  C   UNL     1      38.667   5.393  16.931  0.00  0.00    +0.000 A 
ATOM      2  C   UNL     1      38.149   4.092  16.980  0.00  0.00    +0.000 A 
ATOM      3  C   UNL     1      37.212   3.688  16.055  0.00  0.00    +0.000 A 
ATOM      4  C   UNL     1      36.812   4.592  15.099  0.00  0.00    +0.000 A 
ATOM      5  C   UNL     1      35.882   4.200  14.175  0.00  0.00    +0.000 A 
ATOM      6  C   UNL     1      35.480   5.104  13.216  0.00  0.00    +0.000 A 
ATOM      7  C   UNL     1      35.977   6.386  13.152  0.00  0.00    +0.000 A 
ATOM      8  C   UNL     1      36.912   6.793  14.074  0.00  0.00    +0.000 A 
ATOM      9  C   UNL     1      37.315   5.887  15.034  0.00  0.00    +0.000 A 
ATOM     10  N   UNL     1      38.238   6.229  15.976  0.00  0.00    +0.000 NA
ENDROOT
BRANCH   1  14
ATOM     11  C   UNL     1      41.639   6.704  19.650  0.00  0.00    +0.000 A 
ATOM     12  C   UNL     1      41.939   6.515  18.318  0.00  0.00    +0.000 A 
ATOM     13  C   UNL     1      40.938   6.086  17.467  0.00  0.00    +0.000 A 
ATOM     14  C   UNL     1      39.655   5.841  17.896  0.00  0.00    +0.000 A 
ATOM     15  C   UNL     1      39.358   6.031  19.228  0.00  0.00    +0.000 A 
ATOM     16  C   UNL     1      40.353   6.464  20.107  0.00  0.00    +0.000 A 
BRANCH  11  17
ATOM     17  O   UNL     1      42.652   7.136  20.501  0.00  0.00    +0.000 OA
BRANCH  17  19
ATOM     18  C   UNL     1      44.041   5.700  21.787  0.00  0.00    +0.000 C 
ATOM     19  C   UNL     1      43.927   6.533  20.522  0.00  0.00    +0.000 C 
ENDBRANCH  17  19
ENDBRANCH  11  17
ENDBRANCH   1  14
BRANCH   3  20
ATOM     20  C   UNL     1      36.640   2.348  16.059  0.00  0.00    +0.000 C 
ATOM     21  O   UNL     1      35.394   2.251  16.200  0.00  0.00    +0.000 OA
ATOM     22  N   UNL     1      37.404   1.182  15.914  0.00  0.00    +0.000 NA
BRANCH  22  23
ATOM     23  C   UNL     1      36.879  -0.138  15.917  0.00  0.00    +0.000 A 
ATOM     24  C   UNL     1      36.649  -0.713  14.674  0.00  0.00    +0.000 A 
ATOM     25  C   UNL     1      36.945   0.055  13.446  0.00  0.00    +0.000 C 
ATOM     26  C   UNL     1      36.148  -1.992  14.609  0.00  0.00    +0.000 A 
ATOM     27  C   UNL     1      35.879  -2.694  15.762  0.00  0.00    +0.000 A 
ATOM     28  C   UNL     1      36.102  -2.139  17.003  0.00  0.00    +0.000 A 
ATOM     29  C   UNL     1      36.611  -0.840  17.073  0.00  0.00    +0.000 A 
BRANCH  29  30
ATOM     30  C   UNL     1      36.865  -0.238  18.396  0.00  0.00    +0.000 C 
ATOM     31  C   UNL     1      37.646  -1.181  19.297  0.00  0.00    +0.000 C 
ATOM     32  C   UNL     1      35.643   0.225  19.120  0.00  0.00    +0.000 C 
ENDBRANCH  29  30
ENDBRANCH  22  23
ENDBRANCH   3  20
TORSDOF 6
ENDMDL
MODEL 2
REMARK VINA RESULT:      -8.4      2.517      3.080
REMARK  Name = 
REMARK  6 active torsions:
REMARK  status: ('A' for Active; 'I' for Inactive)
REMARK    1  A    between atoms: C_2  and  O_3
REMARK    2  A    between atoms: O_3  and  C_4
REMARK    3  A    between atoms: C_7  and  C_8
REMARK    4  A    between atoms: C_10  and  C_11
REMARK    5  A    between atoms: N_13  and  C_14
REMARK    6  A    between atoms: C_20  and  C_21
REMARK                            x       y       z     vdW  Elec       q    Type
REMARK                         _______ _______ _______ _____ _____    ______ ____
ROOT
ATOM      1  C   UNL     1      39.224   5.240  16.477  0.00  0.00    +0.000 A 
ATOM      2  C   UNL     1      38.430   4.096  16.318  0.00  0.00    +0.000 A 
ATOM      3  C   UNL     1      38.601   3.285  15.218  0.00  0.00    +0.000 A 
ATOM      4  C   UNL     1      39.563   3.634  14.299  0.00  0.00    +0.000 A 
ATOM      5  C   UNL     1      39.741   2.835  13.202  0.00  0.00    +0.000 A 
ATOM      6  C   UNL     1      40.704   3.182  12.280  0.00  0.00    +0.000 A 
ATOM      7  C   UNL     1      41.492   4.301  12.418  0.00  0.00    +0.000 A 
ATOM      8  C   UNL     1      41.324   5.113  13.514  0.00  0.00    +0.000 A 
ATOM      9  C   UNL     1      40.360   4.764  14.439  0.00  0.00    +0.000 A 
ATOM     10  N   UNL     1      40.145   5.528  15.546  0.00  0.00    +0.000 NA
ENDROOT
BRANCH   1  14
ATOM     11  C   UNL     1      38.841   7.708  19.899  0.00  0.00    +0.000 A 
ATOM     12  C   UNL     1      39.741   6.662  19.883  0.00  0.00    +0.000 A 
ATOM     13  C   UNL     1      39.831   5.883  18.745  0.00  0.00    +0.000 A 
ATOM     14  C   UNL     1      39.061   6.109  17.629  0.00  0.00    +0.000 A 
ATOM     15  C   UNL     1      38.163   7.154  17.648  0.00  0.00    +0.000 A 
ATOM     16  C   UNL     1      38.054   7.955  18.786  0.00  0.00    +0.000 A 
BRANCH  11  17
ATOM     17  O   UNL     1      38.755   8.487  21.048  0.00  0.00    +0.000 OA
BRANCH  17  19
ATOM     18  C   UNL     1      39.924  10.548  20.870  0.00  0.00    +0.000 C 
ATOM     19  C   UNL     1      38.564   9.883  21.001  0.00  0.00    +0.000 C 
ENDBRANCH  17  19
ENDBRANCH  11  17
ENDBRANCH   1  14
BRANCH   3  20
ATOM     20  C   UNL     1      37.804   2.084  15.003  0.00  0.00    +0.000 C 
ATOM     21  O   UNL     1      36.793   2.186  14.264  0.00  0.00    +0.000 OA
ATOM     22  N   UNL     1      38.112   0.843  15.575  0.00  0.00    +0.000 NA
BRANCH  22  23
ATOM     23  C   UNL     1      37.356  -0.346  15.388  0.00  0.00    +0.000 A 
ATOM     24  C   UNL     1      37.765  -1.183  14.359  0.00  0.00    +0.000 A 
ATOM     25  C   UNL     1      38.927  -0.805  13.527  0.00  0.00    +0.000 C 
ATOM     26  C   UNL     1      37.078  -2.352  14.132  0.00  0.00    +0.000 A 
ATOM     27  C   UNL     1      35.999  -2.690  14.916  0.00  0.00    +0.000 A 
ATOM     28  C   UNL     1      35.579  -1.872  15.942  0.00  0.00    +0.000 A 
ATOM     29  C   UNL     1      36.274  -0.682  16.176  0.00  0.00    +0.000 A 
BRANCH  29  30
ATOM     30  C   UNL     1      35.843   0.198  17.278  0.00  0.00    +0.000 C 
ATOM     31  C   UNL     1      35.408  -0.604  18.494  0.00  0.00    +0.000 C 
ATOM     32  C   UNL     1      34.762   1.166  16.923  0.00  0.00    +0.000 C 
ENDBRANCH  29  30
ENDBRANCH  22  23
ENDBRANCH   3  20
TORSDOF 6
ENDMDL
MODEL 3
REMARK VINA RESULT:      -8.0      1.237      2.179
REMARK  Name = 
REMARK  6 active torsions:
REMARK  status: ('A' for Active; 'I' for Inactive)
REMARK    1  A    between atoms: C_2  and  O_3
REMARK    2  A    between atoms: O_3  and  C_4
REMARK    3  A    between atoms: C_7  and  C_8
REMARK    4  A    between atoms: C_10  and  C_11
REMARK    5  A    between atoms: N_13  and  C_14
REMARK    6  A    between atoms: C_20  and  C_21
REMARK                            x       y       z     vdW  Elec       q    Type
REMARK                         _______ _______ _______ _____ _____    ______ ____
ROOT
ATOM      1  C   UNL     1      38.729   5.598  16.736  0.00  0.00    +0.000 A 
ATOM      2  C   UNL     1      38.420   4.258  16.468  0.00  0.00    +0.000 A 
ATOM      3  C   UNL     1      37.492   3.945  15.501  0.00  0.00    +0.000 A 
ATOM      4  C   UNL     1      36.892   4.978  14.819  0.00  0.00    +0.000 A 
ATOM      5  C   UNL     1      35.968   4.678  13.855  0.00  0.00    +0.000 A 
ATOM      6  C   UNL     1      35.365   5.711  13.171  0.00  0.00    +0.000 A 
ATOM      7  C   UNL     1      35.655   7.033  13.420  0.00  0.00    +0.000 A 
ATOM      8  C   UNL     1      36.581   7.349  14.386  0.00  0.00    +0.000 A 
ATOM      9  C   UNL     1      37.185   6.314  15.071  0.00  0.00    +0.000 A 
ATOM     10  N   UNL     1      38.111   6.562  16.040  0.00  0.00    +0.000 NA
ENDROOT
BRANCH   1  14
ATOM     11  C   UNL     1      41.666   6.638  19.608  0.00  0.00    +0.000 A 
ATOM     12  C   UNL     1      41.995   6.529  18.273  0.00  0.00    +0.000 A 
ATOM     13  C   UNL     1      41.005   6.187  17.372  0.00  0.00    +0.000 A 
ATOM     14  C   UNL     1      39.705   5.952  17.753  0.00  0.00    +0.000 A 
ATOM     15  C   UNL     1      39.379   6.061  19.087  0.00  0.00    +0.000 A 
ATOM     16  C   UNL     1      40.363   6.405  20.016  0.00  0.00    +0.000 A 
BRANCH  11  17
ATOM     17  O   UNL     1      42.669   6.982  20.510  0.00  0.00    +0.000 OA
BRANCH  17  19
ATOM     18  C   UNL     1      43.933   6.747  22.506  0.00  0.00    +0.000 C 
ATOM     19  C   UNL     1      43.313   6.026  21.322  0.00  0.00    +0.000 C 
ENDBRANCH  17  19
ENDBRANCH  11  17
ENDBRANCH   1  14
BRANCH   3  20
ATOM     20  C   UNL     1      37.132   2.570  15.180  0.00  0.00    +0.000 C 
ATOM     21  O   UNL     1      36.640   2.350  14.045  0.00  0.00    +0.000 OA
ATOM     22  N   UNL     1      37.309   1.500  16.068  0.00  0.00    +0.000 NA
BRANCH  22  23
ATOM     23  C   UNL     1      36.967   0.149  15.789  0.00  0.00    +0.000 A 
ATOM     24  C   UNL     1      35.732  -0.283  16.253  0.00  0.00    +0.000 A 
ATOM     25  C   UNL     1      34.862   0.651  16.999  0.00  0.00    +0.000 C 
ATOM     26  C   UNL     1      35.340  -1.578  16.009  0.00  0.00    +0.000 A 
ATOM     27  C   UNL     1      36.161  -2.435  15.312  0.00  0.00    +0.000 A 
ATOM     28  C   UNL     1      37.389  -2.023  14.845  0.00  0.00    +0.000 A 
ATOM     29  C   UNL     1      37.792  -0.708  15.091  0.00  0.00    +0.000 A 
BRANCH  29  30
ATOM     30  C   UNL     1      39.100  -0.249  14.585  0.00  0.00    +0.000 C 
ATOM     31  C   UNL     1      39.060   0.007  13.087  0.00  0.00    +0.000 C 
ATOM     32  C   UNL     1      40.245  -1.159  14.891  0.00  0.00    +0.000 C 
ENDBRANCH  29  30
ENDBRANCH  22  23
ENDBRANCH   3  20
TORSDOF 6
ENDMDL
MODEL 4
REMARK VINA RESULT:      -7.8      5.583      7.485
REMARK  Name = 
REMARK  6 active torsions:
REMARK  status: ('A' for Active; 'I' for Inactive)
REMARK    1  A    between atoms: C_2  and  O_3
REMARK    2  A    between atoms: O_3  and  C_4
REMARK    3  A    between atoms: C_7  and  C_8
REMARK    4  A    between atoms: C_10  and  C_11
REMARK    5  A    between atoms: N_13  and  C_14
REMARK    6  A    between atoms: C_20  and  C_21
REMARK                            x       y       z     vdW  Elec       q    Type
REMARK                         _______ _______ _______ _____ _____    ______ ____
ROOT
ATOM      1  C   UNL     1      41.838  -0.997  13.933  0.00  0.00    +0.000 A 
ATOM      2  C   UNL     1      40.720  -1.474  14.631  0.00  0.00    +0.000 A 
ATOM      3  C   UNL     1      39.656  -0.637  14.882  0.00  0.00    +0.000 A 
ATOM      4  C   UNL     1      39.730   0.660  14.430  0.00  0.00    +0.000 A 
ATOM      5  C   UNL     1      38.677   1.500  14.674  0.00  0.00    +0.000 A 
ATOM      6  C   UNL     1      38.749   2.799  14.222  0.00  0.00    +0.000 A 
ATOM      7  C   UNL     1      39.838   3.286  13.535  0.00  0.00    +0.000 A 
ATOM      8  C   UNL     1      40.902   2.453  13.283  0.00  0.00    +0.000 A 
ATOM      9  C   UNL     1      40.830   1.151  13.735  0.00  0.00    +0.000 A 
ATOM     10  N   UNL     1      41.852   0.277  13.518  0.00  0.00    +0.000 NA
ENDROOT
BRANCH   1  14
ATOM     11  C   UNL     1      45.211  -3.461  13.225  0.00  0.00    +0.000 A 
ATOM     12  C   UNL     1      45.234  -2.507  14.220  0.00  0.00    +0.000 A 
ATOM     13  C   UNL     1      44.111  -1.725  14.414  0.00  0.00    +0.000 A 
ATOM     14  C   UNL     1      42.972  -1.862  13.657  0.00  0.00    +0.000 A 
ATOM     15  C   UNL     1      42.952  -2.817  12.663  0.00  0.00    +0.000 A 
ATOM     16  C   UNL     1      44.075  -3.618  12.448  0.00  0.00    +0.000 A 
BRANCH  11  17
ATOM     17  O   UNL     1      46.346  -4.244  13.034  0.00  0.00    +0.000 OA
BRANCH  17  19
ATOM     18  C   UNL     1      47.653  -3.150  11.380  0.00  0.00    +0.000 C 
ATOM     19  C   UNL     1      46.930  -4.429  11.764  0.00  0.00    +0.000 C 
ENDBRANCH  17  19
ENDBRANCH  11  17
ENDBRANCH   1  14
BRANCH   3  20
ATOM     20  C   UNL     1      38.469  -1.079  15.602  0.00  0.00    +0.000 C 
ATOM     21  O   UNL     1      38.622  -1.459  16.791  0.00  0.00    +0.000 OA
ATOM     22  N   UNL     1      37.187  -1.099  15.037  0.00  0.00    +0.000 NA
BRANCH  22  23
ATOM     23  C   UNL     1      36.011  -1.527  15.710  0.00  0.00    +0.000 A 
ATOM     24  C   UNL     1      35.547  -2.797  15.395  0.00  0.00    +0.000 A 
ATOM     25  C   UNL     1      36.272  -3.616  14.401  0.00  0.00    +0.000 C 
ATOM     26  C   UNL     1      34.416  -3.271  16.018  0.00  0.00    +0.000 A 
ATOM     27  C   UNL     1      33.753  -2.497  16.942  0.00  0.00    +0.000 A 
ATOM     28  C   UNL     1      34.199  -1.234  17.266  0.00  0.00    +0.000 A 
ATOM     29  C   UNL     1      35.348  -0.748  16.636  0.00  0.00    +0.000 A 
BRANCH  29  30
ATOM     30  C   UNL     1      35.844   0.597  16.982  0.00  0.00    +0.000 C 
ATOM     31  C   UNL     1      36.112   0.726  18.472  0.00  0.00    +0.000 C 
ATOM     32  C   UNL     1      34.961   1.722  16.549  0.00  0.00    +0.000 C 
ENDBRANCH  29  30
ENDBRANCH  22  23
ENDBRANCH   3  20
TORSDOF 6
ENDMDL
MODEL 5
REMARK VINA RESULT:      -7.7      4.982      8.615
REMARK  Name = 
REMARK  6 active torsions:
REMARK  status: ('A' for Active; 'I' for Inactive)
REMARK    1  A    between atoms: C_2  and  O_3
REMARK    2  A    between atoms: O_3  and  C_4
REMARK    3  A    between atoms: C_7  and  C_8
REMARK    4  A    between atoms: C_10  and  C_11
REMARK    5  A    between atoms: N_13  and  C_14
REMARK    6  A    between atoms: C_20  and  C_21
REMARK                            x       y       z     vdW  Elec       q    Type
REMARK                         _______ _______ _______ _____ _____    ______ ____
ROOT
ATOM      1  C   UNL     1      40.676  -2.137  14.803  0.00  0.00    +0.000 A 
ATOM      2  C   UNL     1      39.780  -1.128  14.425  0.00  0.00    +0.000 A 
ATOM      3  C   UNL     1      38.599  -0.962  15.113  0.00  0.00    +0.000 A 
ATOM      4  C   UNL     1      38.337  -1.807  16.166  0.00  0.00    +0.000 A 
ATOM      5  C   UNL     1      37.166  -1.651  16.857  0.00  0.00    +0.000 A 
ATOM      6  C   UNL     1      36.902  -2.496  17.912  0.00  0.00    +0.000 A 
ATOM      7  C   UNL     1      37.769  -3.493  18.298  0.00  0.00    +0.000 A 
ATOM      8  C   UNL     1      38.949  -3.662  17.612  0.00  0.00    +0.000 A 
ATOM      9  C   UNL     1      39.214  -2.814  16.556  0.00  0.00    +0.000 A 
ATOM     10  N   UNL     1      40.365  -2.930  15.837  0.00  0.00    +0.000 NA
ENDROOT
BRANCH   1  14
ATOM     11  C   UNL     1      44.263  -2.779  12.641  0.00  0.00    +0.000 A 
ATOM     12  C   UNL     1      43.086  -3.380  12.246  0.00  0.00    +0.000 A 
ATOM     13  C   UNL     1      41.940  -3.142  12.981  0.00  0.00    +0.000 A 
ATOM     14  C   UNL     1      41.927  -2.330  14.091  0.00  0.00    +0.000 A 
ATOM     15  C   UNL     1      43.104  -1.731  14.484  0.00  0.00    +0.000 A 
ATOM     16  C   UNL     1      44.274  -1.956  13.757  0.00  0.00    +0.000 A 
BRANCH  11  17
ATOM     17  O   UNL     1      45.412  -3.023  11.896  0.00  0.00    +0.000 OA
BRANCH  17  19
ATOM     18  C   UNL     1      46.810  -4.663  12.897  0.00  0.00    +0.000 C 
ATOM     19  C   UNL     1      45.927  -4.322  11.709  0.00  0.00    +0.000 C 
ENDBRANCH  17  19
ENDBRANCH  11  17
ENDBRANCH   1  14
BRANCH   3  20
ATOM     20  C   UNL     1      37.631   0.070  14.765  0.00  0.00    +0.000 C 
ATOM     21  O   UNL     1      36.910  -0.130  13.755  0.00  0.00    +0.000 OA
ATOM     22  N   UNL     1      37.472   1.256  15.494  0.00  0.00    +0.000 NA
BRANCH  22  23
ATOM     23  C   UNL     1      36.541   2.284  15.180  0.00  0.00    +0.000 A 
ATOM     24  C   UNL     1      35.315   2.224  15.828  0.00  0.00    +0.000 A 
ATOM     25  C   UNL     1      35.041   1.125  16.777  0.00  0.00    +0.000 C 
ATOM     26  C   UNL     1      34.374   3.193  15.572  0.00  0.00    +0.000 A 
ATOM     27  C   UNL     1      34.645   4.211  14.686  0.00  0.00    +0.000 A 
ATOM     28  C   UNL     1      35.856   4.285  14.035  0.00  0.00    +0.000 A 
ATOM     29  C   UNL     1      36.816   3.302  14.292  0.00  0.00    +0.000 A 
BRANCH  29  30
ATOM     30  C   UNL     1      38.122   3.376  13.611  0.00  0.00    +0.000 C 
ATOM     31  C   UNL     1      38.675   4.792  13.618  0.00  0.00    +0.000 C 
ATOM     32  C   UNL     1      38.129   2.861  12.208  0.00  0.00    +0.000 C 
ENDBRANCH  29  30
ENDBRANCH  22  23
ENDBRANCH   3  20
TORSDOF 6
ENDMDL
MODEL 6
REMARK VINA RESULT:      -7.6      5.450      8.929
REMARK  Name = 
REMARK  6 active torsions:
REMARK  status: ('A' for Active; 'I' for Inactive)
REMARK    1  A    between atoms: C_2  and  O_3
REMARK    2  A    between atoms: O_3  and  C_4
REMARK    3  A    between atoms: C_7  and  C_8
REMARK    4  A    between atoms: C_10  and  C_11
REMARK    5  A    between atoms: N_13  and  C_14
REMARK    6  A    between atoms: C_20  and  C_21
REMARK                            x       y       z     vdW  Elec       q    Type
REMARK                         _______ _______ _______ _____ _____    ______ ____
ROOT
ATOM      1  C   UNL     1      39.005   0.169  10.920  0.00  0.00    +0.000 A 
ATOM      2  C   UNL     1      38.491   0.402  12.202  0.00  0.00    +0.000 A 
ATOM      3  C   UNL     1      38.930  -0.352  13.268  0.00  0.00    +0.000 A 
ATOM      4  C   UNL     1      39.874  -1.323  13.030  0.00  0.00    +0.000 A 
ATOM      5  C   UNL     1      40.318  -2.078  14.082  0.00  0.00    +0.000 A 
ATOM      6  C   UNL     1      41.264  -3.051  13.846  0.00  0.00    +0.000 A 
ATOM      7  C   UNL     1      41.780  -3.295  12.594  0.00  0.00    +0.000 A 
ATOM      8  C   UNL     1      41.343  -2.545  11.528  0.00  0.00    +0.000 A 
ATOM      9  C   UNL     1      40.396  -1.569  11.764  0.00  0.00    +0.000 A 
ATOM     10  N   UNL     1      39.923  -0.792  10.750  0.00  0.00    +0.000 NA
ENDROOT
BRANCH   1  14
ATOM     11  C   UNL     1      37.590   2.488   7.668  0.00  0.00    +0.000 A 
ATOM     12  C   UNL     1      36.868   2.405   8.840  0.00  0.00    +0.000 A 
ATOM     13  C   UNL     1      37.367   1.637   9.874  0.00  0.00    +0.000 A 
ATOM     14  C   UNL     1      38.556   0.952   9.781  0.00  0.00    +0.000 A 
ATOM     15  C   UNL     1      39.276   1.037   8.609  0.00  0.00    +0.000 A 
ATOM     16  C   UNL     1      38.791   1.807   7.551  0.00  0.00    +0.000 A 
BRANCH  11  17
ATOM     17  O   UNL     1      37.080   3.263   6.631  0.00  0.00    +0.000 OA
BRANCH  17  19
ATOM     18  C   UNL     1      35.847   1.727   5.304  0.00  0.00    +0.000 C 
ATOM     19  C   UNL     1      35.805   3.035   6.075  0.00  0.00    +0.000 C 
ENDBRANCH  17  19
ENDBRANCH  11  17
ENDBRANCH   1  14
BRANCH   3  20
ATOM     20  C   UNL     1      38.431  -0.153  14.622  0.00  0.00    +0.000 C 
ATOM     21  O   UNL     1      39.061   0.646  15.360  0.00  0.00    +0.000 OA
ATOM     22  N   UNL     1      37.298  -0.804  15.130  0.00  0.00    +0.000 NA
BRANCH  22  23
ATOM     23  C   UNL     1      36.787  -0.636  16.445  0.00  0.00    +0.000 A 
ATOM     24  C   UNL     1      35.882   0.401  16.628  0.00  0.00    +0.000 A 
ATOM     25  C   UNL     1      35.510   1.258  15.482  0.00  0.00    +0.000 C 
ATOM     26  C   UNL     1      35.346   0.611  17.876  0.00  0.00    +0.000 A 
ATOM     27  C   UNL     1      35.701  -0.197  18.932  0.00  0.00    +0.000 A 
ATOM     28  C   UNL     1      36.598  -1.230  18.769  0.00  0.00    +0.000 A 
ATOM     29  C   UNL     1      37.145  -1.447  17.502  0.00  0.00    +0.000 A 
BRANCH  29  30
ATOM     30  C   UNL     1      38.098  -2.557  17.310  0.00  0.00    +0.000 C 
ATOM     31  C   UNL     1      37.453  -3.725  16.581  0.00  0.00    +0.000 C 
ATOM     32  C   UNL     1      38.736  -3.060  18.563  0.00  0.00    +0.000 C 
ENDBRANCH  29  30
ENDBRANCH  22  23
ENDBRANCH   3  20
TORSDOF 6
ENDMDL
MODEL 7
REMARK VINA RESULT:      -7.6      3.154      5.339
REMARK  Name = 
REMARK  6 active torsions:
REMARK  status: ('A' for Active; 'I' for Inactive)
REMARK    1  A    between atoms: C_2  and  O_3
REMARK    2  A    between atoms: O_3  and  C_4
REMARK    3  A    between atoms: C_7  and  C_8
REMARK    4  A    between atoms: C_10  and  C_11
REMARK    5  A    between atoms: N_13  and  C_14
REMARK    6  A    between atoms: C_20  and  C_21
REMARK                            x       y       z     vdW  Elec       q    Type
REMARK                         _______ _______ _______ _____ _____    ______ ____
ROOT
ATOM      1  C   UNL     1      37.735   3.427  16.506  0.00  0.00    +0.000 A 
ATOM      2  C   UNL     1      38.319   2.863  15.364  0.00  0.00    +0.000 A 
ATOM      3  C   UNL     1      37.896   1.635  14.908  0.00  0.00    +0.000 A 
ATOM      4  C   UNL     1      36.896   0.995  15.602  0.00  0.00    +0.000 A 
ATOM      5  C   UNL     1      36.467  -0.227  15.158  0.00  0.00    +0.000 A 
ATOM      6  C   UNL     1      35.465  -0.869  15.852  0.00  0.00    +0.000 A 
ATOM      7  C   UNL     1      34.880  -0.332  16.975  0.00  0.00    +0.000 A 
ATOM      8  C   UNL     1      35.301   0.894  17.433  0.00  0.00    +0.000 A 
ATOM      9  C   UNL     1      36.304   1.538  16.738  0.00  0.00    +0.000 A 
ATOM     10  N   UNL     1      36.765   2.755  17.141  0.00  0.00    +0.000 NA
ENDROOT
BRANCH   1  14
ATOM     11  C   UNL     1      39.037   7.143  18.069  0.00  0.00    +0.000 A 
ATOM     12  C   UNL     1      39.203   5.980  18.791  0.00  0.00    +0.000 A 
ATOM     13  C   UNL     1      38.762   4.791  18.242  0.00  0.00    +0.000 A 
ATOM     14  C   UNL     1      38.167   4.721  17.005  0.00  0.00    +0.000 A 
ATOM     15  C   UNL     1      38.002   5.885  16.286  0.00  0.00    +0.000 A 
ATOM     16  C   UNL     1      38.439   7.099  16.820  0.00  0.00    +0.000 A 
BRANCH  11  17
ATOM     17  O   UNL     1      39.482   8.337  18.629  0.00  0.00    +0.000 OA
BRANCH  17  19
ATOM     18  C   UNL     1      38.509   9.048  20.676  0.00  0.00    +0.000 C 
ATOM     19  C   UNL     1      39.745   8.472  20.007  0.00  0.00    +0.000 C 
ENDBRANCH  17  19
ENDBRANCH  11  17
ENDBRANCH   1  14
BRANCH   3  20
ATOM     20  C   UNL     1      38.467   1.001  13.726  0.00  0.00    +0.000 C 
ATOM     21  O   UNL     1      38.023   1.360  12.606  0.00  0.00    +0.000 OA
ATOM     22  N   UNL     1      39.472   0.026  13.784  0.00  0.00    +0.000 NA
BRANCH  22  23
ATOM     23  C   UNL     1      40.048  -0.613  12.653  0.00  0.00    +0.000 A 
ATOM     24  C   UNL     1      39.512  -1.844  12.300  0.00  0.00    +0.000 A 
ATOM     25  C   UNL     1      38.407  -2.417  13.098  0.00  0.00    +0.000 C 
ATOM     26  C   UNL     1      40.022  -2.510  11.211  0.00  0.00    +0.000 A 
ATOM     27  C   UNL     1      41.050  -1.962  10.478  0.00  0.00    +0.000 A 
ATOM     28  C   UNL     1      41.593  -0.742  10.813  0.00  0.00    +0.000 A 
ATOM     29  C   UNL     1      41.078  -0.061  11.920  0.00  0.00    +0.000 A 
BRANCH  29  30
ATOM     30  C   UNL     1      41.642   1.252  12.284  0.00  0.00    +0.000 C 
ATOM     31  C   UNL     1      41.191   2.339  11.321  0.00  0.00    +0.000 C 
ATOM     32  C   UNL     1      43.132   1.288  12.391  0.00  0.00    +0.000 C 
ENDBRANCH  29  30
ENDBRANCH  22  23
ENDBRANCH   3  20
TORSDOF 6
ENDMDL
MODEL 8
REMARK VINA RESULT:      -7.5      5.295      8.439
REMARK  Name = 
REMARK  6 active torsions:
REMARK  status: ('A' for Active; 'I' for Inactive)
REMARK    1  A    between atoms: C_2  and  O_3
REMARK    2  A    between atoms: O_3  and  C_4
REMARK    3  A    between atoms: C_7  and  C_8
REMARK    4  A    between atoms: C_10  and  C_11
REMARK    5  A    between atoms: N_13  and  C_14
REMARK    6  A    between atoms: C_20  and  C_21
REMARK                            x       y       z     vdW  Elec       q    Type
REMARK                         _______ _______ _______ _____ _____    ______ ____
ROOT
ATOM      1  C   UNL     1      41.166  -1.728  14.471  0.00  0.00    +0.000 A 
ATOM      2  C   UNL     1      40.655  -0.451  14.206  0.00  0.00    +0.000 A 
ATOM      3  C   UNL     1      39.437  -0.074  14.726  0.00  0.00    +0.000 A 
ATOM      4  C   UNL     1      38.754  -0.982  15.502  0.00  0.00    +0.000 A 
ATOM      5  C   UNL     1      37.543  -0.618  16.024  0.00  0.00    +0.000 A 
ATOM      6  C   UNL     1      36.858  -1.525  16.802  0.00  0.00    +0.000 A 
ATOM      7  C   UNL     1      37.343  -2.784  17.073  0.00  0.00    +0.000 A 
ATOM      8  C   UNL     1      38.558  -3.163  16.555  0.00  0.00    +0.000 A 
ATOM      9  C   UNL     1      39.246  -2.254  15.777  0.00  0.00    +0.000 A 
ATOM     10  N   UNL     1      40.455  -2.569  15.234  0.00  0.00    +0.000 NA
ENDROOT
BRANCH   1  14
ATOM     11  C   UNL     1      44.844  -3.021  12.812  0.00  0.00    +0.000 A 
ATOM     12  C   UNL     1      43.645  -3.462  12.293  0.00  0.00    +0.000 A 
ATOM     13  C   UNL     1      42.470  -3.014  12.866  0.00  0.00    +0.000 A 
ATOM     14  C   UNL     1      42.449  -2.147  13.933  0.00  0.00    +0.000 A 
ATOM     15  C   UNL     1      43.649  -1.708  14.449  0.00  0.00    +0.000 A 
ATOM     16  C   UNL     1      44.849  -2.147  13.886  0.00  0.00    +0.000 A 
BRANCH  11  17
ATOM     17  O   UNL     1      46.023  -3.477  12.229  0.00  0.00    +0.000 OA
BRANCH  17  19
ATOM     18  C   UNL     1      47.460  -5.103  13.194  0.00  0.00    +0.000 C 
ATOM     19  C   UNL     1      46.360  -4.844  12.179  0.00  0.00    +0.000 C 
ENDBRANCH  17  19
ENDBRANCH  11  17
ENDBRANCH   1  14
BRANCH   3  20
ATOM     20  C   UNL     1      38.857   1.240  14.482  0.00  0.00    +0.000 C 
ATOM     21  O   UNL     1      39.394   2.223  15.053  0.00  0.00    +0.000 OA
ATOM     22  N   UNL     1      37.747   1.452  13.654  0.00  0.00    +0.000 NA
BRANCH  22  23
ATOM     23  C   UNL     1      37.156   2.719  13.398  0.00  0.00    +0.000 A 
ATOM     24  C   UNL     1      37.539   3.353  12.225  0.00  0.00    +0.000 A 
ATOM     25  C   UNL     1      38.520   2.705  11.329  0.00  0.00    +0.000 C 
ATOM     26  C   UNL     1      36.997   4.579  11.917  0.00  0.00    +0.000 A 
ATOM     27  C   UNL     1      36.084   5.169  12.761  0.00  0.00    +0.000 A 
ATOM     28  C   UNL     1      35.692   4.553  13.929  0.00  0.00    +0.000 A 
ATOM     29  C   UNL     1      36.241   3.308  14.246  0.00  0.00    +0.000 A 
BRANCH  29  30
ATOM     30  C   UNL     1      35.821   2.632  15.488  0.00  0.00    +0.000 C 
ATOM     31  C   UNL     1      34.323   2.760  15.714  0.00  0.00    +0.000 C 
ATOM     32  C   UNL     1      36.537   3.080  16.720  0.00  0.00    +0.000 C 
ENDBRANCH  29  30
ENDBRANCH  22  23
ENDBRANCH   3  20
TORSDOF 6
ENDMDL
MODEL 9
REMARK VINA RESULT:      -7.5      4.408      5.942
REMARK  Name = 
REMARK  6 active torsions:
REMARK  status: ('A' for Active; 'I' for Inactive)
REMARK    1  A    between atoms: C_2  and  O_3
REMARK    2  A    between atoms: O_3  and  C_4
REMARK    3  A    between atoms: C_7  and  C_8
REMARK    4  A    between atoms: C_10  and  C_11
REMARK    5  A    between atoms: N_13  and  C_14
REMARK    6  A    between atoms: C_20  and  C_21
REMARK                            x       y       z     vdW  Elec       q    Type
REMARK                         _______ _______ _______ _____ _____    ______ ____
ROOT
ATOM      1  C   UNL     1      36.361   4.838  13.299  0.00  0.00    +0.000 A 
ATOM      2  C   UNL     1      36.786   3.860  14.208  0.00  0.00    +0.000 A 
ATOM      3  C   UNL     1      37.470   2.752  13.759  0.00  0.00    +0.000 A 
ATOM      4  C   UNL     1      37.716   2.644  12.410  0.00  0.00    +0.000 A 
ATOM      5  C   UNL     1      38.395   1.547  11.953  0.00  0.00    +0.000 A 
ATOM      6  C   UNL     1      38.642   1.437  10.603  0.00  0.00    +0.000 A 
ATOM      7  C   UNL     1      38.232   2.386   9.695  0.00  0.00    +0.000 A 
ATOM      8  C   UNL     1      37.549   3.493  10.139  0.00  0.00    +0.000 A 
ATOM      9  C   UNL     1      37.302   3.604  11.493  0.00  0.00    +0.000 A 
ATOM     10  N   UNL     1      36.629   4.677  11.996  0.00  0.00    +0.000 NA
ENDROOT
BRANCH   1  14
ATOM     11  C   UNL     1      34.366   8.326  14.642  0.00  0.00    +0.000 A 
ATOM     12  C   UNL     1      35.743   8.248  14.669  0.00  0.00    +0.000 A 
ATOM     13  C   UNL     1      36.350   7.091  14.221  0.00  0.00    +0.000 A 
ATOM     14  C   UNL     1      35.637   6.014  13.750  0.00  0.00    +0.000 A 
ATOM     15  C   UNL     1      34.262   6.094  13.724  0.00  0.00    +0.000 A 
ATOM     16  C   UNL     1      33.626   7.253  14.172  0.00  0.00    +0.000 A 
BRANCH  11  17
ATOM     17  O   UNL     1      33.761   9.494  15.095  0.00  0.00    +0.000 OA
BRANCH  17  19
ATOM     18  C   UNL     1      33.057   9.225  17.347  0.00  0.00    +0.000 C 
ATOM     19  C   UNL     1      33.962   9.992  16.398  0.00  0.00    +0.000 C 
ENDBRANCH  17  19
ENDBRANCH  11  17
ENDBRANCH   1  14
BRANCH   3  20
ATOM     20  C   UNL     1      37.936   1.705  14.659  0.00  0.00    +0.000 C 
ATOM     21  O   UNL     1      38.938   1.960  15.373  0.00  0.00    +0.000 OA
ATOM     22  N   UNL     1      37.325   0.448  14.761  0.00  0.00    +0.000 NA
BRANCH  22  23
ATOM     23  C   UNL     1      37.755  -0.595  15.625  0.00  0.00    +0.000 A 
ATOM     24  C   UNL     1      37.005  -0.792  16.776  0.00  0.00    +0.000 A 
ATOM     25  C   UNL     1      35.836   0.071  17.044  0.00  0.00    +0.000 C 
ATOM     26  C   UNL     1      37.366  -1.791  17.649  0.00  0.00    +0.000 A 
ATOM     27  C   UNL     1      38.457  -2.587  17.384  0.00  0.00    +0.000 A 
ATOM     28  C   UNL     1      39.213  -2.406  16.247  0.00  0.00    +0.000 A 
ATOM     29  C   UNL     1      38.849  -1.391  15.357  0.00  0.00    +0.000 A 
BRANCH  29  30
ATOM     30  C   UNL     1      39.642  -1.194  14.129  0.00  0.00    +0.000 C 
ATOM     31  C   UNL     1      39.188  -2.125  13.016  0.00  0.00    +0.000 C 
ATOM     32  C   UNL     1      41.119  -1.334  14.306  0.00  0.00    +0.000 C 
ENDBRANCH  29  30
ENDBRANCH  22  23
ENDBRANCH   3  20
TORSDOF 6
ENDMDL
MODEL 10
REMARK VINA RESULT:      -7.4      3.650      9.568
REMARK  Name = 
REMARK  6 active torsions:
REMARK  status: ('A' for Active; 'I' for Inactive)
REMARK    1  A    between atoms: C_2  and  O_3
REMARK    2  A    between atoms: O_3  and  C_4
REMARK    3  A    between atoms: C_7  and  C_8
REMARK    4  A    between atoms: C_10  and  C_11
REMARK    5  A    between atoms: N_13  and  C_14
REMARK    6  A    between atoms: C_20  and  C_21
REMARK                            x       y       z     vdW  Elec       q    Type
REMARK                         _______ _______ _______ _____ _____    ______ ____
ROOT
ATOM      1  C   UNL     1      38.176  -2.454  14.961  0.00  0.00    +0.000 A 
ATOM      2  C   UNL     1      37.663  -1.183  14.668  0.00  0.00    +0.000 A 
ATOM      3  C   UNL     1      38.517  -0.153  14.345  0.00  0.00    +0.000 A 
ATOM      4  C   UNL     1      39.867  -0.412  14.321  0.00  0.00    +0.000 A 
ATOM      5  C   UNL     1      40.725   0.605  14.001  0.00  0.00    +0.000 A 
ATOM      6  C   UNL     1      42.078   0.347  13.975  0.00  0.00    +0.000 A 
ATOM      7  C   UNL     1      42.601  -0.893  14.261  0.00  0.00    +0.000 A 
ATOM      8  C   UNL     1      41.751  -1.924  14.584  0.00  0.00    +0.000 A 
ATOM      9  C   UNL     1      40.396  -1.666  14.608  0.00  0.00    +0.000 A 
ATOM     10  N   UNL     1      39.502  -2.646  14.921  0.00  0.00    +0.000 NA
ENDROOT
BRANCH   1  14
ATOM     11  C   UNL     1      35.523  -5.631  15.866  0.00  0.00    +0.000 A 
ATOM     12  C   UNL     1      35.241  -4.748  14.845  0.00  0.00    +0.000 A 
ATOM     13  C   UNL     1      36.135  -3.726  14.586  0.00  0.00    +0.000 A 
ATOM     14  C   UNL     1      37.294  -3.556  15.304  0.00  0.00    +0.000 A 
ATOM     15  C   UNL     1      37.574  -4.439  16.324  0.00  0.00    +0.000 A 
ATOM     16  C   UNL     1      36.686  -5.479  16.605  0.00  0.00    +0.000 A 
BRANCH  11  17
ATOM     17  O   UNL     1      34.618  -6.656  16.122  0.00  0.00    +0.000 OA
BRANCH  17  19
ATOM     18  C   UNL     1      33.568  -8.162  14.614  0.00  0.00    +0.000 C 
ATOM     19  C   UNL     1      33.450  -6.841  15.354  0.00  0.00    +0.000 C 
ENDBRANCH  17  19
ENDBRANCH  11  17
ENDBRANCH   1  14
BRANCH   3  20
ATOM     20  C   UNL     1      38.038   1.188  14.031  0.00  0.00    +0.000 C 
ATOM     21  O   UNL     1      37.956   1.503  12.817  0.00  0.00    +0.000 OA
ATOM     22  N   UNL     1      37.672   2.124  15.008  0.00  0.00    +0.000 NA
BRANCH  22  23
ATOM     23  C   UNL     1      37.205   3.438  14.737  0.00  0.00    +0.000 A 
ATOM     24  C   UNL     1      35.834   3.586  14.579  0.00  0.00    +0.000 A 
ATOM     25  C   UNL     1      34.953   2.404  14.689  0.00  0.00    +0.000 C 
ATOM     26  C   UNL     1      35.319   4.835  14.322  0.00  0.00    +0.000 A 
ATOM     27  C   UNL     1      36.152   5.925  14.223  0.00  0.00    +0.000 A 
ATOM     28  C   UNL     1      37.515   5.797  14.377  0.00  0.00    +0.000 A 
ATOM     29  C   UNL     1      38.043   4.530  14.638  0.00  0.00    +0.000 A 
BRANCH  29  30
ATOM     30  C   UNL     1      39.499   4.379  14.817  0.00  0.00    +0.000 C 
ATOM     31  C   UNL     1      40.077   5.506  15.659  0.00  0.00    +0.000 C 
ATOM     32  C   UNL     1      40.280   4.273  13.548  0.00  0.00    +0.000 C 
ENDBRANCH  29  30
ENDBRANCH  22  23
ENDBRANCH   3  20
TORSDOF 6
ENDMDL
