MODEL 1
REMARK VINA RESULT:      -7.0      0.000      0.000
REMARK  Name = 
REMARK  4 active torsions:
REMARK  status: ('A' for Active; 'I' for Inactive)
REMARK    1  A    between atoms: C_8  and  N_9
REMARK    2  A    between atoms: C_10  and  C_12
REMARK    3  A    between atoms: C_12  and  C_14
REMARK    4  A    between atoms: C_17  and  N_18
REMARK                            x       y       z     vdW  Elec       q    Type
REMARK                         _______ _______ _______ _____ _____    ______ ____
ROOT
ATOM      1  N   UNL     1      16.971  10.425  36.920  0.00  0.00    +0.000 NA
ATOM      2  C   UNL     1      17.932  11.246  37.584  0.00  0.00    +0.000 C 
ATOM      3  O   UNL     1      18.188  12.395  37.274  0.00  0.00    +0.000 OA
ENDROOT
BRANCH   1  11
ATOM      4  C   UNL     1      14.585  12.031  37.313  0.00  0.00    +0.000 C 
ATOM      5  C   UNL     1      15.170  11.786  35.955  0.00  0.00    +0.000 A 
ATOM      6  C   UNL     1      14.544  12.350  34.853  0.00  0.00    +0.000 A 
ATOM      7  C   UNL     1      15.048  12.150  33.597  0.00  0.00    +0.000 A 
ATOM      8  C   UNL     1      16.178  11.386  33.450  0.00  0.00    +0.000 A 
ATOM      9  C   UNL     1      16.793  10.827  34.565  0.00  0.00    +0.000 A 
ATOM     10  C   UNL     1      18.008  10.016  34.318  0.00  0.00    +0.000 C 
ATOM     11  C   UNL     1      16.299  11.019  35.833  0.00  0.00    +0.000 A 
ENDBRANCH   1  11
BRANCH   2  12
ATOM     12  C   UNL     1      18.685  10.534  38.818  0.00  0.00    +0.000 C 
ATOM     13  C   UNL     1      18.388   8.991  38.304  0.00  0.00    +0.000 C 
BRANCH  12  14
ATOM     14  C   UNL     1      20.147  10.626  38.190  0.00  0.00    +0.000 A 
ATOM     15  C   UNL     1      20.435   9.791  37.164  0.00  0.00    +0.000 A 
ATOM     16  C   UNL     1      21.677   9.832  36.569  0.00  0.00    +0.000 A 
ATOM     17  C   UNL     1      22.623  10.745  37.040  0.00  0.00    +0.000 A 
ATOM     18  C   UNL     1      22.293  11.582  38.088  0.00  0.00    +0.000 A 
ATOM     19  C   UNL     1      21.039  11.509  38.655  0.00  0.00    +0.000 A 
BRANCH  17  20
ATOM     20  N   UNL     1      23.900  10.807  36.448  0.00  0.00    +0.000 N 
ATOM     21  O   UNL     1      24.585  11.825  36.581  0.00  0.00    +0.000 OA
ATOM     22  O   UNL     1      24.360   9.733  35.735  0.00  0.00    +0.000 OA
ENDBRANCH  17  20
ENDBRANCH  12  14
ENDBRANCH   2  12
TORSDOF 4
ENDMDL
MODEL 2
REMARK VINA RESULT:      -6.4     18.037     19.896
REMARK  Name = 
REMARK  4 active torsions:
REMARK  status: ('A' for Active; 'I' for Inactive)
REMARK    1  A    between atoms: C_8  and  N_9
REMARK    2  A    between atoms: C_10  and  C_12
REMARK    3  A    between atoms: C_12  and  C_14
REMARK    4  A    between atoms: C_17  and  N_18
REMARK                            x       y       z     vdW  Elec       q    Type
REMARK                         _______ _______ _______ _____ _____    ______ ____
ROOT
ATOM      1  N   UNL     1      27.615  22.369  27.431  0.00  0.00    +0.000 NA
ATOM      2  C   UNL     1      27.142  23.586  26.850  0.00  0.00    +0.000 C 
ATOM      3  O   UNL     1      27.536  24.695  27.160  0.00  0.00    +0.000 OA
ENDROOT
BRANCH   1  11
ATOM      4  C   UNL     1      30.437  22.497  26.764  0.00  0.00    +0.000 C 
ATOM      5  C   UNL     1      29.945  22.571  28.178  0.00  0.00    +0.000 A 
ATOM      6  C   UNL     1      30.876  22.705  29.197  0.00  0.00    +0.000 A 
ATOM      7  C   UNL     1      30.466  22.776  30.500  0.00  0.00    +0.000 A 
ATOM      8  C   UNL     1      29.124  22.714  30.777  0.00  0.00    +0.000 A 
ATOM      9  C   UNL     1      28.204  22.578  29.744  0.00  0.00    +0.000 A 
ATOM     10  C   UNL     1      26.774  22.518  30.130  0.00  0.00    +0.000 C 
ATOM     11  C   UNL     1      28.600  22.506  28.430  0.00  0.00    +0.000 A 
ENDBRANCH   1  11
BRANCH   2  12
ATOM     12  C   UNL     1      26.014  23.394  25.717  0.00  0.00    +0.000 C 
ATOM     13  C   UNL     1      25.283  24.852  25.984  0.00  0.00    +0.000 C 
BRANCH  12  14
ATOM     14  C   UNL     1      26.918  23.895  24.503  0.00  0.00    +0.000 A 
ATOM     15  C   UNL     1      26.611  25.095  23.956  0.00  0.00    +0.000 A 
ATOM     16  C   UNL     1      27.363  25.590  22.914  0.00  0.00    +0.000 A 
ATOM     17  C   UNL     1      28.439  24.836  22.438  0.00  0.00    +0.000 A 
ATOM     18  C   UNL     1      28.722  23.617  23.021  0.00  0.00    +0.000 A 
ATOM     19  C   UNL     1      27.944  23.158  24.062  0.00  0.00    +0.000 A 
BRANCH  17  20
ATOM     20  N   UNL     1      29.224  25.322  21.372  0.00  0.00    +0.000 N 
ATOM     21  O   UNL     1      29.755  24.524  20.595  0.00  0.00    +0.000 OA
ATOM     22  O   UNL     1      29.381  26.672  21.217  0.00  0.00    +0.000 OA
ENDBRANCH  17  20
ENDBRANCH  12  14
ENDBRANCH   2  12
TORSDOF 4
ENDMDL
MODEL 3
REMARK VINA RESULT:      -6.2      2.447      6.631
REMARK  Name = 
REMARK  4 active torsions:
REMARK  status: ('A' for Active; 'I' for Inactive)
REMARK    1  A    between atoms: C_8  and  N_9
REMARK    2  A    between atoms: C_10  and  C_12
REMARK    3  A    between atoms: C_12  and  C_14
REMARK    4  A    between atoms: C_17  and  N_18
REMARK                            x       y       z     vdW  Elec       q    Type
REMARK                         _______ _______ _______ _____ _____    ______ ____
ROOT
ATOM      1  N   UNL     1      20.021  10.794  39.126  0.00  0.00    +0.000 NA
ATOM      2  C   UNL     1      19.881   9.979  37.962  0.00  0.00    +0.000 C 
ATOM      3  O   UNL     1      20.649   9.990  37.018  0.00  0.00    +0.000 OA
ENDROOT
BRANCH   1  11
ATOM      4  C   UNL     1      22.617   9.904  40.074  0.00  0.00    +0.000 C 
ATOM      5  C   UNL     1      22.382  11.298  39.578  0.00  0.00    +0.000 A 
ATOM      6  C   UNL     1      23.446  12.188  39.575  0.00  0.00    +0.000 A 
ATOM      7  C   UNL     1      23.272  13.469  39.128  0.00  0.00    +0.000 A 
ATOM      8  C   UNL     1      22.031  13.854  38.687  0.00  0.00    +0.000 A 
ATOM      9  C   UNL     1      20.974  12.950  38.698  0.00  0.00    +0.000 A 
ATOM     10  C   UNL     1      19.668  13.447  38.204  0.00  0.00    +0.000 C 
ATOM     11  C   UNL     1      21.134  11.659  39.143  0.00  0.00    +0.000 A 
ENDBRANCH   1  11
BRANCH   2  12
ATOM     12  C   UNL     1      18.597   9.007  37.974  0.00  0.00    +0.000 C 
ATOM     13  C   UNL     1      17.785   9.846  39.143  0.00  0.00    +0.000 C 
BRANCH  12  14
ATOM     14  C   UNL     1      17.857   9.700  36.744  0.00  0.00    +0.000 A 
ATOM     15  C   UNL     1      17.260  10.893  36.973  0.00  0.00    +0.000 A 
ATOM     16  C   UNL     1      16.617  11.550  35.947  0.00  0.00    +0.000 A 
ATOM     17  C   UNL     1      16.595  10.965  34.679  0.00  0.00    +0.000 A 
ATOM     18  C   UNL     1      17.215   9.747  34.483  0.00  0.00    +0.000 A 
ATOM     19  C   UNL     1      17.847   9.124  35.536  0.00  0.00    +0.000 A 
BRANCH  17  20
ATOM     20  N   UNL     1      15.943  11.618  33.613  0.00  0.00    +0.000 N 
ATOM     21  O   UNL     1      16.364  11.473  32.461  0.00  0.00    +0.000 OA
ATOM     22  O   UNL     1      14.851  12.400  33.874  0.00  0.00    +0.000 OA
ENDBRANCH  17  20
ENDBRANCH  12  14
ENDBRANCH   2  12
TORSDOF 4
ENDMDL
MODEL 4
REMARK VINA RESULT:      -6.2     17.709     19.237
REMARK  Name = 
REMARK  4 active torsions:
REMARK  status: ('A' for Active; 'I' for Inactive)
REMARK    1  A    between atoms: C_8  and  N_9
REMARK    2  A    between atoms: C_10  and  C_12
REMARK    3  A    between atoms: C_12  and  C_14
REMARK    4  A    between atoms: C_17  and  N_18
REMARK                            x       y       z     vdW  Elec       q    Type
REMARK                         _______ _______ _______ _____ _____    ______ ____
ROOT
ATOM      1  N   UNL     1      28.827  24.375  25.249  0.00  0.00    +0.000 NA
ATOM      2  C   UNL     1      29.823  23.376  25.473  0.00  0.00    +0.000 C 
ATOM      3  O   UNL     1      30.022  22.426  24.739  0.00  0.00    +0.000 OA
ENDROOT
BRANCH   1  11
ATOM      4  C   UNL     1      26.338  22.882  25.315  0.00  0.00    +0.000 C 
ATOM      5  C   UNL     1      26.856  23.517  24.061  0.00  0.00    +0.000 A 
ATOM      6  C   UNL     1      26.116  23.383  22.896  0.00  0.00    +0.000 A 
ATOM      7  C   UNL     1      26.556  23.949  21.731  0.00  0.00    +0.000 A 
ATOM      8  C   UNL     1      27.737  24.648  21.738  0.00  0.00    +0.000 A 
ATOM      9  C   UNL     1      28.467  24.773  22.915  0.00  0.00    +0.000 A 
ATOM     10  C   UNL     1      29.731  25.543  22.835  0.00  0.00    +0.000 C 
ATOM     11  C   UNL     1      28.038  24.210  24.093  0.00  0.00    +0.000 A 
ENDBRANCH   1  11
BRANCH   2  12
ATOM     12  C   UNL     1      30.702  23.592  26.805  0.00  0.00    +0.000 C 
ATOM     13  C   UNL     1      30.636  25.243  26.763  0.00  0.00    +0.000 C 
BRANCH  12  14
ATOM     14  C   UNL     1      29.492  23.415  27.828  0.00  0.00    +0.000 A 
ATOM     15  C   UNL     1      29.185  24.474  28.613  0.00  0.00    +0.000 A 
ATOM     16  C   UNL     1      28.140  24.390  29.507  0.00  0.00    +0.000 A 
ATOM     17  C   UNL     1      27.411  23.200  29.585  0.00  0.00    +0.000 A 
ATOM     18  C   UNL     1      27.754  22.142  28.767  0.00  0.00    +0.000 A 
ATOM     19  C   UNL     1      28.806  22.268  27.887  0.00  0.00    +0.000 A 
BRANCH  17  20
ATOM     20  N   UNL     1      26.338  23.089  30.492  0.00  0.00    +0.000 N 
ATOM     21  O   UNL     1      25.828  24.112  30.960  0.00  0.00    +0.000 OA
ATOM     22  O   UNL     1      25.877  21.848  30.836  0.00  0.00    +0.000 OA
ENDBRANCH  17  20
ENDBRANCH  12  14
ENDBRANCH   2  12
TORSDOF 4
ENDMDL
MODEL 5
REMARK VINA RESULT:      -6.1     17.817     19.596
REMARK  Name = 
REMARK  4 active torsions:
REMARK  status: ('A' for Active; 'I' for Inactive)
REMARK    1  A    between atoms: C_8  and  N_9
REMARK    2  A    between atoms: C_10  and  C_12
REMARK    3  A    between atoms: C_12  and  C_14
REMARK    4  A    between atoms: C_17  and  N_18
REMARK                            x       y       z     vdW  Elec       q    Type
REMARK                         _______ _______ _______ _____ _____    ______ ____
ROOT
ATOM      1  N   UNL     1      29.196  23.319  28.793  0.00  0.00    +0.000 NA
ATOM      2  C   UNL     1      29.909  24.244  27.970  0.00  0.00    +0.000 C 
ATOM      3  O   UNL     1      29.615  25.417  27.840  0.00  0.00    +0.000 OA
ENDROOT
BRANCH   1  11
ATOM      4  C   UNL     1      26.578  23.451  27.544  0.00  0.00    +0.000 C 
ATOM      5  C   UNL     1      26.821  23.928  28.944  0.00  0.00    +0.000 A 
ATOM      6  C   UNL     1      25.755  24.448  29.661  0.00  0.00    +0.000 A 
ATOM      7  C   UNL     1      25.936  24.892  30.942  0.00  0.00    +0.000 A 
ATOM      8  C   UNL     1      27.187  24.813  31.500  0.00  0.00    +0.000 A 
ATOM      9  C   UNL     1      28.247  24.289  30.767  0.00  0.00    +0.000 A 
ATOM     10  C   UNL     1      29.564  24.240  31.444  0.00  0.00    +0.000 C 
ATOM     11  C   UNL     1      28.080  23.839  29.480  0.00  0.00    +0.000 A 
ENDBRANCH   1  11
BRANCH   2  12
ATOM     12  C   UNL     1      31.174  23.616  27.197  0.00  0.00    +0.000 C 
ATOM     13  C   UNL     1      30.767  22.042  27.495  0.00  0.00    +0.000 C 
BRANCH  12  14
ATOM     14  C   UNL     1      30.521  23.672  25.744  0.00  0.00    +0.000 A 
ATOM     15  C   UNL     1      30.950  24.646  24.909  0.00  0.00    +0.000 A 
ATOM     16  C   UNL     1      30.434  24.739  23.635  0.00  0.00    +0.000 A 
ATOM     17  C   UNL     1      29.469  23.815  23.227  0.00  0.00    +0.000 A 
ATOM     18  C   UNL     1      29.056  22.835  24.107  0.00  0.00    +0.000 A 
ATOM     19  C   UNL     1      29.597  22.777  25.372  0.00  0.00    +0.000 A 
BRANCH  17  20
ATOM     20  N   UNL     1      28.926  23.889  21.928  0.00  0.00    +0.000 N 
ATOM     21  O   UNL     1      29.609  24.348  21.008  0.00  0.00    +0.000 OA
ATOM     22  O   UNL     1      27.650  23.448  21.709  0.00  0.00    +0.000 OA
ENDBRANCH  17  20
ENDBRANCH  12  14
ENDBRANCH   2  12
TORSDOF 4
ENDMDL
MODEL 6
REMARK VINA RESULT:      -6.0     19.166     20.945
REMARK  Name = 
REMARK  4 active torsions:
REMARK  status: ('A' for Active; 'I' for Inactive)
REMARK    1  A    between atoms: C_8  and  N_9
REMARK    2  A    between atoms: C_10  and  C_12
REMARK    3  A    between atoms: C_12  and  C_14
REMARK    4  A    between atoms: C_17  and  N_18
REMARK                            x       y       z     vdW  Elec       q    Type
REMARK                         _______ _______ _______ _____ _____    ______ ____
ROOT
ATOM      1  N   UNL     1      27.961  24.308  26.117  0.00  0.00    +0.000 NA
ATOM      2  C   UNL     1      26.871  23.499  25.671  0.00  0.00    +0.000 C 
ATOM      3  O   UNL     1      26.773  22.304  25.878  0.00  0.00    +0.000 OA
ENDROOT
BRANCH   1  11
ATOM      4  C   UNL     1      30.141  22.955  24.760  0.00  0.00    +0.000 C 
ATOM      5  C   UNL     1      30.024  22.983  26.254  0.00  0.00    +0.000 A 
ATOM      6  C   UNL     1      30.994  22.339  27.006  0.00  0.00    +0.000 A 
ATOM      7  C   UNL     1      30.922  22.342  28.373  0.00  0.00    +0.000 A 
ATOM      8  C   UNL     1      29.877  22.993  28.979  0.00  0.00    +0.000 A 
ATOM      9  C   UNL     1      28.912  23.634  28.210  0.00  0.00    +0.000 A 
ATOM     10  C   UNL     1      27.818  24.312  28.944  0.00  0.00    +0.000 C 
ATOM     11  C   UNL     1      28.971  23.639  26.837  0.00  0.00    +0.000 A 
ENDBRANCH   1  11
BRANCH   2  12
ATOM     12  C   UNL     1      25.738  24.294  24.849  0.00  0.00    +0.000 C 
ATOM     13  C   UNL     1      25.863  25.687  25.729  0.00  0.00    +0.000 C 
BRANCH  12  14
ATOM     14  C   UNL     1      26.698  24.770  23.669  0.00  0.00    +0.000 A 
ATOM     15  C   UNL     1      26.990  26.090  23.601  0.00  0.00    +0.000 A 
ATOM     16  C   UNL     1      27.826  26.562  22.614  0.00  0.00    +0.000 A 
ATOM     17  C   UNL     1      28.362  25.659  21.693  0.00  0.00    +0.000 A 
ATOM     18  C   UNL     1      28.042  24.319  21.793  0.00  0.00    +0.000 A 
ATOM     19  C   UNL     1      27.202  23.889  22.797  0.00  0.00    +0.000 A 
BRANCH  17  20
ATOM     20  N   UNL     1      29.220  26.118  20.673  0.00  0.00    +0.000 N 
ATOM     21  O   UNL     1      29.807  25.301  19.957  0.00  0.00    +0.000 OA
ATOM     22  O   UNL     1      29.386  27.464  20.492  0.00  0.00    +0.000 OA
ENDBRANCH  17  20
ENDBRANCH  12  14
ENDBRANCH   2  12
TORSDOF 4
ENDMDL
MODEL 7
REMARK VINA RESULT:      -6.0      2.260      6.862
REMARK  Name = 
REMARK  4 active torsions:
REMARK  status: ('A' for Active; 'I' for Inactive)
REMARK    1  A    between atoms: C_8  and  N_9
REMARK    2  A    between atoms: C_10  and  C_12
REMARK    3  A    between atoms: C_12  and  C_14
REMARK    4  A    between atoms: C_17  and  N_18
REMARK                            x       y       z     vdW  Elec       q    Type
REMARK                         _______ _______ _______ _____ _____    ______ ____
ROOT
ATOM      1  N   UNL     1      21.647   9.725  38.301  0.00  0.00    +0.000 NA
ATOM      2  C   UNL     1      20.339  10.285  38.174  0.00  0.00    +0.000 C 
ATOM      3  O   UNL     1      20.112  11.463  37.969  0.00  0.00    +0.000 OA
ENDROOT
BRANCH   1  11
ATOM      4  C   UNL     1      23.008  10.128  35.769  0.00  0.00    +0.000 C 
ATOM      5  C   UNL     1      23.401  10.864  37.013  0.00  0.00    +0.000 A 
ATOM      6  C   UNL     1      24.451  11.767  36.945  0.00  0.00    +0.000 A 
ATOM      7  C   UNL     1      24.839  12.459  38.060  0.00  0.00    +0.000 A 
ATOM      8  C   UNL     1      24.172  12.243  39.239  0.00  0.00    +0.000 A 
ATOM      9  C   UNL     1      23.121  11.334  39.291  0.00  0.00    +0.000 A 
ATOM     10  C   UNL     1      22.455  11.161  40.603  0.00  0.00    +0.000 C 
ATOM     11  C   UNL     1      22.720  10.632  38.180  0.00  0.00    +0.000 A 
ENDBRANCH   1  11
BRANCH   2  12
ATOM     12  C   UNL     1      19.138   9.223  38.323  0.00  0.00    +0.000 C 
ATOM     13  C   UNL     1      18.297  10.104  39.441  0.00  0.00    +0.000 C 
BRANCH  12  14
ATOM     14  C   UNL     1      18.308   9.740  37.064  0.00  0.00    +0.000 A 
ATOM     15  C   UNL     1      18.781   9.421  35.836  0.00  0.00    +0.000 A 
ATOM     16  C   UNL     1      18.101   9.825  34.708  0.00  0.00    +0.000 A 
ATOM     17  C   UNL     1      16.925  10.564  34.857  0.00  0.00    +0.000 A 
ATOM     18  C   UNL     1      16.473  10.871  36.125  0.00  0.00    +0.000 A 
ATOM     19  C   UNL     1      17.183  10.447  37.227  0.00  0.00    +0.000 A 
BRANCH  17  20
ATOM     20  N   UNL     1      16.211  10.990  33.718  0.00  0.00    +0.000 N 
ATOM     21  O   UNL     1      16.514  10.543  32.608  0.00  0.00    +0.000 OA
ATOM     22  O   UNL     1      15.193  11.892  33.864  0.00  0.00    +0.000 OA
ENDBRANCH  17  20
ENDBRANCH  12  14
ENDBRANCH   2  12
TORSDOF 4
ENDMDL
MODEL 8
REMARK VINA RESULT:      -6.0     19.116     20.810
REMARK  Name = 
REMARK  4 active torsions:
REMARK  status: ('A' for Active; 'I' for Inactive)
REMARK    1  A    between atoms: C_8  and  N_9
REMARK    2  A    between atoms: C_10  and  C_12
REMARK    3  A    between atoms: C_12  and  C_14
REMARK    4  A    between atoms: C_17  and  N_18
REMARK                            x       y       z     vdW  Elec       q    Type
REMARK                         _______ _______ _______ _____ _____    ______ ____
ROOT
ATOM      1  N   UNL     1      27.904  24.341  26.313  0.00  0.00    +0.000 NA
ATOM      2  C   UNL     1      26.883  23.507  25.766  0.00  0.00    +0.000 C 
ATOM      3  O   UNL     1      26.858  22.294  25.866  0.00  0.00    +0.000 OA
ENDROOT
BRANCH   1  11
ATOM      4  C   UNL     1      27.774  23.909  29.181  0.00  0.00    +0.000 C 
ATOM      5  C   UNL     1      28.935  23.444  28.354  0.00  0.00    +0.000 A 
ATOM      6  C   UNL     1      29.978  22.786  28.987  0.00  0.00    +0.000 A 
ATOM      7  C   UNL     1      31.054  22.346  28.267  0.00  0.00    +0.000 A 
ATOM      8  C   UNL     1      31.080  22.568  26.913  0.00  0.00    +0.000 A 
ATOM      9  C   UNL     1      30.026  23.230  26.293  0.00  0.00    +0.000 A 
ATOM     10  C   UNL     1      30.134  23.428  24.828  0.00  0.00    +0.000 C 
ATOM     11  C   UNL     1      28.938  23.678  27.004  0.00  0.00    +0.000 A 
ENDBRANCH   1  11
BRANCH   2  12
ATOM     12  C   UNL     1      25.720  24.297  24.980  0.00  0.00    +0.000 C 
ATOM     13  C   UNL     1      25.840  25.677  25.882  0.00  0.00    +0.000 C 
BRANCH  12  14
ATOM     14  C   UNL     1      26.649  24.810  23.790  0.00  0.00    +0.000 A 
ATOM     15  C   UNL     1      27.023  23.900  22.860  0.00  0.00    +0.000 A 
ATOM     16  C   UNL     1      27.813  24.284  21.799  0.00  0.00    +0.000 A 
ATOM     17  C   UNL     1      28.216  25.618  21.704  0.00  0.00    +0.000 A 
ATOM     18  C   UNL     1      27.814  26.517  22.671  0.00  0.00    +0.000 A 
ATOM     19  C   UNL     1      27.024  26.092  23.716  0.00  0.00    +0.000 A 
BRANCH  17  20
ATOM     20  N   UNL     1      29.025  26.035  20.627  0.00  0.00    +0.000 N 
ATOM     21  O   UNL     1      29.797  25.230  20.098  0.00  0.00    +0.000 OA
ATOM     22  O   UNL     1      28.939  27.327  20.186  0.00  0.00    +0.000 OA
ENDBRANCH  17  20
ENDBRANCH  12  14
ENDBRANCH   2  12
TORSDOF 4
ENDMDL
MODEL 9
REMARK VINA RESULT:      -5.9     17.438     19.364
REMARK  Name = 
REMARK  4 active torsions:
REMARK  status: ('A' for Active; 'I' for Inactive)
REMARK    1  A    between atoms: C_8  and  N_9
REMARK    2  A    between atoms: C_10  and  C_12
REMARK    3  A    between atoms: C_12  and  C_14
REMARK    4  A    between atoms: C_17  and  N_18
REMARK                            x       y       z     vdW  Elec       q    Type
REMARK                         _______ _______ _______ _____ _____    ______ ____
ROOT
ATOM      1  N   UNL     1      28.313  24.073  28.194  0.00  0.00    +0.000 NA
ATOM      2  C   UNL     1      27.092  23.351  28.361  0.00  0.00    +0.000 C 
ATOM      3  O   UNL     1      27.019  22.209  28.775  0.00  0.00    +0.000 OA
ENDROOT
BRANCH   1  11
ATOM      4  C   UNL     1      29.316  24.049  30.918  0.00  0.00    +0.000 C 
ATOM      5  C   UNL     1      30.014  23.331  29.803  0.00  0.00    +0.000 A 
ATOM      6  C   UNL     1      31.177  22.634  30.090  0.00  0.00    +0.000 A 
ATOM      7  C   UNL     1      31.843  21.965  29.099  0.00  0.00    +0.000 A 
ATOM      8  C   UNL     1      31.338  21.998  27.824  0.00  0.00    +0.000 A 
ATOM      9  C   UNL     1      30.171  22.702  27.552  0.00  0.00    +0.000 A 
ATOM     10  C   UNL     1      29.695  22.686  26.149  0.00  0.00    +0.000 C 
ATOM     11  C   UNL     1      29.491  23.379  28.537  0.00  0.00    +0.000 A 
ENDBRANCH   1  11
BRANCH   2  12
ATOM     12  C   UNL     1      25.767  24.172  27.955  0.00  0.00    +0.000 C 
ATOM     13  C   UNL     1      26.423  25.663  28.232  0.00  0.00    +0.000 C 
BRANCH  12  14
ATOM     14  C   UNL     1      26.049  24.168  26.386  0.00  0.00    +0.000 A 
ATOM     15  C   UNL     1      26.329  25.358  25.804  0.00  0.00    +0.000 A 
ATOM     16  C   UNL     1      26.597  25.420  24.454  0.00  0.00    +0.000 A 
ATOM     17  C   UNL     1      26.574  24.240  23.706  0.00  0.00    +0.000 A 
ATOM     18  C   UNL     1      26.285  23.045  24.334  0.00  0.00    +0.000 A 
ATOM     19  C   UNL     1      26.023  23.028  25.687  0.00  0.00    +0.000 A 
BRANCH  17  20
ATOM     20  N   UNL     1      26.844  24.277  22.323  0.00  0.00    +0.000 N 
ATOM     21  O   UNL     1      26.355  23.419  21.583  0.00  0.00    +0.000 OA
ATOM     22  O   UNL     1      27.645  25.268  21.823  0.00  0.00    +0.000 OA
ENDBRANCH  17  20
ENDBRANCH  12  14
ENDBRANCH   2  12
TORSDOF 4
ENDMDL
MODEL 10
REMARK VINA RESULT:      -5.9     18.246     19.847
REMARK  Name = 
REMARK  4 active torsions:
REMARK  status: ('A' for Active; 'I' for Inactive)
REMARK    1  A    between atoms: C_8  and  N_9
REMARK    2  A    between atoms: C_10  and  C_12
REMARK    3  A    between atoms: C_12  and  C_14
REMARK    4  A    between atoms: C_17  and  N_18
REMARK                            x       y       z     vdW  Elec       q    Type
REMARK                         _______ _______ _______ _____ _____    ______ ____
ROOT
ATOM      1  N   UNL     1      27.930  24.329  26.504  0.00  0.00    +0.000 NA
ATOM      2  C   UNL     1      27.649  23.479  25.391  0.00  0.00    +0.000 C 
ATOM      3  O   UNL     1      27.124  22.385  25.477  0.00  0.00    +0.000 OA
ENDROOT
BRANCH   1  11
ATOM      4  C   UNL     1      25.256  24.714  27.568  0.00  0.00    +0.000 C 
ATOM      5  C   UNL     1      26.320  23.979  28.325  0.00  0.00    +0.000 A 
ATOM      6  C   UNL     1      26.009  23.467  29.576  0.00  0.00    +0.000 A 
ATOM      7  C   UNL     1      26.953  22.789  30.298  0.00  0.00    +0.000 A 
ATOM      8  C   UNL     1      28.206  22.627  29.762  0.00  0.00    +0.000 A 
ATOM      9  C   UNL     1      28.502  23.146  28.507  0.00  0.00    +0.000 A 
ATOM     10  C   UNL     1      29.878  22.926  28.003  0.00  0.00    +0.000 C 
ATOM     11  C   UNL     1      27.564  23.829  27.770  0.00  0.00    +0.000 A 
ENDBRANCH   1  11
BRANCH   2  12
ATOM     12  C   UNL     1      28.084  24.080  23.961  0.00  0.00    +0.000 C 
ATOM     13  C   UNL     1      27.779  25.655  24.361  0.00  0.00    +0.000 C 
BRANCH  12  14
ATOM     14  C   UNL     1      29.645  24.141  24.280  0.00  0.00    +0.000 A 
ATOM     15  C   UNL     1      30.187  25.363  24.494  0.00  0.00    +0.000 A 
ATOM     16  C   UNL     1      31.527  25.481  24.789  0.00  0.00    +0.000 A 
ATOM     17  C   UNL     1      32.308  24.325  24.862  0.00  0.00    +0.000 A 
ATOM     18  C   UNL     1      31.720  23.095  24.638  0.00  0.00    +0.000 A 
ATOM     19  C   UNL     1      30.376  23.021  24.346  0.00  0.00    +0.000 A 
BRANCH  17  20
ATOM     20  N   UNL     1      33.682  24.420  25.162  0.00  0.00    +0.000 N 
ATOM     21  O   UNL     1      34.044  24.508  26.339  0.00  0.00    +0.000 OA
ATOM     22  O   UNL     1      34.593  24.410  24.141  0.00  0.00    +0.000 OA
ENDBRANCH  17  20
ENDBRANCH  12  14
ENDBRANCH   2  12
TORSDOF 4
ENDMDL
