MODEL 1
REMARK VINA RESULT:      -6.3      0.000      0.000
REMARK  Name = 
REMARK  3 active torsions:
REMARK  status: ('A' for Active; 'I' for Inactive)
REMARK    1  A    between atoms: C_7  and  C_8
REMARK    2  A    between atoms: C_15  and  N_16
REMARK    3  A    between atoms: N_16  and  C_17
REMARK                            x       y       z     vdW  Elec       q    Type
REMARK                         _______ _______ _______ _____ _____    ______ ____
ROOT
ATOM      1  C   UNL     1      26.550  22.108  30.473  0.00  0.00    +0.000 C 
ATOM      2  C   UNL     1      26.580  22.966  29.258  0.00  0.00    +0.000 A 
ATOM      3  C   UNL     1      25.735  24.044  29.178  0.00  0.00    +0.000 A 
ATOM      4  C   UNL     1      25.741  24.851  28.068  0.00  0.00    +0.000 A 
ATOM      5  C   UNL     1      26.614  24.583  27.003  0.00  0.00    +0.000 A 
ATOM      6  N   UNL     1      26.806  25.210  25.837  0.00  0.00    +0.000 NA
ATOM      7  C   UNL     1      27.763  24.561  25.152  0.00  0.00    +0.000 A 
ATOM      8  C   UNL     1      28.156  23.508  25.934  0.00  0.00    +0.000 A 
ATOM      9  N   UNL     1      27.423  23.538  27.097  0.00  0.00    +0.000 N 
ATOM     10  C   UNL     1      27.422  22.730  28.198  0.00  0.00    +0.000 A 
ENDROOT
BRANCH   7  11
ATOM     11  C   UNL     1      28.247  24.997  23.825  0.00  0.00    +0.000 A 
ATOM     12  C   UNL     1      29.074  26.043  23.646  0.00  0.00    +0.000 A 
ATOM     13  C   UNL     1      29.470  26.423  22.390  0.00  0.00    +0.000 A 
ATOM     14  C   UNL     1      29.048  25.765  21.243  0.00  0.00    +0.000 A 
ATOM     15  C   UNL     1      28.200  24.698  21.468  0.00  0.00    +0.000 A 
ATOM     16  C   UNL     1      27.805  24.317  22.720  0.00  0.00    +0.000 A 
ATOM     17  O   UNL     1      26.953  23.235  22.851  0.00  0.00    +0.000 OA
ENDBRANCH   7  11
BRANCH   8  18
ATOM     18  N   UNL     1      29.060  22.495  25.702  0.00  0.00    +0.000 NA
BRANCH  18  19
ATOM     19  C   UNL     1      30.410  22.244  25.754  0.00  0.00    +0.000 C 
ATOM     20  C   UNL     1      31.095  22.539  27.092  0.00  0.00    +0.000 C 
ATOM     21  C   UNL     1      31.186  22.893  24.630  0.00  0.00    +0.000 C 
ENDBRANCH  18  19
ENDBRANCH   8  18
TORSDOF 3
ENDMDL
MODEL 2
REMARK VINA RESULT:      -6.3     23.631     26.223
REMARK  Name = 
REMARK  3 active torsions:
REMARK  status: ('A' for Active; 'I' for Inactive)
REMARK    1  A    between atoms: C_7  and  C_8
REMARK    2  A    between atoms: C_15  and  N_16
REMARK    3  A    between atoms: N_16  and  C_17
REMARK                            x       y       z     vdW  Elec       q    Type
REMARK                         _______ _______ _______ _____ _____    ______ ____
ROOT
ATOM      1  C   UNL     1      34.591   6.089  36.201  0.00  0.00    +0.000 C 
ATOM      2  C   UNL     1      34.190   4.861  35.464  0.00  0.00    +0.000 A 
ATOM      3  C   UNL     1      33.720   4.973  34.180  0.00  0.00    +0.000 A 
ATOM      4  C   UNL     1      33.342   3.857  33.478  0.00  0.00    +0.000 A 
ATOM      5  C   UNL     1      33.433   2.586  34.066  0.00  0.00    +0.000 A 
ATOM      6  N   UNL     1      33.134   1.370  33.596  0.00  0.00    +0.000 NA
ATOM      7  C   UNL     1      33.399   0.462  34.552  0.00  0.00    +0.000 A 
ATOM      8  C   UNL     1      33.873   1.160  35.630  0.00  0.00    +0.000 A 
ATOM      9  N   UNL     1      33.889   2.496  35.307  0.00  0.00    +0.000 N 
ATOM     10  C   UNL     1      34.267   3.603  36.012  0.00  0.00    +0.000 A 
ENDROOT
BRANCH   7  11
ATOM     11  C   UNL     1      33.208  -0.991  34.364  0.00  0.00    +0.000 A 
ATOM     12  C   UNL     1      33.864  -1.711  33.435  0.00  0.00    +0.000 A 
ATOM     13  C   UNL     1      33.627  -3.051  33.283  0.00  0.00    +0.000 A 
ATOM     14  C   UNL     1      32.710  -3.741  34.065  0.00  0.00    +0.000 A 
ATOM     15  C   UNL     1      32.057  -2.968  35.006  0.00  0.00    +0.000 A 
ATOM     16  C   UNL     1      32.292  -1.631  35.159  0.00  0.00    +0.000 A 
ATOM     17  O   UNL     1      31.592  -0.936  36.128  0.00  0.00    +0.000 OA
ENDBRANCH   7  11
BRANCH   8  18
ATOM     18  N   UNL     1      34.244   0.740  36.889  0.00  0.00    +0.000 NA
BRANCH  18  19
ATOM     19  C   UNL     1      35.051  -0.187  37.503  0.00  0.00    +0.000 C 
ATOM     20  C   UNL     1      35.917  -1.041  36.574  0.00  0.00    +0.000 C 
ATOM     21  C   UNL     1      34.311  -1.080  38.474  0.00  0.00    +0.000 C 
ENDBRANCH  18  19
ENDBRANCH   8  18
TORSDOF 3
ENDMDL
MODEL 3
REMARK VINA RESULT:      -5.7      3.276      5.251
REMARK  Name = 
REMARK  3 active torsions:
REMARK  status: ('A' for Active; 'I' for Inactive)
REMARK    1  A    between atoms: C_7  and  C_8
REMARK    2  A    between atoms: C_15  and  N_16
REMARK    3  A    between atoms: N_16  and  C_17
REMARK                            x       y       z     vdW  Elec       q    Type
REMARK                         _______ _______ _______ _____ _____    ______ ____
ROOT
ATOM      1  C   UNL     1      30.583  21.508  33.825  0.00  0.00    +0.000 C 
ATOM      2  C   UNL     1      30.980  21.640  32.397  0.00  0.00    +0.000 A 
ATOM      3  C   UNL     1      32.191  21.139  31.989  0.00  0.00    +0.000 A 
ATOM      4  C   UNL     1      32.583  21.249  30.679  0.00  0.00    +0.000 A 
ATOM      5  C   UNL     1      31.747  21.875  29.741  0.00  0.00    +0.000 A 
ATOM      6  N   UNL     1      31.901  22.099  28.431  0.00  0.00    +0.000 NA
ATOM      7  C   UNL     1      30.811  22.740  27.974  0.00  0.00    +0.000 A 
ATOM      8  C   UNL     1      29.978  22.905  29.048  0.00  0.00    +0.000 A 
ATOM      9  N   UNL     1      30.582  22.352  30.152  0.00  0.00    +0.000 N 
ATOM     10  C   UNL     1      30.186  22.247  31.455  0.00  0.00    +0.000 A 
ENDROOT
BRANCH   7  11
ATOM     11  C   UNL     1      30.632  23.125  26.558  0.00  0.00    +0.000 A 
ATOM     12  C   UNL     1      30.081  22.315  25.635  0.00  0.00    +0.000 A 
ATOM     13  C   UNL     1      29.965  22.711  24.328  0.00  0.00    +0.000 A 
ATOM     14  C   UNL     1      30.401  23.951  23.881  0.00  0.00    +0.000 A 
ATOM     15  C   UNL     1      30.960  24.752  24.858  0.00  0.00    +0.000 A 
ATOM     16  C   UNL     1      31.076  24.359  26.162  0.00  0.00    +0.000 A 
ATOM     17  O   UNL     1      31.649  25.229  27.073  0.00  0.00    +0.000 OA
ENDBRANCH   7  11
BRANCH   8  18
ATOM     18  N   UNL     1      28.759  23.539  29.160  0.00  0.00    +0.000 NA
BRANCH  18  19
ATOM     19  C   UNL     1      27.414  23.265  29.125  0.00  0.00    +0.000 C 
ATOM     20  C   UNL     1      26.997  21.884  29.637  0.00  0.00    +0.000 C 
ATOM     21  C   UNL     1      26.782  23.520  27.775  0.00  0.00    +0.000 C 
ENDBRANCH  18  19
ENDBRANCH   8  18
TORSDOF 3
ENDMDL
MODEL 4
REMARK VINA RESULT:      -5.7     33.063     34.958
REMARK  Name = 
REMARK  3 active torsions:
REMARK  status: ('A' for Active; 'I' for Inactive)
REMARK    1  A    between atoms: C_7  and  C_8
REMARK    2  A    between atoms: C_15  and  N_16
REMARK    3  A    between atoms: N_16  and  C_17
REMARK                            x       y       z     vdW  Elec       q    Type
REMARK                         _______ _______ _______ _____ _____    ______ ____
ROOT
ATOM      1  C   UNL     1      13.802 -12.969  28.825  0.00  0.00    +0.000 C 
ATOM      2  C   UNL     1      14.470 -11.952  27.970  0.00  0.00    +0.000 A 
ATOM      3  C   UNL     1      14.023 -11.758  26.686  0.00  0.00    +0.000 A 
ATOM      4  C   UNL     1      14.621 -10.827  25.876  0.00  0.00    +0.000 A 
ATOM      5  C   UNL     1      15.698 -10.061  26.351  0.00  0.00    +0.000 A 
ATOM      6  N   UNL     1      16.432  -9.109  25.765  0.00  0.00    +0.000 NA
ATOM      7  C   UNL     1      17.354  -8.676  26.643  0.00  0.00    +0.000 A 
ATOM      8  C   UNL     1      17.164  -9.395  27.793  0.00  0.00    +0.000 A 
ATOM      9  N   UNL     1      16.116 -10.262  27.592  0.00  0.00    +0.000 N 
ATOM     10  C   UNL     1      15.525 -11.187  28.404  0.00  0.00    +0.000 A 
ENDROOT
BRANCH   7  11
ATOM     11  C   UNL     1      18.324  -7.604  26.337  0.00  0.00    +0.000 A 
ATOM     12  C   UNL     1      19.525  -7.831  25.774  0.00  0.00    +0.000 A 
ATOM     13  C   UNL     1      20.399  -6.803  25.537  0.00  0.00    +0.000 A 
ATOM     14  C   UNL     1      20.107  -5.484  25.858  0.00  0.00    +0.000 A 
ATOM     15  C   UNL     1      18.866  -5.292  26.435  0.00  0.00    +0.000 A 
ATOM     16  C   UNL     1      17.992  -6.316  26.671  0.00  0.00    +0.000 A 
ATOM     17  O   UNL     1      16.769  -6.031  27.252  0.00  0.00    +0.000 OA
ENDBRANCH   7  11
BRANCH   8  18
ATOM     18  N   UNL     1      17.856  -9.398  28.984  0.00  0.00    +0.000 NA
BRANCH  18  19
ATOM     19  C   UNL     1      18.897 -10.043  29.605  0.00  0.00    +0.000 C 
ATOM     20  C   UNL     1      19.112  -9.701  31.082  0.00  0.00    +0.000 C 
ATOM     21  C   UNL     1      20.208  -9.928  28.859  0.00  0.00    +0.000 C 
ENDBRANCH  18  19
ENDBRANCH   8  18
TORSDOF 3
ENDMDL
MODEL 5
REMARK VINA RESULT:      -5.6     31.297     33.201
REMARK  Name = 
REMARK  3 active torsions:
REMARK  status: ('A' for Active; 'I' for Inactive)
REMARK    1  A    between atoms: C_7  and  C_8
REMARK    2  A    between atoms: C_15  and  N_16
REMARK    3  A    between atoms: N_16  and  C_17
REMARK                            x       y       z     vdW  Elec       q    Type
REMARK                         _______ _______ _______ _____ _____    ______ ____
ROOT
ATOM      1  C   UNL     1      26.377  -8.966  22.924  0.00  0.00    +0.000 C 
ATOM      2  C   UNL     1      25.213  -8.277  23.543  0.00  0.00    +0.000 A 
ATOM      3  C   UNL     1      25.206  -6.907  23.614  0.00  0.00    +0.000 A 
ATOM      4  C   UNL     1      24.145  -6.246  24.180  0.00  0.00    +0.000 A 
ATOM      5  C   UNL     1      23.055  -6.966  24.693  0.00  0.00    +0.000 A 
ATOM      6  N   UNL     1      21.924  -6.559  25.280  0.00  0.00    +0.000 NA
ATOM      7  C   UNL     1      21.190  -7.640  25.596  0.00  0.00    +0.000 A 
ATOM      8  C   UNL     1      21.908  -8.731  25.184  0.00  0.00    +0.000 A 
ATOM      9  N   UNL     1      23.079  -8.288  24.616  0.00  0.00    +0.000 N 
ATOM     10  C   UNL     1      24.131  -8.952  24.054  0.00  0.00    +0.000 A 
ENDROOT
BRANCH   7  11
ATOM     11  C   UNL     1      19.862  -7.558  26.239  0.00  0.00    +0.000 A 
ATOM     12  C   UNL     1      19.272  -8.599  26.855  0.00  0.00    +0.000 A 
ATOM     13  C   UNL     1      18.026  -8.477  27.411  0.00  0.00    +0.000 A 
ATOM     14  C   UNL     1      17.305  -7.291  27.375  0.00  0.00    +0.000 A 
ATOM     15  C   UNL     1      17.944  -6.247  26.735  0.00  0.00    +0.000 A 
ATOM     16  C   UNL     1      19.187  -6.367  26.180  0.00  0.00    +0.000 A 
ATOM     17  O   UNL     1      19.751  -5.267  25.559  0.00  0.00    +0.000 OA
ENDBRANCH   7  11
BRANCH   8  18
ATOM     18  N   UNL     1      21.655 -10.080  25.306  0.00  0.00    +0.000 NA
BRANCH  18  19
ATOM     19  C   UNL     1      21.861 -11.125  26.174  0.00  0.00    +0.000 C 
ATOM     20  C   UNL     1      22.314 -10.743  27.585  0.00  0.00    +0.000 C 
ATOM     21  C   UNL     1      22.770 -12.198  25.619  0.00  0.00    +0.000 C 
ENDBRANCH  18  19
ENDBRANCH   8  18
TORSDOF 3
ENDMDL
MODEL 6
REMARK VINA RESULT:      -5.6     18.119     19.908
REMARK  Name = 
REMARK  3 active torsions:
REMARK  status: ('A' for Active; 'I' for Inactive)
REMARK    1  A    between atoms: C_7  and  C_8
REMARK    2  A    between atoms: C_15  and  N_16
REMARK    3  A    between atoms: N_16  and  C_17
REMARK                            x       y       z     vdW  Elec       q    Type
REMARK                         _______ _______ _______ _____ _____    ______ ____
ROOT
ATOM      1  C   UNL     1      25.813  10.991  37.971  0.00  0.00    +0.000 C 
ATOM      2  C   UNL     1      24.398  10.661  37.652  0.00  0.00    +0.000 A 
ATOM      3  C   UNL     1      24.125   9.565  36.872  0.00  0.00    +0.000 A 
ATOM      4  C   UNL     1      22.829   9.238  36.561  0.00  0.00    +0.000 A 
ATOM      5  C   UNL     1      21.768  10.022  37.039  0.00  0.00    +0.000 A 
ATOM      6  N   UNL     1      20.445   9.912  36.878  0.00  0.00    +0.000 NA
ATOM      7  C   UNL     1      19.846  10.918  37.540  0.00  0.00    +0.000 A 
ATOM      8  C   UNL     1      20.846  11.656  38.114  0.00  0.00    +0.000 A 
ATOM      9  N   UNL     1      22.050  11.076  37.790  0.00  0.00    +0.000 N 
ATOM     10  C   UNL     1      23.337  11.408  38.103  0.00  0.00    +0.000 A 
ENDROOT
BRANCH   7  11
ATOM     11  C   UNL     1      18.379  11.090  37.596  0.00  0.00    +0.000 A 
ATOM     12  C   UNL     1      17.722  12.068  36.945  0.00  0.00    +0.000 A 
ATOM     13  C   UNL     1      16.363  12.200  37.055  0.00  0.00    +0.000 A 
ATOM     14  C   UNL     1      15.590  11.348  37.832  0.00  0.00    +0.000 A 
ATOM     15  C   UNL     1      16.300  10.358  38.484  0.00  0.00    +0.000 A 
ATOM     16  C   UNL     1      17.656  10.225  38.375  0.00  0.00    +0.000 A 
ATOM     17  O   UNL     1      18.283   9.202  39.065  0.00  0.00    +0.000 OA
ENDBRANCH   7  11
BRANCH   8  18
ATOM     18  N   UNL     1      20.804  12.817  38.853  0.00  0.00    +0.000 NA
BRANCH  18  19
ATOM     19  C   UNL     1      20.965  14.174  38.709  0.00  0.00    +0.000 C 
ATOM     20  C   UNL     1      22.294  14.747  39.207  0.00  0.00    +0.000 C 
ATOM     21  C   UNL     1      19.818  14.980  39.274  0.00  0.00    +0.000 C 
ENDBRANCH  18  19
ENDBRANCH   8  18
TORSDOF 3
ENDMDL
MODEL 7
REMARK VINA RESULT:      -5.5     18.030     21.051
REMARK  Name = 
REMARK  3 active torsions:
REMARK  status: ('A' for Active; 'I' for Inactive)
REMARK    1  A    between atoms: C_7  and  C_8
REMARK    2  A    between atoms: C_15  and  N_16
REMARK    3  A    between atoms: N_16  and  C_17
REMARK                            x       y       z     vdW  Elec       q    Type
REMARK                         _______ _______ _______ _____ _____    ______ ____
ROOT
ATOM      1  C   UNL     1      16.758   8.751  42.299  0.00  0.00    +0.000 C 
ATOM      2  C   UNL     1      17.531   9.141  41.089  0.00  0.00    +0.000 A 
ATOM      3  C   UNL     1      16.858   9.569  39.973  0.00  0.00    +0.000 A 
ATOM      4  C   UNL     1      17.546   9.934  38.843  0.00  0.00    +0.000 A 
ATOM      5  C   UNL     1      18.948   9.873  38.818  0.00  0.00    +0.000 A 
ATOM      6  N   UNL     1      19.829  10.170  37.857  0.00  0.00    +0.000 NA
ATOM      7  C   UNL     1      21.069   9.944  38.325  0.00  0.00    +0.000 A 
ATOM      8  C   UNL     1      20.924   9.494  39.610  0.00  0.00    +0.000 A 
ATOM      9  N   UNL     1      19.582   9.458  39.905  0.00  0.00    +0.000 N 
ATOM     10  C   UNL     1      18.903   9.093  41.033  0.00  0.00    +0.000 A 
ENDROOT
BRANCH   7  11
ATOM     11  C   UNL     1      22.292  10.190  37.532  0.00  0.00    +0.000 A 
ATOM     12  C   UNL     1      22.763   9.330  36.610  0.00  0.00    +0.000 A 
ATOM     13  C   UNL     1      23.918   9.594  35.923  0.00  0.00    +0.000 A 
ATOM     14  C   UNL     1      24.664  10.746  36.130  0.00  0.00    +0.000 A 
ATOM     15  C   UNL     1      24.149  11.603  37.084  0.00  0.00    +0.000 A 
ATOM     16  C   UNL     1      22.996  11.342  37.770  0.00  0.00    +0.000 A 
ATOM     17  O   UNL     1      22.554  12.258  38.707  0.00  0.00    +0.000 OA
ENDBRANCH   7  11
BRANCH   8  18
ATOM     18  N   UNL     1      21.855   9.065  40.530  0.00  0.00    +0.000 NA
BRANCH  18  19
ATOM     19  C   UNL     1      22.684   7.999  40.784  0.00  0.00    +0.000 C 
ATOM     20  C   UNL     1      23.869   7.830  39.829  0.00  0.00    +0.000 C 
ATOM     21  C   UNL     1      21.949   6.685  40.923  0.00  0.00    +0.000 C 
ENDBRANCH  18  19
ENDBRANCH   8  18
TORSDOF 3
ENDMDL
MODEL 8
REMARK VINA RESULT:      -5.5      2.264      4.642
REMARK  Name = 
REMARK  3 active torsions:
REMARK  status: ('A' for Active; 'I' for Inactive)
REMARK    1  A    between atoms: C_7  and  C_8
REMARK    2  A    between atoms: C_15  and  N_16
REMARK    3  A    between atoms: N_16  and  C_17
REMARK                            x       y       z     vdW  Elec       q    Type
REMARK                         _______ _______ _______ _____ _____    ______ ____
ROOT
ATOM      1  C   UNL     1      31.974  22.433  31.974  0.00  0.00    +0.000 C 
ATOM      2  C   UNL     1      31.502  22.398  30.563  0.00  0.00    +0.000 A 
ATOM      3  C   UNL     1      32.260  21.751  29.619  0.00  0.00    +0.000 A 
ATOM      4  C   UNL     1      31.849  21.705  28.311  0.00  0.00    +0.000 A 
ATOM      5  C   UNL     1      30.648  22.319  27.924  0.00  0.00    +0.000 A 
ATOM      6  N   UNL     1      30.044  22.409  26.734  0.00  0.00    +0.000 NA
ATOM      7  C   UNL     1      28.903  23.105  26.882  0.00  0.00    +0.000 A 
ATOM      8  C   UNL     1      28.823  23.444  28.207  0.00  0.00    +0.000 A 
ATOM      9  N   UNL     1      29.929  22.939  28.848  0.00  0.00    +0.000 N 
ATOM     10  C   UNL     1      30.332  22.990  30.152  0.00  0.00    +0.000 A 
ENDROOT
BRANCH   7  11
ATOM     11  C   UNL     1      27.969  23.376  25.770  0.00  0.00    +0.000 A 
ATOM     12  C   UNL     1      26.780  22.760  25.634  0.00  0.00    +0.000 A 
ATOM     13  C   UNL     1      25.964  23.027  24.567  0.00  0.00    +0.000 A 
ATOM     14  C   UNL     1      26.306  23.934  23.573  0.00  0.00    +0.000 A 
ATOM     15  C   UNL     1      27.533  24.545  23.748  0.00  0.00    +0.000 A 
ATOM     16  C   UNL     1      28.348  24.280  24.812  0.00  0.00    +0.000 A 
ATOM     17  O   UNL     1      29.560  24.940  24.906  0.00  0.00    +0.000 OA
ENDBRANCH   7  11
BRANCH   8  18
ATOM     18  N   UNL     1      27.897  24.197  28.895  0.00  0.00    +0.000 NA
BRANCH  18  19
ATOM     19  C   UNL     1      26.664  24.079  29.489  0.00  0.00    +0.000 C 
ATOM     20  C   UNL     1      26.316  22.694  30.042  0.00  0.00    +0.000 C 
ATOM     21  C   UNL     1      25.529  24.583  28.626  0.00  0.00    +0.000 C 
ENDBRANCH  18  19
ENDBRANCH   8  18
TORSDOF 3
ENDMDL
MODEL 9
REMARK VINA RESULT:      -5.5     19.314     22.966
REMARK  Name = 
REMARK  3 active torsions:
REMARK  status: ('A' for Active; 'I' for Inactive)
REMARK    1  A    between atoms: C_7  and  C_8
REMARK    2  A    between atoms: C_15  and  N_16
REMARK    3  A    between atoms: N_16  and  C_17
REMARK                            x       y       z     vdW  Elec       q    Type
REMARK                         _______ _______ _______ _____ _____    ______ ____
ROOT
ATOM      1  C   UNL     1      24.677  10.158  37.206  0.00  0.00    +0.000 C 
ATOM      2  C   UNL     1      23.220   9.946  37.410  0.00  0.00    +0.000 A 
ATOM      3  C   UNL     1      22.363  10.117  36.352  0.00  0.00    +0.000 A 
ATOM      4  C   UNL     1      21.013   9.929  36.512  0.00  0.00    +0.000 A 
ATOM      5  C   UNL     1      20.494   9.559  37.763  0.00  0.00    +0.000 A 
ATOM      6  N   UNL     1      19.241   9.320  38.164  0.00  0.00    +0.000 NA
ATOM      7  C   UNL     1      19.262   8.995  39.469  0.00  0.00    +0.000 A 
ATOM      8  C   UNL     1      20.573   9.043  39.860  0.00  0.00    +0.000 A 
ATOM      9  N   UNL     1      21.335   9.398  38.773  0.00  0.00    +0.000 N 
ATOM     10  C   UNL     1      22.680   9.584  38.621  0.00  0.00    +0.000 A 
ENDROOT
BRANCH   7  11
ATOM     11  C   UNL     1      18.048   8.644  40.235  0.00  0.00    +0.000 A 
ATOM     12  C   UNL     1      17.217   9.559  40.767  0.00  0.00    +0.000 A 
ATOM     13  C   UNL     1      16.120   9.179  41.494  0.00  0.00    +0.000 A 
ATOM     14  C   UNL     1      15.802   7.848  41.726  0.00  0.00    +0.000 A 
ATOM     15  C   UNL     1      16.678   6.939  41.164  0.00  0.00    +0.000 A 
ATOM     16  C   UNL     1      17.773   7.316  40.438  0.00  0.00    +0.000 A 
ATOM     17  O   UNL     1      18.596   6.336  39.912  0.00  0.00    +0.000 OA
ENDBRANCH   7  11
BRANCH   8  18
ATOM     18  N   UNL     1      21.157   8.854  41.094  0.00  0.00    +0.000 NA
BRANCH  18  19
ATOM     19  C   UNL     1      21.389   7.865  42.018  0.00  0.00    +0.000 C 
ATOM     20  C   UNL     1      21.746   6.488  41.450  0.00  0.00    +0.000 C 
ATOM     21  C   UNL     1      20.283   7.723  43.040  0.00  0.00    +0.000 C 
ENDBRANCH  18  19
ENDBRANCH   8  18
TORSDOF 3
ENDMDL
MODEL 10
REMARK VINA RESULT:      -5.4      2.306      4.406
REMARK  Name = 
REMARK  3 active torsions:
REMARK  status: ('A' for Active; 'I' for Inactive)
REMARK    1  A    between atoms: C_7  and  C_8
REMARK    2  A    between atoms: C_15  and  N_16
REMARK    3  A    between atoms: N_16  and  C_17
REMARK                            x       y       z     vdW  Elec       q    Type
REMARK                         _______ _______ _______ _____ _____    ______ ____
ROOT
ATOM      1  C   UNL     1      22.176  26.748  25.471  0.00  0.00    +0.000 C 
ATOM      2  C   UNL     1      23.514  26.200  25.819  0.00  0.00    +0.000 A 
ATOM      3  C   UNL     1      23.806  25.929  27.133  0.00  0.00    +0.000 A 
ATOM      4  C   UNL     1      25.033  25.424  27.482  0.00  0.00    +0.000 A 
ATOM      5  C   UNL     1      26.003  25.178  26.498  0.00  0.00    +0.000 A 
ATOM      6  N   UNL     1      27.248  24.698  26.585  0.00  0.00    +0.000 NA
ATOM      7  C   UNL     1      27.778  24.649  25.350  0.00  0.00    +0.000 A 
ATOM      8  C   UNL     1      26.816  25.119  24.496  0.00  0.00    +0.000 A 
ATOM      9  N   UNL     1      25.704  25.446  25.236  0.00  0.00    +0.000 N 
ATOM     10  C   UNL     1      24.485  25.949  24.881  0.00  0.00    +0.000 A 
ENDROOT
BRANCH   7  11
ATOM     11  C   UNL     1      29.138  24.144  25.071  0.00  0.00    +0.000 A 
ATOM     12  C   UNL     1      29.406  22.855  24.792  0.00  0.00    +0.000 A 
ATOM     13  C   UNL     1      30.690  22.433  24.570  0.00  0.00    +0.000 A 
ATOM     14  C   UNL     1      31.778  23.294  24.617  0.00  0.00    +0.000 A 
ATOM     15  C   UNL     1      31.462  24.607  24.906  0.00  0.00    +0.000 A 
ATOM     16  C   UNL     1      30.182  25.030  25.127  0.00  0.00    +0.000 A 
ATOM     17  O   UNL     1      29.959  26.366  25.410  0.00  0.00    +0.000 OA
ENDBRANCH   7  11
BRANCH   8  18
ATOM     18  N   UNL     1      26.840  25.335  23.135  0.00  0.00    +0.000 NA
BRANCH  18  19
ATOM     19  C   UNL     1      27.628  25.904  22.165  0.00  0.00    +0.000 C 
ATOM     20  C   UNL     1      28.755  25.024  21.616  0.00  0.00    +0.000 C 
ATOM     21  C   UNL     1      28.181  27.257  22.555  0.00  0.00    +0.000 C 
ENDBRANCH  18  19
ENDBRANCH   8  18
TORSDOF 3
ENDMDL
