MODEL 1
REMARK VINA RESULT:      -6.4      0.000      0.000
REMARK  Name = 
REMARK  3 active torsions:
REMARK  status: ('A' for Active; 'I' for Inactive)
REMARK    1  A    between atoms: N_7  and  C_8
REMARK    2  A    between atoms: C_8  and  N_10
REMARK    3  A    between atoms: N_10  and  C_11
REMARK                            x       y       z     vdW  Elec       q    Type
REMARK                         _______ _______ _______ _____ _____    ______ ____
ROOT
ATOM      1  C   UNL     1      17.866  10.261  37.952  0.00  0.00    +0.000 C 
ATOM      2  S   UNL     1      18.742  11.622  37.891  0.00  0.00    +0.000 S 
ENDROOT
BRANCH   1   9
ATOM      3  C   UNL     1      17.951   6.338  42.647  0.00  0.00    +0.000 C 
ATOM      4  C   UNL     1      17.452   7.498  41.829  0.00  0.00    +0.000 A 
ATOM      5  C   UNL     1      16.356   8.216  42.274  0.00  0.00    +0.000 A 
ATOM      6  C   UNL     1      15.886   9.275  41.547  0.00  0.00    +0.000 A 
ATOM      7  C   UNL     1      16.512   9.609  40.383  0.00  0.00    +0.000 A 
ATOM      8  C   UNL     1      17.611   8.879  39.948  0.00  0.00    +0.000 A 
ATOM      9  N   UNL     1      18.295   9.186  38.747  0.00  0.00    +0.000 NA
ATOM     10  N   UNL     1      18.050   7.849  40.679  0.00  0.00    +0.000 NA
ENDBRANCH   1   9
BRANCH   1  11
ATOM     11  N   UNL     1      16.678  10.163  37.204  0.00  0.00    +0.000 NA
BRANCH  11  12
ATOM     12  C   UNL     1      16.528  10.591  35.870  0.00  0.00    +0.000 A 
ATOM     13  C   UNL     1      17.152   9.953  34.809  0.00  0.00    +0.000 A 
ATOM     14  C   UNL     1      18.006   8.771  35.149  0.00  0.00    +0.000 C 
ATOM     15  C   UNL     1      16.993  10.386  33.511  0.00  0.00    +0.000 A 
ATOM     16  C   UNL     1      16.196  11.474  33.272  0.00  0.00    +0.000 A 
ATOM     17  C   UNL     1      15.548  12.152  34.288  0.00  0.00    +0.000 A 
ATOM     18  C   UNL     1      15.729  11.691  35.581  0.00  0.00    +0.000 A 
ATOM     19  C   UNL     1      15.060  12.370  36.745  0.00  0.00    +0.000 C 
ENDBRANCH  11  12
ENDBRANCH   1  11
TORSDOF 3
ENDMDL
MODEL 2
REMARK VINA RESULT:      -5.9     19.649     21.110
REMARK  Name = 
REMARK  3 active torsions:
REMARK  status: ('A' for Active; 'I' for Inactive)
REMARK    1  A    between atoms: N_7  and  C_8
REMARK    2  A    between atoms: C_8  and  N_10
REMARK    3  A    between atoms: N_10  and  C_11
REMARK                            x       y       z     vdW  Elec       q    Type
REMARK                         _______ _______ _______ _____ _____    ______ ____
ROOT
ATOM      1  C   UNL     1      28.801  23.731  27.495  0.00  0.00    +0.000 C 
ATOM      2  S   UNL     1      29.113  25.253  27.036  0.00  0.00    +0.000 S 
ENDROOT
BRANCH   1   9
ATOM      3  C   UNL     1      31.286  21.418  32.586  0.00  0.00    +0.000 C 
ATOM      4  C   UNL     1      31.220  21.785  31.128  0.00  0.00    +0.000 A 
ATOM      5  C   UNL     1      32.292  21.482  30.307  0.00  0.00    +0.000 A 
ATOM      6  C   UNL     1      32.253  21.806  28.978  0.00  0.00    +0.000 A 
ATOM      7  C   UNL     1      31.146  22.428  28.481  0.00  0.00    +0.000 A 
ATOM      8  C   UNL     1      30.079  22.726  29.316  0.00  0.00    +0.000 A 
ATOM      9  N   UNL     1      28.908  23.371  28.848  0.00  0.00    +0.000 NA
ATOM     10  N   UNL     1      30.143  22.398  30.611  0.00  0.00    +0.000 NA
ENDBRANCH   1   9
BRANCH   1  11
ATOM     11  N   UNL     1      28.426  22.776  26.533  0.00  0.00    +0.000 NA
BRANCH  11  12
ATOM     12  C   UNL     1      28.169  23.057  25.176  0.00  0.00    +0.000 A 
ATOM     13  C   UNL     1      29.153  22.988  24.202  0.00  0.00    +0.000 A 
ATOM     14  C   UNL     1      30.522  22.596  24.663  0.00  0.00    +0.000 C 
ATOM     15  C   UNL     1      28.882  23.266  22.880  0.00  0.00    +0.000 A 
ATOM     16  C   UNL     1      27.606  23.619  22.529  0.00  0.00    +0.000 A 
ATOM     17  C   UNL     1      26.582  23.705  23.454  0.00  0.00    +0.000 A 
ATOM     18  C   UNL     1      26.888  23.419  24.773  0.00  0.00    +0.000 A 
ATOM     19  C   UNL     1      25.834  23.489  25.844  0.00  0.00    +0.000 C 
ENDBRANCH  11  12
ENDBRANCH   1  11
TORSDOF 3
ENDMDL
MODEL 3
REMARK VINA RESULT:      -5.9     19.656     21.176
REMARK  Name = 
REMARK  3 active torsions:
REMARK  status: ('A' for Active; 'I' for Inactive)
REMARK    1  A    between atoms: N_7  and  C_8
REMARK    2  A    between atoms: C_8  and  N_10
REMARK    3  A    between atoms: N_10  and  C_11
REMARK                            x       y       z     vdW  Elec       q    Type
REMARK                         _______ _______ _______ _____ _____    ______ ____
ROOT
ATOM      1  C   UNL     1      28.865  23.793  27.542  0.00  0.00    +0.000 C 
ATOM      2  S   UNL     1      29.178  25.307  27.060  0.00  0.00    +0.000 S 
ENDROOT
BRANCH   1   9
ATOM      3  C   UNL     1      31.254  21.474  32.676  0.00  0.00    +0.000 C 
ATOM      4  C   UNL     1      31.201  21.813  31.211  0.00  0.00    +0.000 A 
ATOM      5  C   UNL     1      32.256  21.445  30.395  0.00  0.00    +0.000 A 
ATOM      6  C   UNL     1      32.229  21.743  29.059  0.00  0.00    +0.000 A 
ATOM      7  C   UNL     1      31.151  22.404  28.551  0.00  0.00    +0.000 A 
ATOM      8  C   UNL     1      30.099  22.768  29.382  0.00  0.00    +0.000 A 
ATOM      9  N   UNL     1      28.959  23.456  28.902  0.00  0.00    +0.000 NA
ATOM     10  N   UNL     1      30.152  22.464  30.683  0.00  0.00    +0.000 NA
ENDBRANCH   1   9
BRANCH   1  11
ATOM     11  N   UNL     1      28.501  22.821  26.593  0.00  0.00    +0.000 NA
BRANCH  11  12
ATOM     12  C   UNL     1      28.195  23.088  25.243  0.00  0.00    +0.000 A 
ATOM     13  C   UNL     1      26.924  23.452  24.826  0.00  0.00    +0.000 A 
ATOM     14  C   UNL     1      25.874  23.549  25.888  0.00  0.00    +0.000 C 
ATOM     15  C   UNL     1      26.645  23.710  23.502  0.00  0.00    +0.000 A 
ATOM     16  C   UNL     1      27.655  23.602  22.582  0.00  0.00    +0.000 A 
ATOM     17  C   UNL     1      28.942  23.243  22.937  0.00  0.00    +0.000 A 
ATOM     18  C   UNL     1      29.188  22.991  24.275  0.00  0.00    +0.000 A 
ATOM     19  C   UNL     1      30.561  22.595  24.747  0.00  0.00    +0.000 C 
ENDBRANCH  11  12
ENDBRANCH   1  11
TORSDOF 3
ENDMDL
MODEL 4
REMARK VINA RESULT:      -5.9     20.837     23.091
REMARK  Name = 
REMARK  3 active torsions:
REMARK  status: ('A' for Active; 'I' for Inactive)
REMARK    1  A    between atoms: N_7  and  C_8
REMARK    2  A    between atoms: C_8  and  N_10
REMARK    3  A    between atoms: N_10  and  C_11
REMARK                            x       y       z     vdW  Elec       q    Type
REMARK                         _______ _______ _______ _____ _____    ______ ____
ROOT
ATOM      1  C   UNL     1      21.455  -9.261  25.097  0.00  0.00    +0.000 C 
ATOM      2  S   UNL     1      20.283  -9.535  24.013  0.00  0.00    +0.000 S 
ENDROOT
BRANCH   1   9
ATOM      3  C   UNL     1      27.354  -9.202  23.471  0.00  0.00    +0.000 C 
ATOM      4  C   UNL     1      25.981  -8.629  23.702  0.00  0.00    +0.000 A 
ATOM      5  C   UNL     1      25.754  -7.293  23.427  0.00  0.00    +0.000 A 
ATOM      6  C   UNL     1      24.514  -6.750  23.628  0.00  0.00    +0.000 A 
ATOM      7  C   UNL     1      23.513  -7.546  24.102  0.00  0.00    +0.000 A 
ATOM      8  C   UNL     1      23.756  -8.885  24.374  0.00  0.00    +0.000 A 
ATOM      9  N   UNL     1      22.751  -9.751  24.868  0.00  0.00    +0.000 NA
ATOM     10  N   UNL     1      24.977  -9.389  24.168  0.00  0.00    +0.000 NA
ENDBRANCH   1   9
BRANCH   1  11
ATOM     11  N   UNL     1      21.166  -8.533  26.266  0.00  0.00    +0.000 NA
BRANCH  11  12
ATOM     12  C   UNL     1      19.911  -7.973  26.577  0.00  0.00    +0.000 A 
ATOM     13  C   UNL     1      18.950  -8.659  27.304  0.00  0.00    +0.000 A 
ATOM     14  C   UNL     1      19.309 -10.043  27.749  0.00  0.00    +0.000 C 
ATOM     15  C   UNL     1      17.728  -8.095  27.598  0.00  0.00    +0.000 A 
ATOM     16  C   UNL     1      17.466  -6.824  27.159  0.00  0.00    +0.000 A 
ATOM     17  C   UNL     1      18.384  -6.090  26.432  0.00  0.00    +0.000 A 
ATOM     18  C   UNL     1      19.601  -6.687  26.152  0.00  0.00    +0.000 A 
ATOM     19  C   UNL     1      20.657  -5.958  25.365  0.00  0.00    +0.000 C 
ENDBRANCH  11  12
ENDBRANCH   1  11
TORSDOF 3
ENDMDL
MODEL 5
REMARK VINA RESULT:      -5.9     18.895     21.119
REMARK  Name = 
REMARK  3 active torsions:
REMARK  status: ('A' for Active; 'I' for Inactive)
REMARK    1  A    between atoms: N_7  and  C_8
REMARK    2  A    between atoms: C_8  and  N_10
REMARK    3  A    between atoms: N_10  and  C_11
REMARK                            x       y       z     vdW  Elec       q    Type
REMARK                         _______ _______ _______ _____ _____    ______ ____
ROOT
ATOM      1  C   UNL     1      30.004  22.904  27.310  0.00  0.00    +0.000 C 
ATOM      2  S   UNL     1      31.363  22.412  28.042  0.00  0.00    +0.000 S 
ENDROOT
BRANCH   1   9
ATOM      3  C   UNL     1      25.608  25.380  30.772  0.00  0.00    +0.000 C 
ATOM      4  C   UNL     1      26.428  24.271  30.168  0.00  0.00    +0.000 A 
ATOM      5  C   UNL     1      26.132  22.959  30.496  0.00  0.00    +0.000 A 
ATOM      6  C   UNL     1      26.863  21.935  29.958  0.00  0.00    +0.000 A 
ATOM      7  C   UNL     1      27.882  22.228  29.101  0.00  0.00    +0.000 A 
ATOM      8  C   UNL     1      28.167  23.549  28.782  0.00  0.00    +0.000 A 
ATOM      9  N   UNL     1      29.214  23.905  27.898  0.00  0.00    +0.000 NA
ATOM     10  N   UNL     1      27.436  24.531  29.321  0.00  0.00    +0.000 NA
ENDBRANCH   1   9
BRANCH   1  11
ATOM     11  N   UNL     1      29.622  22.322  26.087  0.00  0.00    +0.000 NA
BRANCH  11  12
ATOM     12  C   UNL     1      29.271  23.042  24.927  0.00  0.00    +0.000 A 
ATOM     13  C   UNL     1      30.218  23.591  24.076  0.00  0.00    +0.000 A 
ATOM     14  C   UNL     1      31.652  23.382  24.450  0.00  0.00    +0.000 C 
ATOM     15  C   UNL     1      29.854  24.290  22.947  0.00  0.00    +0.000 A 
ATOM     16  C   UNL     1      28.522  24.443  22.666  0.00  0.00    +0.000 A 
ATOM     17  C   UNL     1      27.532  23.919  23.476  0.00  0.00    +0.000 A 
ATOM     18  C   UNL     1      27.931  23.222  24.603  0.00  0.00    +0.000 A 
ATOM     19  C   UNL     1      26.918  22.619  25.538  0.00  0.00    +0.000 C 
ENDBRANCH  11  12
ENDBRANCH   1  11
TORSDOF 3
ENDMDL
MODEL 6
REMARK VINA RESULT:      -5.7     20.753     22.864
REMARK  Name = 
REMARK  3 active torsions:
REMARK  status: ('A' for Active; 'I' for Inactive)
REMARK    1  A    between atoms: N_7  and  C_8
REMARK    2  A    between atoms: C_8  and  N_10
REMARK    3  A    between atoms: N_10  and  C_11
REMARK                            x       y       z     vdW  Elec       q    Type
REMARK                         _______ _______ _______ _____ _____    ______ ____
ROOT
ATOM      1  C   UNL     1      19.404 -10.006  25.398  0.00  0.00    +0.000 C 
ATOM      2  S   UNL     1      19.814 -11.570  25.502  0.00  0.00    +0.000 S 
ENDROOT
BRANCH   1   9
ATOM      3  C   UNL     1      14.294  -8.976  22.194  0.00  0.00    +0.000 C 
ATOM      4  C   UNL     1      15.119  -9.468  23.352  0.00  0.00    +0.000 A 
ATOM      5  C   UNL     1      14.487 -10.085  24.417  0.00  0.00    +0.000 A 
ATOM      6  C   UNL     1      15.218 -10.541  25.480  0.00  0.00    +0.000 A 
ATOM      7  C   UNL     1      16.571 -10.377  25.472  0.00  0.00    +0.000 A 
ATOM      8  C   UNL     1      17.192  -9.756  24.397  0.00  0.00    +0.000 A 
ATOM      9  N   UNL     1      18.593  -9.562  24.341  0.00  0.00    +0.000 NA
ATOM     10  N   UNL     1      16.454  -9.320  23.370  0.00  0.00    +0.000 NA
ENDBRANCH   1   9
BRANCH   1  11
ATOM     11  N   UNL     1      19.866  -9.099  26.370  0.00  0.00    +0.000 NA
BRANCH  11  12
ATOM     12  C   UNL     1      19.499  -7.740  26.442  0.00  0.00    +0.000 A 
ATOM     13  C   UNL     1      18.409  -7.302  27.179  0.00  0.00    +0.000 A 
ATOM     14  C   UNL     1      17.627  -8.352  27.904  0.00  0.00    +0.000 C 
ATOM     15  C   UNL     1      18.067  -5.969  27.238  0.00  0.00    +0.000 A 
ATOM     16  C   UNL     1      18.828  -5.061  26.550  0.00  0.00    +0.000 A 
ATOM     17  C   UNL     1      19.926  -5.437  25.799  0.00  0.00    +0.000 A 
ATOM     18  C   UNL     1      20.242  -6.784  25.760  0.00  0.00    +0.000 A 
ATOM     19  C   UNL     1      21.421  -7.279  24.967  0.00  0.00    +0.000 C 
ENDBRANCH  11  12
ENDBRANCH   1  11
TORSDOF 3
ENDMDL
MODEL 7
REMARK VINA RESULT:      -5.7     19.766     21.544
REMARK  Name = 
REMARK  3 active torsions:
REMARK  status: ('A' for Active; 'I' for Inactive)
REMARK    1  A    between atoms: N_7  and  C_8
REMARK    2  A    between atoms: C_8  and  N_10
REMARK    3  A    between atoms: N_10  and  C_11
REMARK                            x       y       z     vdW  Elec       q    Type
REMARK                         _______ _______ _______ _____ _____    ______ ____
ROOT
ATOM      1  C   UNL     1      27.710  22.934  28.327  0.00  0.00    +0.000 C 
ATOM      2  S   UNL     1      27.256  22.213  29.704  0.00  0.00    +0.000 S 
ENDROOT
BRANCH   1   9
ATOM      3  C   UNL     1      25.972  28.747  27.527  0.00  0.00    +0.000 C 
ATOM      4  C   UNL     1      25.805  27.252  27.576  0.00  0.00    +0.000 A 
ATOM      5  C   UNL     1      24.567  26.702  27.293  0.00  0.00    +0.000 A 
ATOM      6  C   UNL     1      24.392  25.345  27.330  0.00  0.00    +0.000 A 
ATOM      7  C   UNL     1      25.452  24.550  27.650  0.00  0.00    +0.000 A 
ATOM      8  C   UNL     1      26.688  25.116  27.932  0.00  0.00    +0.000 A 
ATOM      9  N   UNL     1      27.819  24.333  28.270  0.00  0.00    +0.000 NA
ATOM     10  N   UNL     1      26.832  26.445  27.888  0.00  0.00    +0.000 NA
ENDBRANCH   1   9
BRANCH   1  11
ATOM     11  N   UNL     1      27.993  22.152  27.192  0.00  0.00    +0.000 NA
BRANCH  11  12
ATOM     12  C   UNL     1      28.834  22.546  26.131  0.00  0.00    +0.000 A 
ATOM     13  C   UNL     1      30.216  22.525  26.230  0.00  0.00    +0.000 A 
ATOM     14  C   UNL     1      30.786  22.059  27.533  0.00  0.00    +0.000 C 
ATOM     15  C   UNL     1      31.021  22.913  25.181  0.00  0.00    +0.000 A 
ATOM     16  C   UNL     1      30.431  23.328  24.016  0.00  0.00    +0.000 A 
ATOM     17  C   UNL     1      29.059  23.371  23.858  0.00  0.00    +0.000 A 
ATOM     18  C   UNL     1      28.279  22.975  24.930  0.00  0.00    +0.000 A 
ATOM     19  C   UNL     1      26.777  22.991  24.843  0.00  0.00    +0.000 C 
ENDBRANCH  11  12
ENDBRANCH   1  11
TORSDOF 3
ENDMDL
MODEL 8
REMARK VINA RESULT:      -5.7     22.563     25.854
REMARK  Name = 
REMARK  3 active torsions:
REMARK  status: ('A' for Active; 'I' for Inactive)
REMARK    1  A    between atoms: N_7  and  C_8
REMARK    2  A    between atoms: C_8  and  N_10
REMARK    3  A    between atoms: N_10  and  C_11
REMARK                            x       y       z     vdW  Elec       q    Type
REMARK                         _______ _______ _______ _____ _____    ______ ____
ROOT
ATOM      1  C   UNL     1      28.832  24.486  22.163  0.00  0.00    +0.000 C 
ATOM      2  S   UNL     1      27.347  23.839  22.125  0.00  0.00    +0.000 S 
ENDROOT
BRANCH   1   9
ATOM      3  C   UNL     1      30.994  27.822  17.512  0.00  0.00    +0.000 C 
ATOM      4  C   UNL     1      30.263  27.566  18.802  0.00  0.00    +0.000 A 
ATOM      5  C   UNL     1      29.659  28.625  19.457  0.00  0.00    +0.000 A 
ATOM      6  C   UNL     1      28.989  28.416  20.631  0.00  0.00    +0.000 A 
ATOM      7  C   UNL     1      28.927  27.153  21.142  0.00  0.00    +0.000 A 
ATOM      8  C   UNL     1      29.539  26.100  20.475  0.00  0.00    +0.000 A 
ATOM      9  N   UNL     1      29.503  24.772  20.964  0.00  0.00    +0.000 NA
ATOM     10  N   UNL     1      30.187  26.333  19.328  0.00  0.00    +0.000 NA
ENDBRANCH   1   9
BRANCH   1  11
ATOM     11  N   UNL     1      29.442  24.755  23.402  0.00  0.00    +0.000 NA
BRANCH  11  12
ATOM     12  C   UNL     1      28.951  24.328  24.652  0.00  0.00    +0.000 A 
ATOM     13  C   UNL     1      28.014  25.054  25.371  0.00  0.00    +0.000 A 
ATOM     14  C   UNL     1      27.540  26.332  24.752  0.00  0.00    +0.000 C 
ATOM     15  C   UNL     1      27.546  24.619  26.592  0.00  0.00    +0.000 A 
ATOM     16  C   UNL     1      28.023  23.439  27.099  0.00  0.00    +0.000 A 
ATOM     17  C   UNL     1      28.957  22.672  26.428  0.00  0.00    +0.000 A 
ATOM     18  C   UNL     1      29.407  23.137  25.205  0.00  0.00    +0.000 A 
ATOM     19  C   UNL     1      30.423  22.364  24.410  0.00  0.00    +0.000 C 
ENDBRANCH  11  12
ENDBRANCH   1  11
TORSDOF 3
ENDMDL
MODEL 9
REMARK VINA RESULT:      -5.6     20.078     21.588
REMARK  Name = 
REMARK  3 active torsions:
REMARK  status: ('A' for Active; 'I' for Inactive)
REMARK    1  A    between atoms: N_7  and  C_8
REMARK    2  A    between atoms: C_8  and  N_10
REMARK    3  A    between atoms: N_10  and  C_11
REMARK                            x       y       z     vdW  Elec       q    Type
REMARK                         _______ _______ _______ _____ _____    ______ ____
ROOT
ATOM      1  C   UNL     1      26.294  24.736  26.903  0.00  0.00    +0.000 C 
ATOM      2  S   UNL     1      27.407  25.912  26.887  0.00  0.00    +0.000 S 
ENDROOT
BRANCH   1   9
ATOM      3  C   UNL     1      20.520  26.619  27.655  0.00  0.00    +0.000 C 
ATOM      4  C   UNL     1      21.822  26.418  26.925  0.00  0.00    +0.000 A 
ATOM      5  C   UNL     1      21.948  26.889  25.630  0.00  0.00    +0.000 A 
ATOM      6  C   UNL     1      23.121  26.719  24.948  0.00  0.00    +0.000 A 
ATOM      7  C   UNL     1      24.158  26.081  25.563  0.00  0.00    +0.000 A 
ATOM      8  C   UNL     1      24.016  25.613  26.862  0.00  0.00    +0.000 A 
ATOM      9  N   UNL     1      25.062  24.944  27.543  0.00  0.00    +0.000 NA
ATOM     10  N   UNL     1      22.858  25.793  27.506  0.00  0.00    +0.000 NA
ENDBRANCH   1   9
BRANCH   1  11
ATOM     11  N   UNL     1      26.570  23.508  26.273  0.00  0.00    +0.000 NA
BRANCH  11  12
ATOM     12  C   UNL     1      27.816  23.147  25.722  0.00  0.00    +0.000 A 
ATOM     13  C   UNL     1      28.116  23.329  24.381  0.00  0.00    +0.000 A 
ATOM     14  C   UNL     1      27.043  23.934  23.531  0.00  0.00    +0.000 C 
ATOM     15  C   UNL     1      29.340  22.970  23.860  0.00  0.00    +0.000 A 
ATOM     16  C   UNL     1      30.277  22.422  24.696  0.00  0.00    +0.000 A 
ATOM     17  C   UNL     1      30.036  22.216  26.042  0.00  0.00    +0.000 A 
ATOM     18  C   UNL     1      28.796  22.587  26.533  0.00  0.00    +0.000 A 
ATOM     19  C   UNL     1      28.451  22.398  27.985  0.00  0.00    +0.000 C 
ENDBRANCH  11  12
ENDBRANCH   1  11
TORSDOF 3
ENDMDL
MODEL 10
REMARK VINA RESULT:      -5.6     20.115     21.614
REMARK  Name = 
REMARK  3 active torsions:
REMARK  status: ('A' for Active; 'I' for Inactive)
REMARK    1  A    between atoms: N_7  and  C_8
REMARK    2  A    between atoms: C_8  and  N_10
REMARK    3  A    between atoms: N_10  and  C_11
REMARK                            x       y       z     vdW  Elec       q    Type
REMARK                         _______ _______ _______ _____ _____    ______ ____
ROOT
ATOM      1  C   UNL     1      26.382  24.800  26.845  0.00  0.00    +0.000 C 
ATOM      2  S   UNL     1      27.491  25.980  26.806  0.00  0.00    +0.000 S 
ENDROOT
BRANCH   1   9
ATOM      3  C   UNL     1      20.602  26.585  27.770  0.00  0.00    +0.000 C 
ATOM      4  C   UNL     1      21.880  26.394  26.997  0.00  0.00    +0.000 A 
ATOM      5  C   UNL     1      21.949  26.838  25.689  0.00  0.00    +0.000 A 
ATOM      6  C   UNL     1      23.100  26.676  24.967  0.00  0.00    +0.000 A 
ATOM      7  C   UNL     1      24.171  26.072  25.556  0.00  0.00    +0.000 A 
ATOM      8  C   UNL     1      24.087  25.631  26.870  0.00  0.00    +0.000 A 
ATOM      9  N   UNL     1      25.170  24.998  27.526  0.00  0.00    +0.000 NA
ATOM     10  N   UNL     1      22.950  25.802  27.553  0.00  0.00    +0.000 NA
ENDBRANCH   1   9
BRANCH   1  11
ATOM     11  N   UNL     1      26.641  23.579  26.195  0.00  0.00    +0.000 NA
BRANCH  11  12
ATOM     12  C   UNL     1      27.901  23.178  25.705  0.00  0.00    +0.000 A 
ATOM     13  C   UNL     1      28.870  22.613  26.520  0.00  0.00    +0.000 A 
ATOM     14  C   UNL     1      28.514  22.446  27.964  0.00  0.00    +0.000 C 
ATOM     15  C   UNL     1      30.095  22.227  26.023  0.00  0.00    +0.000 A 
ATOM     16  C   UNL     1      30.353  22.409  24.689  0.00  0.00    +0.000 A 
ATOM     17  C   UNL     1      29.426  22.967  23.828  0.00  0.00    +0.000 A 
ATOM     18  C   UNL     1      28.206  23.344  24.360  0.00  0.00    +0.000 A 
ATOM     19  C   UNL     1      27.141  23.959  23.492  0.00  0.00    +0.000 C 
ENDBRANCH  11  12
ENDBRANCH   1  11
TORSDOF 3
ENDMDL
