MODEL 1
REMARK VINA RESULT:      -8.3      0.000      0.000
REMARK  Name = 
REMARK  6 active torsions:
REMARK  status: ('A' for Active; 'I' for Inactive)
REMARK    1  A    between atoms: C_2  and  C_3
REMARK    2  A    between atoms: C_6  and  C_7
REMARK    3  A    between atoms: C_17  and  O_18
REMARK    4  A    between atoms: O_18  and  C_19
REMARK    5  A    between atoms: C_19  and  C_20
REMARK    6  A    between atoms: C_28  and  O_29
REMARK                            x       y       z     vdW  Elec       q    Type
REMARK                         _______ _______ _______ _____ _____    ______ ____
ROOT
ATOM      1  C   UNL     1      36.959   4.597  14.868  0.00  0.00    +0.000 C 
ATOM      2  N   UNL     1      38.045   4.174  13.824  0.00  0.00    +0.000 NA
ATOM      3  C   UNL     1      39.116   3.508  14.388  0.00  0.00    +0.000 C 
ATOM      4  C   UNL     1      38.808   2.086  14.716  0.00  0.00    +0.000 C 
ATOM      5  C   UNL     1      37.424   2.100  15.302  0.00  0.00    +0.000 A 
ATOM      6  C   UNL     1      36.610   3.129  15.388  0.00  0.00    +0.000 A 
ATOM      7  N   UNL     1      35.454   2.787  15.966  0.00  0.00    +0.000 NA
ATOM      8  C   UNL     1      35.526   1.461  16.269  0.00  0.00    +0.000 A 
ATOM      9  C   UNL     1      34.663   0.575  16.860  0.00  0.00    +0.000 A 
ATOM     10  C   UNL     1      35.039  -0.716  17.026  0.00  0.00    +0.000 A 
ATOM     11  C   UNL     1      36.258  -1.234  16.639  0.00  0.00    +0.000 A 
ATOM     12  C   UNL     1      37.113  -0.324  16.045  0.00  0.00    +0.000 A 
ATOM     13  C   UNL     1      36.756   1.003  15.863  0.00  0.00    +0.000 A 
ENDROOT
BRANCH   1  17
ATOM     14  C   UNL     1      39.384   5.793  18.252  0.00  0.00    +0.000 A 
ATOM     15  C   UNL     1      38.616   4.654  18.310  0.00  0.00    +0.000 A 
ATOM     16  C   UNL     1      37.836   4.312  17.179  0.00  0.00    +0.000 A 
ATOM     17  C   UNL     1      37.842   5.083  16.066  0.00  0.00    +0.000 A 
ATOM     18  C   UNL     1      38.594   6.195  16.010  0.00  0.00    +0.000 A 
ATOM     19  C   UNL     1      39.374   6.551  17.122  0.00  0.00    +0.000 A 
BRANCH  14  21
ATOM     20  C   UNL     1      39.606   7.258  20.243  0.00  0.00    +0.000 C 
ATOM     21  C   UNL     1      40.194   6.122  19.465  0.00  0.00    +0.000 C 
ENDBRANCH  14  21
BRANCH  18  22
ATOM     22  O   UNL     1      38.615   6.989  14.895  0.00  0.00    +0.000 OA
ATOM     23  C   UNL     1      37.897   8.181  14.836  0.00  0.00    +0.000 C 
ENDBRANCH  18  22
ENDBRANCH   1  17
BRANCH  11  24
ATOM     24  O   UNL     1      36.614  -2.562  16.823  0.00  0.00    +0.000 OA
BRANCH  24  25
ATOM     25  C   UNL     1      36.833  -3.410  15.744  0.00  0.00    +0.000 C 
BRANCH  25  26
ATOM     26  C   UNL     1      38.107  -3.154  15.045  0.00  0.00    +0.000 A 
ATOM     27  C   UNL     1      39.284  -3.148  15.751  0.00  0.00    +0.000 A 
ATOM     28  C   UNL     1      40.495  -2.923  15.185  0.00  0.00    +0.000 A 
ATOM     29  C   UNL     1      40.564  -2.689  13.833  0.00  0.00    +0.000 A 
ATOM     30  C   UNL     1      39.410  -2.687  13.088  0.00  0.00    +0.000 A 
ATOM     31  C   UNL     1      38.171  -2.921  13.693  0.00  0.00    +0.000 A 
ENDBRANCH  25  26
ENDBRANCH  24  25
ENDBRANCH  11  24
TORSDOF 6
ENDMDL
MODEL 2
REMARK VINA RESULT:      -8.1      1.695      2.626
REMARK  Name = 
REMARK  6 active torsions:
REMARK  status: ('A' for Active; 'I' for Inactive)
REMARK    1  A    between atoms: C_2  and  C_3
REMARK    2  A    between atoms: C_6  and  C_7
REMARK    3  A    between atoms: C_17  and  O_18
REMARK    4  A    between atoms: O_18  and  C_19
REMARK    5  A    between atoms: C_19  and  C_20
REMARK    6  A    between atoms: C_28  and  O_29
REMARK                            x       y       z     vdW  Elec       q    Type
REMARK                         _______ _______ _______ _____ _____    ______ ____
ROOT
ATOM      1  C   UNL     1      37.133   4.245  14.474  0.00  0.00    +0.000 C 
ATOM      2  N   UNL     1      38.169   3.622  13.481  0.00  0.00    +0.000 NA
ATOM      3  C   UNL     1      39.206   2.963  14.114  0.00  0.00    +0.000 C 
ATOM      4  C   UNL     1      38.813   1.618  14.626  0.00  0.00    +0.000 C 
ATOM      5  C   UNL     1      37.444   1.798  15.220  0.00  0.00    +0.000 A 
ATOM      6  C   UNL     1      36.700   2.882  15.181  0.00  0.00    +0.000 A 
ATOM      7  N   UNL     1      35.536   2.693  15.811  0.00  0.00    +0.000 NA
ATOM      8  C   UNL     1      35.528   1.415  16.282  0.00  0.00    +0.000 A 
ATOM      9  C   UNL     1      34.621   0.671  16.990  0.00  0.00    +0.000 A 
ATOM     10  C   UNL     1      34.917  -0.611  17.317  0.00  0.00    +0.000 A 
ATOM     11  C   UNL     1      36.092  -1.254  16.986  0.00  0.00    +0.000 A 
ATOM     12  C   UNL     1      36.992  -0.485  16.271  0.00  0.00    +0.000 A 
ATOM     13  C   UNL     1      36.718   0.829  15.924  0.00  0.00    +0.000 A 
ENDROOT
BRANCH   1  17
ATOM     14  C   UNL     1      39.677   5.711  17.659  0.00  0.00    +0.000 A 
ATOM     15  C   UNL     1      38.722   4.754  17.911  0.00  0.00    +0.000 A 
ATOM     16  C   UNL     1      37.912   4.314  16.836  0.00  0.00    +0.000 A 
ATOM     17  C   UNL     1      38.068   4.820  15.590  0.00  0.00    +0.000 A 
ATOM     18  C   UNL     1      39.003   5.755  15.345  0.00  0.00    +0.000 A 
ATOM     19  C   UNL     1      39.816   6.203  16.398  0.00  0.00    +0.000 A 
BRANCH  14  21
ATOM     20  C   UNL     1      39.685   6.751  19.913  0.00  0.00    +0.000 C 
ATOM     21  C   UNL     1      40.512   6.149  18.818  0.00  0.00    +0.000 C 
ENDBRANCH  14  21
BRANCH  18  22
ATOM     22  O   UNL     1      39.178   6.279  14.093  0.00  0.00    +0.000 OA
ATOM     23  C   UNL     1      40.449   6.510  13.572  0.00  0.00    +0.000 C 
ENDBRANCH  18  22
ENDBRANCH   1  17
BRANCH  11  24
ATOM     24  O   UNL     1      36.365  -2.567  17.335  0.00  0.00    +0.000 OA
BRANCH  24  25
ATOM     25  C   UNL     1      36.844  -3.480  16.403  0.00  0.00    +0.000 C 
BRANCH  25  26
ATOM     26  C   UNL     1      35.794  -4.352  15.843  0.00  0.00    +0.000 A 
ATOM     27  C   UNL     1      34.867  -3.833  14.974  0.00  0.00    +0.000 A 
ATOM     28  C   UNL     1      33.873  -4.566  14.414  0.00  0.00    +0.000 A 
ATOM     29  C   UNL     1      33.776  -5.901  14.723  0.00  0.00    +0.000 A 
ATOM     30  C   UNL     1      34.683  -6.462  15.588  0.00  0.00    +0.000 A 
ATOM     31  C   UNL     1      35.701  -5.686  16.154  0.00  0.00    +0.000 A 
ENDBRANCH  25  26
ENDBRANCH  24  25
ENDBRANCH  11  24
TORSDOF 6
ENDMDL
MODEL 3
REMARK VINA RESULT:      -8.0      1.730      8.074
REMARK  Name = 
REMARK  6 active torsions:
REMARK  status: ('A' for Active; 'I' for Inactive)
REMARK    1  A    between atoms: C_2  and  C_3
REMARK    2  A    between atoms: C_6  and  C_7
REMARK    3  A    between atoms: C_17  and  O_18
REMARK    4  A    between atoms: O_18  and  C_19
REMARK    5  A    between atoms: C_19  and  C_20
REMARK    6  A    between atoms: C_28  and  O_29
REMARK                            x       y       z     vdW  Elec       q    Type
REMARK                         _______ _______ _______ _____ _____    ______ ____
ROOT
ATOM      1  C   UNL     1      35.494   0.275  15.365  0.00  0.00    +0.000 C 
ATOM      2  N   UNL     1      34.935   0.085  16.813  0.00  0.00    +0.000 NA
ATOM      3  C   UNL     1      35.921   0.051  17.780  0.00  0.00    +0.000 C 
ATOM      4  C   UNL     1      36.456   1.404  18.113  0.00  0.00    +0.000 C 
ATOM      5  C   UNL     1      36.593   2.115  16.796  0.00  0.00    +0.000 A 
ATOM      6  C   UNL     1      36.205   1.681  15.616  0.00  0.00    +0.000 A 
ATOM      7  N   UNL     1      36.482   2.571  14.657  0.00  0.00    +0.000 NA
ATOM      8  C   UNL     1      37.083   3.639  15.252  0.00  0.00    +0.000 A 
ATOM      9  C   UNL     1      37.579   4.829  14.786  0.00  0.00    +0.000 A 
ATOM     10  C   UNL     1      38.133   5.709  15.655  0.00  0.00    +0.000 A 
ATOM     11  C   UNL     1      38.245   5.504  17.015  0.00  0.00    +0.000 A 
ATOM     12  C   UNL     1      37.738   4.298  17.463  0.00  0.00    +0.000 A 
ATOM     13  C   UNL     1      37.166   3.378  16.598  0.00  0.00    +0.000 A 
ENDROOT
BRANCH   1  17
ATOM     14  C   UNL     1      39.080  -2.152  15.445  0.00  0.00    +0.000 A 
ATOM     15  C   UNL     1      39.161  -0.791  15.276  0.00  0.00    +0.000 A 
ATOM     16  C   UNL     1      37.959  -0.044  15.249  0.00  0.00    +0.000 A 
ATOM     17  C   UNL     1      36.756  -0.650  15.387  0.00  0.00    +0.000 A 
ATOM     18  C   UNL     1      36.678  -1.982  15.554  0.00  0.00    +0.000 A 
ATOM     19  C   UNL     1      37.860  -2.739  15.583  0.00  0.00    +0.000 A 
BRANCH  14  21
ATOM     20  C   UNL     1      41.212  -2.619  14.262  0.00  0.00    +0.000 C 
ATOM     21  C   UNL     1      40.371  -2.906  15.468  0.00  0.00    +0.000 C 
ENDBRANCH  14  21
BRANCH  18  22
ATOM     22  O   UNL     1      35.473  -2.615  15.696  0.00  0.00    +0.000 OA
ATOM     23  C   UNL     1      35.078  -3.633  14.830  0.00  0.00    +0.000 C 
ENDBRANCH  18  22
ENDBRANCH   1  17
BRANCH  11  24
ATOM     24  O   UNL     1      38.818   6.425  17.879  0.00  0.00    +0.000 OA
BRANCH  24  25
ATOM     25  C   UNL     1      39.428   6.026  19.062  0.00  0.00    +0.000 C 
BRANCH  25  26
ATOM     26  C   UNL     1      40.878   6.298  19.095  0.00  0.00    +0.000 A 
ATOM     27  C   UNL     1      41.538   6.343  20.298  0.00  0.00    +0.000 A 
ATOM     28  C   UNL     1      42.866   6.585  20.414  0.00  0.00    +0.000 A 
ATOM     29  C   UNL     1      43.606   6.798  19.277  0.00  0.00    +0.000 A 
ATOM     30  C   UNL     1      42.987   6.762  18.051  0.00  0.00    +0.000 A 
ATOM     31  C   UNL     1      41.614   6.510  17.955  0.00  0.00    +0.000 A 
ENDBRANCH  25  26
ENDBRANCH  24  25
ENDBRANCH  11  24
TORSDOF 6
ENDMDL
MODEL 4
REMARK VINA RESULT:      -8.0      3.616      6.272
REMARK  Name = 
REMARK  6 active torsions:
REMARK  status: ('A' for Active; 'I' for Inactive)
REMARK    1  A    between atoms: C_2  and  C_3
REMARK    2  A    between atoms: C_6  and  C_7
REMARK    3  A    between atoms: C_17  and  O_18
REMARK    4  A    between atoms: O_18  and  C_19
REMARK    5  A    between atoms: C_19  and  C_20
REMARK    6  A    between atoms: C_28  and  O_29
REMARK                            x       y       z     vdW  Elec       q    Type
REMARK                         _______ _______ _______ _____ _____    ______ ____
ROOT
ATOM      1  C   UNL     1      36.937   0.751  13.284  0.00  0.00    +0.000 C 
ATOM      2  N   UNL     1      37.636   2.147  13.378  0.00  0.00    +0.000 NA
ATOM      3  C   UNL     1      38.414   2.294  14.511  0.00  0.00    +0.000 C 
ATOM      4  C   UNL     1      39.725   1.589  14.411  0.00  0.00    +0.000 C 
ATOM      5  C   UNL     1      39.421   0.266  13.765  0.00  0.00    +0.000 A 
ATOM      6  C   UNL     1      38.266  -0.130  13.276  0.00  0.00    +0.000 A 
ATOM      7  N   UNL     1      38.350  -1.367  12.774  0.00  0.00    +0.000 NA
ATOM      8  C   UNL     1      39.633  -1.792  12.947  0.00  0.00    +0.000 A 
ATOM      9  C   UNL     1      40.299  -2.949  12.639  0.00  0.00    +0.000 A 
ATOM     10  C   UNL     1      41.612  -3.069  12.951  0.00  0.00    +0.000 A 
ATOM     11  C   UNL     1      42.363  -2.094  13.573  0.00  0.00    +0.000 A 
ATOM     12  C   UNL     1      41.672  -0.935  13.875  0.00  0.00    +0.000 A 
ATOM     13  C   UNL     1      40.329  -0.783  13.570  0.00  0.00    +0.000 A 
ENDROOT
BRANCH   1  17
ATOM     14  C   UNL     1      35.834   0.013  17.407  0.00  0.00    +0.000 A 
ATOM     15  C   UNL     1      36.791  -0.757  16.790  0.00  0.00    +0.000 A 
ATOM     16  C   UNL     1      37.110  -0.480  15.439  0.00  0.00    +0.000 A 
ATOM     17  C   UNL     1      36.490   0.519  14.766  0.00  0.00    +0.000 A 
ATOM     18  C   UNL     1      35.555   1.271  15.370  0.00  0.00    +0.000 A 
ATOM     19  C   UNL     1      35.226   1.010  16.710  0.00  0.00    +0.000 A 
BRANCH  14  21
ATOM     20  C   UNL     1      36.566  -1.195  19.448  0.00  0.00    +0.000 C 
ATOM     21  C   UNL     1      35.525  -0.311  18.833  0.00  0.00    +0.000 C 
ENDBRANCH  14  21
BRANCH  18  22
ATOM     22  O   UNL     1      34.916   2.286  14.708  0.00  0.00    +0.000 OA
ATOM     23  C   UNL     1      34.246   3.295  15.395  0.00  0.00    +0.000 C 
ENDBRANCH  18  22
ENDBRANCH   1  17
BRANCH  11  24
ATOM     24  O   UNL     1      43.707  -2.247  13.880  0.00  0.00    +0.000 OA
BRANCH  24  25
ATOM     25  C   UNL     1      44.513  -1.153  14.169  0.00  0.00    +0.000 C 
BRANCH  25  26
ATOM     26  C   UNL     1      45.105  -1.201  15.520  0.00  0.00    +0.000 A 
ATOM     27  C   UNL     1      45.567  -2.391  16.022  0.00  0.00    +0.000 A 
ATOM     28  C   UNL     1      46.125  -2.519  17.251  0.00  0.00    +0.000 A 
ATOM     29  C   UNL     1      46.240  -1.406  18.049  0.00  0.00    +0.000 A 
ATOM     30  C   UNL     1      45.790  -0.194  17.585  0.00  0.00    +0.000 A 
ATOM     31  C   UNL     1      45.218  -0.085  16.313  0.00  0.00    +0.000 A 
ENDBRANCH  25  26
ENDBRANCH  24  25
ENDBRANCH  11  24
TORSDOF 6
ENDMDL
MODEL 5
REMARK VINA RESULT:      -7.7      8.687     13.187
REMARK  Name = 
REMARK  6 active torsions:
REMARK  status: ('A' for Active; 'I' for Inactive)
REMARK    1  A    between atoms: C_2  and  C_3
REMARK    2  A    between atoms: C_6  and  C_7
REMARK    3  A    between atoms: C_17  and  O_18
REMARK    4  A    between atoms: O_18  and  C_19
REMARK    5  A    between atoms: C_19  and  C_20
REMARK    6  A    between atoms: C_28  and  O_29
REMARK                            x       y       z     vdW  Elec       q    Type
REMARK                         _______ _______ _______ _____ _____    ______ ____
ROOT
ATOM      1  C   UNL     1      44.634   6.452  28.582  0.00  0.00    +0.000 C 
ATOM      2  N   UNL     1      44.938   4.919  28.523  0.00  0.00    +0.000 NA
ATOM      3  C   UNL     1      43.928   4.184  27.934  0.00  0.00    +0.000 C 
ATOM      4  C   UNL     1      43.925   4.289  26.445  0.00  0.00    +0.000 C 
ATOM      5  C   UNL     1      44.196   5.737  26.146  0.00  0.00    +0.000 A 
ATOM      6  C   UNL     1      44.498   6.682  27.009  0.00  0.00    +0.000 A 
ATOM      7  N   UNL     1      44.676   7.858  26.398  0.00  0.00    +0.000 NA
ATOM      8  C   UNL     1      44.478   7.660  25.065  0.00  0.00    +0.000 A 
ATOM      9  C   UNL     1      44.523   8.480  23.967  0.00  0.00    +0.000 A 
ATOM     10  C   UNL     1      44.269   7.968  22.739  0.00  0.00    +0.000 A 
ATOM     11  C   UNL     1      43.960   6.647  22.488  0.00  0.00    +0.000 A 
ATOM     12  C   UNL     1      43.920   5.838  23.609  0.00  0.00    +0.000 A 
ATOM     13  C   UNL     1      44.173   6.333  24.878  0.00  0.00    +0.000 A 
ENDROOT
BRANCH   1  17
ATOM     14  C   UNL     1      40.400   6.501  29.493  0.00  0.00    +0.000 A 
ATOM     15  C   UNL     1      40.859   6.944  28.275  0.00  0.00    +0.000 A 
ATOM     16  C   UNL     1      42.252   6.914  28.030  0.00  0.00    +0.000 A 
ATOM     17  C   UNL     1      43.118   6.462  28.969  0.00  0.00    +0.000 A 
ATOM     18  C   UNL     1      42.669   6.028  30.159  0.00  0.00    +0.000 A 
ATOM     19  C   UNL     1      41.289   6.050  30.420  0.00  0.00    +0.000 A 
BRANCH  14  21
ATOM     20  C   UNL     1      38.527   5.905  31.008  0.00  0.00    +0.000 C 
ATOM     21  C   UNL     1      38.923   6.548  29.715  0.00  0.00    +0.000 C 
ENDBRANCH  14  21
BRANCH  18  22
ATOM     22  O   UNL     1      43.526   5.565  31.121  0.00  0.00    +0.000 OA
ATOM     23  C   UNL     1      43.829   6.322  32.250  0.00  0.00    +0.000 C 
ENDBRANCH  18  22
ENDBRANCH   1  17
BRANCH  11  24
ATOM     24  O   UNL     1      43.705   6.153  21.218  0.00  0.00    +0.000 OA
BRANCH  24  25
ATOM     25  C   UNL     1      43.419   7.000  20.154  0.00  0.00    +0.000 C 
BRANCH  25  26
ATOM     26  C   UNL     1      42.148   6.683  19.476  0.00  0.00    +0.000 A 
ATOM     27  C   UNL     1      42.118   6.544  18.111  0.00  0.00    +0.000 A 
ATOM     28  C   UNL     1      40.993   6.251  17.413  0.00  0.00    +0.000 A 
ATOM     29  C   UNL     1      39.812   6.082  18.094  0.00  0.00    +0.000 A 
ATOM     30  C   UNL     1      39.797   6.212  19.461  0.00  0.00    +0.000 A 
ATOM     31  C   UNL     1      40.970   6.514  20.161  0.00  0.00    +0.000 A 
ENDBRANCH  25  26
ENDBRANCH  24  25
ENDBRANCH  11  24
TORSDOF 6
ENDMDL
MODEL 6
REMARK VINA RESULT:      -7.5      7.194     12.299
REMARK  Name = 
REMARK  6 active torsions:
REMARK  status: ('A' for Active; 'I' for Inactive)
REMARK    1  A    between atoms: C_2  and  C_3
REMARK    2  A    between atoms: C_6  and  C_7
REMARK    3  A    between atoms: C_17  and  O_18
REMARK    4  A    between atoms: O_18  and  C_19
REMARK    5  A    between atoms: C_19  and  C_20
REMARK    6  A    between atoms: C_28  and  O_29
REMARK                            x       y       z     vdW  Elec       q    Type
REMARK                         _______ _______ _______ _____ _____    ______ ____
ROOT
ATOM      1  C   UNL     1      45.014   6.660  20.482  0.00  0.00    +0.000 C 
ATOM      2  N   UNL     1      45.268   8.204  20.477  0.00  0.00    +0.000 NA
ATOM      3  C   UNL     1      44.199   8.935  20.955  0.00  0.00    +0.000 C 
ATOM      4  C   UNL     1      44.095   8.908  22.444  0.00  0.00    +0.000 C 
ATOM      5  C   UNL     1      44.387   7.488  22.840  0.00  0.00    +0.000 A 
ATOM      6  C   UNL     1      44.776   6.509  22.052  0.00  0.00    +0.000 A 
ATOM      7  N   UNL     1      44.945   5.373  22.737  0.00  0.00    +0.000 NA
ATOM      8  C   UNL     1      44.649   5.634  24.041  0.00  0.00    +0.000 A 
ATOM      9  C   UNL     1      44.642   4.876  25.183  0.00  0.00    +0.000 A 
ATOM     10  C   UNL     1      44.289   5.443  26.361  0.00  0.00    +0.000 A 
ATOM     11  C   UNL     1      43.924   6.765  26.518  0.00  0.00    +0.000 A 
ATOM     12  C   UNL     1      43.939   7.512  25.354  0.00  0.00    +0.000 A 
ATOM     13  C   UNL     1      44.294   6.959  24.134  0.00  0.00    +0.000 A 
ENDROOT
BRANCH   1  17
ATOM     14  C   UNL     1      40.856   6.439  19.290  0.00  0.00    +0.000 A 
ATOM     15  C   UNL     1      41.226   6.174  20.587  0.00  0.00    +0.000 A 
ATOM     16  C   UNL     1      42.599   6.253  20.923  0.00  0.00    +0.000 A 
ATOM     17  C   UNL     1      43.529   6.581  19.994  0.00  0.00    +0.000 A 
ATOM     18  C   UNL     1      43.165   6.840  18.727  0.00  0.00    +0.000 A 
ATOM     19  C   UNL     1      41.808   6.766  18.375  0.00  0.00    +0.000 A 
BRANCH  14  21
ATOM     20  C   UNL     1      39.023   4.996  18.442  0.00  0.00    +0.000 C 
ATOM     21  C   UNL     1      39.398   6.345  18.974  0.00  0.00    +0.000 C 
ENDBRANCH  14  21
BRANCH  18  22
ATOM     22  O   UNL     1      44.088   7.173  17.773  0.00  0.00    +0.000 OA
ATOM     23  C   UNL     1      43.888   6.869  16.428  0.00  0.00    +0.000 C 
ENDBRANCH  18  22
ENDBRANCH   1  17
BRANCH  11  24
ATOM     24  O   UNL     1      43.568   7.317  27.739  0.00  0.00    +0.000 OA
BRANCH  24  25
ATOM     25  C   UNL     1      43.483   6.539  28.888  0.00  0.00    +0.000 C 
BRANCH  25  26
ATOM     26  C   UNL     1      42.099   6.183  29.254  0.00  0.00    +0.000 A 
ATOM     27  C   UNL     1      41.083   7.080  29.042  0.00  0.00    +0.000 A 
ATOM     28  C   UNL     1      39.786   6.830  29.349  0.00  0.00    +0.000 A 
ATOM     29  C   UNL     1      39.456   5.616  29.902  0.00  0.00    +0.000 A 
ATOM     30  C   UNL     1      40.441   4.687  30.131  0.00  0.00    +0.000 A 
ATOM     31  C   UNL     1      41.773   4.968  29.806  0.00  0.00    +0.000 A 
ENDBRANCH  25  26
ENDBRANCH  24  25
ENDBRANCH  11  24
TORSDOF 6
ENDMDL
MODEL 7
REMARK VINA RESULT:      -7.3      4.550      8.673
REMARK  Name = 
REMARK  6 active torsions:
REMARK  status: ('A' for Active; 'I' for Inactive)
REMARK    1  A    between atoms: C_2  and  C_3
REMARK    2  A    between atoms: C_6  and  C_7
REMARK    3  A    between atoms: C_17  and  O_18
REMARK    4  A    between atoms: O_18  and  C_19
REMARK    5  A    between atoms: C_19  and  C_20
REMARK    6  A    between atoms: C_28  and  O_29
REMARK                            x       y       z     vdW  Elec       q    Type
REMARK                         _______ _______ _______ _____ _____    ______ ____
ROOT
ATOM      1  C   UNL     1      38.934  -1.616  16.215  0.00  0.00    +0.000 C 
ATOM      2  N   UNL     1      40.068  -2.283  15.369  0.00  0.00    +0.000 NA
ATOM      3  C   UNL     1      39.617  -2.824  14.180  0.00  0.00    +0.000 C 
ATOM      4  C   UNL     1      39.372  -1.794  13.129  0.00  0.00    +0.000 C 
ATOM      5  C   UNL     1      38.706  -0.649  13.837  0.00  0.00    +0.000 A 
ATOM      6  C   UNL     1      38.499  -0.529  15.131  0.00  0.00    +0.000 A 
ATOM      7  N   UNL     1      37.879   0.620  15.419  0.00  0.00    +0.000 NA
ATOM      8  C   UNL     1      37.674   1.280  14.245  0.00  0.00    +0.000 A 
ATOM      9  C   UNL     1      37.098   2.479  13.918  0.00  0.00    +0.000 A 
ATOM     10  C   UNL     1      37.046   2.866  12.621  0.00  0.00    +0.000 A 
ATOM     11  C   UNL     1      37.540   2.132  11.563  0.00  0.00    +0.000 A 
ATOM     12  C   UNL     1      38.118   0.925  11.914  0.00  0.00    +0.000 A 
ATOM     13  C   UNL     1      38.185   0.503  13.233  0.00  0.00    +0.000 A 
ENDROOT
BRANCH   1  17
ATOM     14  C   UNL     1      35.626  -4.341  15.588  0.00  0.00    +0.000 A 
ATOM     15  C   UNL     1      35.609  -3.082  15.035  0.00  0.00    +0.000 A 
ATOM     16  C   UNL     1      36.712  -2.228  15.276  0.00  0.00    +0.000 A 
ATOM     17  C   UNL     1      37.759  -2.635  16.032  0.00  0.00    +0.000 A 
ATOM     18  C   UNL     1      37.774  -3.866  16.571  0.00  0.00    +0.000 A 
ATOM     19  C   UNL     1      36.689  -4.727  16.343  0.00  0.00    +0.000 A 
BRANCH  14  21
ATOM     20  C   UNL     1      33.698  -4.779  14.087  0.00  0.00    +0.000 C 
ATOM     21  C   UNL     1      34.444  -5.213  15.311  0.00  0.00    +0.000 C 
ENDBRANCH  14  21
BRANCH  18  22
ATOM     22  O   UNL     1      38.823  -4.297  17.338  0.00  0.00    +0.000 OA
ATOM     23  C   UNL     1      38.791  -4.217  18.729  0.00  0.00    +0.000 C 
ENDBRANCH  18  22
ENDBRANCH   1  17
BRANCH  11  24
ATOM     24  O   UNL     1      37.472   2.555  10.244  0.00  0.00    +0.000 OA
BRANCH  24  25
ATOM     25  C   UNL     1      37.336   1.650   9.199  0.00  0.00    +0.000 C 
BRANCH  25  26
ATOM     26  C   UNL     1      36.687   2.224   8.005  0.00  0.00    +0.000 A 
ATOM     27  C   UNL     1      36.625   1.495   6.844  0.00  0.00    +0.000 A 
ATOM     28  C   UNL     1      36.045   1.949   5.705  0.00  0.00    +0.000 A 
ATOM     29  C   UNL     1      35.485   3.204   5.698  0.00  0.00    +0.000 A 
ATOM     30  C   UNL     1      35.524   3.967   6.839  0.00  0.00    +0.000 A 
ATOM     31  C   UNL     1      36.128   3.478   8.002  0.00  0.00    +0.000 A 
ENDBRANCH  25  26
ENDBRANCH  24  25
ENDBRANCH  11  24
TORSDOF 6
ENDMDL
MODEL 8
REMARK VINA RESULT:      -7.3      4.261      7.639
REMARK  Name = 
REMARK  6 active torsions:
REMARK  status: ('A' for Active; 'I' for Inactive)
REMARK    1  A    between atoms: C_2  and  C_3
REMARK    2  A    between atoms: C_6  and  C_7
REMARK    3  A    between atoms: C_17  and  O_18
REMARK    4  A    between atoms: O_18  and  C_19
REMARK    5  A    between atoms: C_19  and  C_20
REMARK    6  A    between atoms: C_28  and  O_29
REMARK                            x       y       z     vdW  Elec       q    Type
REMARK                         _______ _______ _______ _____ _____    ______ ____
ROOT
ATOM      1  C   UNL     1      39.058  -2.375  16.290  0.00  0.00    +0.000 C 
ATOM      2  N   UNL     1      38.249  -3.647  15.871  0.00  0.00    +0.000 NA
ATOM      3  C   UNL     1      37.266  -3.386  14.936  0.00  0.00    +0.000 C 
ATOM      4  C   UNL     1      37.807  -3.216  13.556  0.00  0.00    +0.000 C 
ATOM      5  C   UNL     1      39.057  -2.396  13.713  0.00  0.00    +0.000 A 
ATOM      6  C   UNL     1      39.621  -2.018  14.840  0.00  0.00    +0.000 A 
ATOM      7  N   UNL     1      40.724  -1.298  14.613  0.00  0.00    +0.000 NA
ATOM      8  C   UNL     1      40.882  -1.206  13.263  0.00  0.00    +0.000 A 
ATOM      9  C   UNL     1      41.811  -0.605  12.455  0.00  0.00    +0.000 A 
ATOM     10  C   UNL     1      41.687  -0.696  11.109  0.00  0.00    +0.000 A 
ATOM     11  C   UNL     1      40.672  -1.367  10.458  0.00  0.00    +0.000 A 
ATOM     12  C   UNL     1      39.746  -1.966  11.292  0.00  0.00    +0.000 A 
ATOM     13  C   UNL     1      39.845  -1.889  12.672  0.00  0.00    +0.000 A 
ENDROOT
BRANCH   1  17
ATOM     14  C   UNL     1      35.967   0.656  16.419  0.00  0.00    +0.000 A 
ATOM     15  C   UNL     1      36.939   0.690  15.448  0.00  0.00    +0.000 A 
ATOM     16  C   UNL     1      37.931  -0.320  15.455  0.00  0.00    +0.000 A 
ATOM     17  C   UNL     1      37.927  -1.298  16.392  0.00  0.00    +0.000 A 
ATOM     18  C   UNL     1      36.976  -1.330  17.340  0.00  0.00    +0.000 A 
ATOM     19  C   UNL     1      35.983  -0.337  17.349  0.00  0.00    +0.000 A 
BRANCH  14  21
ATOM     20  C   UNL     1      34.967   2.497  15.089  0.00  0.00    +0.000 C 
ATOM     21  C   UNL     1      34.937   1.739  16.380  0.00  0.00    +0.000 C 
ENDBRANCH  14  21
BRANCH  18  22
ATOM     22  O   UNL     1      36.953  -2.310  18.296  0.00  0.00    +0.000 OA
ATOM     23  C   UNL     1      37.416  -2.077  19.589  0.00  0.00    +0.000 C 
ENDBRANCH  18  22
ENDBRANCH   1  17
BRANCH  11  24
ATOM     24  O   UNL     1      40.572  -1.442   9.077  0.00  0.00    +0.000 OA
BRANCH  24  25
ATOM     25  C   UNL     1      40.692  -0.311   8.279  0.00  0.00    +0.000 C 
BRANCH  25  26
ATOM     26  C   UNL     1      39.412   0.135   7.697  0.00  0.00    +0.000 A 
ATOM     27  C   UNL     1      38.596   0.980   8.406  0.00  0.00    +0.000 A 
ATOM     28  C   UNL     1      37.406   1.436   7.942  0.00  0.00    +0.000 A 
ATOM     29  C   UNL     1      36.981   1.040   6.697  0.00  0.00    +0.000 A 
ATOM     30  C   UNL     1      37.767   0.195   5.952  0.00  0.00    +0.000 A 
ATOM     31  C   UNL     1      38.991  -0.263   6.451  0.00  0.00    +0.000 A 
ENDBRANCH  25  26
ENDBRANCH  24  25
ENDBRANCH  11  24
TORSDOF 6
ENDMDL
MODEL 9
REMARK VINA RESULT:      -7.1      4.266      7.325
REMARK  Name = 
REMARK  6 active torsions:
REMARK  status: ('A' for Active; 'I' for Inactive)
REMARK    1  A    between atoms: C_2  and  C_3
REMARK    2  A    between atoms: C_6  and  C_7
REMARK    3  A    between atoms: C_17  and  O_18
REMARK    4  A    between atoms: O_18  and  C_19
REMARK    5  A    between atoms: C_19  and  C_20
REMARK    6  A    between atoms: C_28  and  O_29
REMARK                            x       y       z     vdW  Elec       q    Type
REMARK                         _______ _______ _______ _____ _____    ______ ____
ROOT
ATOM      1  C   UNL     1      38.843  -2.469  16.425  0.00  0.00    +0.000 C 
ATOM      2  N   UNL     1      38.010  -3.722  15.998  0.00  0.00    +0.000 NA
ATOM      3  C   UNL     1      37.065  -3.446  15.029  0.00  0.00    +0.000 C 
ATOM      4  C   UNL     1      37.654  -3.312  13.664  0.00  0.00    +0.000 C 
ATOM      5  C   UNL     1      38.922  -2.526  13.850  0.00  0.00    +0.000 A 
ATOM      6  C   UNL     1      39.461  -2.149  14.989  0.00  0.00    +0.000 A 
ATOM      7  N   UNL     1      40.591  -1.464  14.788  0.00  0.00    +0.000 NA
ATOM      8  C   UNL     1      40.794  -1.396  13.442  0.00  0.00    +0.000 A 
ATOM      9  C   UNL     1      41.765  -0.833  12.657  0.00  0.00    +0.000 A 
ATOM     10  C   UNL     1      41.681  -0.940  11.309  0.00  0.00    +0.000 A 
ATOM     11  C   UNL     1      40.667  -1.590  10.635  0.00  0.00    +0.000 A 
ATOM     12  C   UNL     1      39.698  -2.150  11.446  0.00  0.00    +0.000 A 
ATOM     13  C   UNL     1      39.757  -2.056  12.828  0.00  0.00    +0.000 A 
ENDROOT
BRANCH   1  17
ATOM     14  C   UNL     1      35.835   0.648  16.414  0.00  0.00    +0.000 A 
ATOM     15  C   UNL     1      36.809   0.613  15.445  0.00  0.00    +0.000 A 
ATOM     16  C   UNL     1      37.773  -0.422  15.498  0.00  0.00    +0.000 A 
ATOM     17  C   UNL     1      37.742  -1.358  16.477  0.00  0.00    +0.000 A 
ATOM     18  C   UNL     1      36.788  -1.323  17.424  0.00  0.00    +0.000 A 
ATOM     19  C   UNL     1      35.823  -0.303  17.387  0.00  0.00    +0.000 A 
BRANCH  14  21
ATOM     20  C   UNL     1      35.020   2.582  15.090  0.00  0.00    +0.000 C 
ATOM     21  C   UNL     1      34.835   1.755  16.325  0.00  0.00    +0.000 C 
ENDBRANCH  14  21
BRANCH  18  22
ATOM     22  O   UNL     1      36.738  -2.259  18.422  0.00  0.00    +0.000 OA
ATOM     23  C   UNL     1      37.346  -2.041  19.656  0.00  0.00    +0.000 C 
ENDBRANCH  18  22
ENDBRANCH   1  17
BRANCH  11  24
ATOM     24  O   UNL     1      40.609  -1.682   9.253  0.00  0.00    +0.000 OA
BRANCH  24  25
ATOM     25  C   UNL     1      40.761  -2.900   8.601  0.00  0.00    +0.000 C 
BRANCH  25  26
ATOM     26  C   UNL     1      42.073  -3.533   8.838  0.00  0.00    +0.000 A 
ATOM     27  C   UNL     1      42.147  -4.705   9.548  0.00  0.00    +0.000 A 
ATOM     28  C   UNL     1      43.311  -5.350   9.808  0.00  0.00    +0.000 A 
ATOM     29  C   UNL     1      44.487  -4.814   9.343  0.00  0.00    +0.000 A 
ATOM     30  C   UNL     1      44.459  -3.643   8.627  0.00  0.00    +0.000 A 
ATOM     31  C   UNL     1      43.246  -2.994   8.370  0.00  0.00    +0.000 A 
ENDBRANCH  25  26
ENDBRANCH  24  25
ENDBRANCH  11  24
TORSDOF 6
ENDMDL
MODEL 10
REMARK VINA RESULT:      -7.1      3.532      8.910
REMARK  Name = 
REMARK  6 active torsions:
REMARK  status: ('A' for Active; 'I' for Inactive)
REMARK    1  A    between atoms: C_2  and  C_3
REMARK    2  A    between atoms: C_6  and  C_7
REMARK    3  A    between atoms: C_17  and  O_18
REMARK    4  A    between atoms: O_18  and  C_19
REMARK    5  A    between atoms: C_19  and  C_20
REMARK    6  A    between atoms: C_28  and  O_29
REMARK                            x       y       z     vdW  Elec       q    Type
REMARK                         _______ _______ _______ _____ _____    ______ ____
ROOT
ATOM      1  C   UNL     1      42.242  -2.502  14.236  0.00  0.00    +0.000 C 
ATOM      2  N   UNL     1      43.420  -1.473  14.283  0.00  0.00    +0.000 NA
ATOM      3  C   UNL     1      43.338  -0.503  13.303  0.00  0.00    +0.000 C 
ATOM      4  C   UNL     1      42.336   0.557  13.616  0.00  0.00    +0.000 C 
ATOM      5  C   UNL     1      41.148  -0.170  14.181  0.00  0.00    +0.000 A 
ATOM      6  C   UNL     1      41.061  -1.453  14.458  0.00  0.00    +0.000 A 
ATOM      7  N   UNL     1      39.857  -1.762  14.950  0.00  0.00    +0.000 NA
ATOM      8  C   UNL     1      39.125  -0.614  14.992  0.00  0.00    +0.000 A 
ATOM      9  C   UNL     1      37.848  -0.317  15.393  0.00  0.00    +0.000 A 
ATOM     10  C   UNL     1      37.400   0.959  15.309  0.00  0.00    +0.000 A 
ATOM     11  C   UNL     1      38.143   2.022  14.839  0.00  0.00    +0.000 A 
ATOM     12  C   UNL     1      39.428   1.700  14.440  0.00  0.00    +0.000 A 
ATOM     13  C   UNL     1      39.914   0.404  14.513  0.00  0.00    +0.000 A 
ENDROOT
BRANCH   1  17
ATOM     14  C   UNL     1      41.682  -3.036   9.974  0.00  0.00    +0.000 A 
ATOM     15  C   UNL     1      40.727  -2.400  10.731  0.00  0.00    +0.000 A 
ATOM     16  C   UNL     1      40.955  -2.258  12.121  0.00  0.00    +0.000 A 
ATOM     17  C   UNL     1      42.084  -2.734  12.696  0.00  0.00    +0.000 A 
ATOM     18  C   UNL     1      43.018  -3.354  11.955  0.00  0.00    +0.000 A 
ATOM     19  C   UNL     1      42.809  -3.505  10.575  0.00  0.00    +0.000 A 
BRANCH  14  21
ATOM     20  C   UNL     1      40.570  -2.037   7.993  0.00  0.00    +0.000 C 
ATOM     21  C   UNL     1      41.406  -3.166   8.511  0.00  0.00    +0.000 C 
ENDBRANCH  14  21
BRANCH  18  22
ATOM     22  O   UNL     1      44.168  -3.843  12.517  0.00  0.00    +0.000 OA
ATOM     23  C   UNL     1      45.422  -3.525  12.001  0.00  0.00    +0.000 C 
ENDBRANCH  18  22
ENDBRANCH   1  17
BRANCH  11  24
ATOM     24  O   UNL     1      37.655   3.318  14.764  0.00  0.00    +0.000 OA
BRANCH  24  25
ATOM     25  C   UNL     1      37.300   4.025  15.907  0.00  0.00    +0.000 C 
BRANCH  25  26
ATOM     26  C   UNL     1      38.429   4.743  16.528  0.00  0.00    +0.000 A 
ATOM     27  C   UNL     1      38.505   4.846  17.894  0.00  0.00    +0.000 A 
ATOM     28  C   UNL     1      39.508   5.486  18.542  0.00  0.00    +0.000 A 
ATOM     29  C   UNL     1      40.511   6.069  17.805  0.00  0.00    +0.000 A 
ATOM     30  C   UNL     1      40.475   5.990  16.435  0.00  0.00    +0.000 A 
ATOM     31  C   UNL     1      39.429   5.323  15.787  0.00  0.00    +0.000 A 
ENDBRANCH  25  26
ENDBRANCH  24  25
ENDBRANCH  11  24
TORSDOF 6
ENDMDL
