MODEL 1
REMARK VINA RESULT:      -6.3      0.000      0.000
REMARK  Name = 
REMARK  4 active torsions:
REMARK  status: ('A' for Active; 'I' for Inactive)
REMARK    1  A    between atoms: O_2  and  C_3
REMARK    2  A    between atoms: C_7  and  N_8
REMARK    3  A    between atoms: C_11  and  N_12
REMARK    4  A    between atoms: N_12  and  C_13
REMARK                            x       y       z     vdW  Elec       q    Type
REMARK                         _______ _______ _______ _____ _____    ______ ____
ROOT
ATOM      1  C   UNL     1      31.597  22.265  30.323  0.00  0.00    +0.000 A 
ATOM      2  C   UNL     1      30.759  22.120  31.424  0.00  0.00    +0.000 A 
ATOM      3  C   UNL     1      29.384  22.320  31.266  0.00  0.00    +0.000 A 
ATOM      4  C   UNL     1      28.849  22.655  30.041  0.00  0.00    +0.000 A 
ATOM      5  C   UNL     1      27.559  22.902  29.622  0.00  0.00    +0.000 A 
ATOM      6  C   UNL     1      27.594  23.197  28.273  0.00  0.00    +0.000 A 
ATOM      7  N   UNL     1      28.875  23.129  27.894  0.00  0.00    +0.000 NA
ATOM      8  C   UNL     1      29.671  22.800  28.943  0.00  0.00    +0.000 A 
ATOM      9  C   UNL     1      31.017  22.602  29.119  0.00  0.00    +0.000 A 
ENDROOT
BRANCH   5  10
ATOM     10  N   UNL     1      26.403  22.856  30.449  0.00  0.00    +0.000 N 
ATOM     11  O   UNL     1      25.877  23.894  30.865  0.00  0.00    +0.000 OA
ATOM     12  O   UNL     1      25.837  21.656  30.807  0.00  0.00    +0.000 OA
ENDBRANCH   5  10
BRANCH   1  14
ATOM     13  C   UNL     1      33.395  21.061  31.366  0.00  0.00    +0.000 C 
ATOM     14  O   UNL     1      32.982  22.069  30.462  0.00  0.00    +0.000 OA
ENDBRANCH   1  14
BRANCH   6  15
ATOM     15  N   UNL     1      26.439  23.508  27.490  0.00  0.00    +0.000 NA
BRANCH  15  16
ATOM     16  C   UNL     1      26.499  23.777  26.111  0.00  0.00    +0.000 A 
ATOM     17  C   UNL     1      26.122  22.862  25.161  0.00  0.00    +0.000 A 
ATOM     18  C   UNL     1      26.199  23.173  23.800  0.00  0.00    +0.000 A 
ATOM     19  C   UNL     1      26.654  24.407  23.390  0.00  0.00    +0.000 A 
ATOM     20  F   UNL     1      26.718  24.684  22.045  0.00  0.00    +0.000 F 
ATOM     21  C   UNL     1      27.032  25.328  24.342  0.00  0.00    +0.000 A 
ATOM     22  C   UNL     1      26.955  25.014  25.703  0.00  0.00    +0.000 A 
ENDBRANCH  15  16
ENDBRANCH   6  15
TORSDOF 4
ENDMDL
MODEL 2
REMARK VINA RESULT:      -6.3      3.480      5.816
REMARK  Name = 
REMARK  4 active torsions:
REMARK  status: ('A' for Active; 'I' for Inactive)
REMARK    1  A    between atoms: O_2  and  C_3
REMARK    2  A    between atoms: C_7  and  N_8
REMARK    3  A    between atoms: C_11  and  N_12
REMARK    4  A    between atoms: N_12  and  C_13
REMARK                            x       y       z     vdW  Elec       q    Type
REMARK                         _______ _______ _______ _____ _____    ______ ____
ROOT
ATOM      1  C   UNL     1      23.872  26.552  28.879  0.00  0.00    +0.000 A 
ATOM      2  C   UNL     1      24.509  26.131  30.042  0.00  0.00    +0.000 A 
ATOM      3  C   UNL     1      25.455  25.105  29.968  0.00  0.00    +0.000 A 
ATOM      4  C   UNL     1      25.766  24.507  28.766  0.00  0.00    +0.000 A 
ATOM      5  C   UNL     1      26.641  23.498  28.423  0.00  0.00    +0.000 A 
ATOM      6  C   UNL     1      26.550  23.294  27.061  0.00  0.00    +0.000 A 
ATOM      7  N   UNL     1      25.641  24.160  26.598  0.00  0.00    +0.000 NA
ATOM      8  C   UNL     1      25.141  24.917  27.607  0.00  0.00    +0.000 A 
ATOM      9  C   UNL     1      24.215  25.925  27.701  0.00  0.00    +0.000 A 
ENDROOT
BRANCH   5  10
ATOM     10  N   UNL     1      27.485  22.799  29.330  0.00  0.00    +0.000 N 
ATOM     11  O   UNL     1      28.588  23.255  29.653  0.00  0.00    +0.000 OA
ATOM     12  O   UNL     1      27.098  21.598  29.874  0.00  0.00    +0.000 OA
ENDBRANCH   5  10
BRANCH   1  14
ATOM     13  C   UNL     1      21.612  27.221  29.345  0.00  0.00    +0.000 C 
ATOM     14  O   UNL     1      22.917  27.583  28.931  0.00  0.00    +0.000 OA
ENDBRANCH   1  14
BRANCH   6  15
ATOM     15  N   UNL     1      27.313  22.320  26.344  0.00  0.00    +0.000 NA
BRANCH  15  16
ATOM     16  C   UNL     1      28.592  22.585  25.820  0.00  0.00    +0.000 A 
ATOM     17  C   UNL     1      29.742  22.396  26.543  0.00  0.00    +0.000 A 
ATOM     18  C   UNL     1      30.992  22.672  25.981  0.00  0.00    +0.000 A 
ATOM     19  C   UNL     1      31.090  23.139  24.688  0.00  0.00    +0.000 A 
ATOM     20  F   UNL     1      32.332  23.401  24.163  0.00  0.00    +0.000 F 
ATOM     21  C   UNL     1      29.935  23.329  23.960  0.00  0.00    +0.000 A 
ATOM     22  C   UNL     1      28.686  23.052  24.525  0.00  0.00    +0.000 A 
ENDBRANCH  15  16
ENDBRANCH   6  15
TORSDOF 4
ENDMDL
MODEL 3
REMARK VINA RESULT:      -6.2      5.696      8.712
REMARK  Name = 
REMARK  4 active torsions:
REMARK  status: ('A' for Active; 'I' for Inactive)
REMARK    1  A    between atoms: O_2  and  C_3
REMARK    2  A    between atoms: C_7  and  N_8
REMARK    3  A    between atoms: C_11  and  N_12
REMARK    4  A    between atoms: N_12  and  C_13
REMARK                            x       y       z     vdW  Elec       q    Type
REMARK                         _______ _______ _______ _____ _____    ______ ____
ROOT
ATOM      1  C   UNL     1      29.698  27.798  19.465  0.00  0.00    +0.000 A 
ATOM      2  C   UNL     1      29.000  28.477  20.460  0.00  0.00    +0.000 A 
ATOM      3  C   UNL     1      28.524  27.765  21.566  0.00  0.00    +0.000 A 
ATOM      4  C   UNL     1      28.736  26.409  21.686  0.00  0.00    +0.000 A 
ATOM      5  C   UNL     1      28.382  25.490  22.651  0.00  0.00    +0.000 A 
ATOM      6  C   UNL     1      28.855  24.253  22.262  0.00  0.00    +0.000 A 
ATOM      7  N   UNL     1      29.478  24.426  21.090  0.00  0.00    +0.000 NA
ATOM      8  C   UNL     1      29.427  25.727  20.706  0.00  0.00    +0.000 A 
ATOM      9  C   UNL     1      29.884  26.443  19.629  0.00  0.00    +0.000 A 
ENDROOT
BRANCH   5  10
ATOM     10  N   UNL     1      27.655  25.784  23.838  0.00  0.00    +0.000 N 
ATOM     11  O   UNL     1      26.430  25.629  23.888  0.00  0.00    +0.000 OA
ATOM     12  O   UNL     1      28.295  26.247  24.962  0.00  0.00    +0.000 OA
ENDBRANCH   5  10
BRANCH   1  14
ATOM     13  C   UNL     1      29.660  29.792  18.126  0.00  0.00    +0.000 C 
ATOM     14  O   UNL     1      30.184  28.495  18.346  0.00  0.00    +0.000 OA
ENDBRANCH   1  14
BRANCH   6  15
ATOM     15  N   UNL     1      28.677  23.052  23.017  0.00  0.00    +0.000 NA
BRANCH  15  16
ATOM     16  C   UNL     1      29.205  22.876  24.309  0.00  0.00    +0.000 A 
ATOM     17  C   UNL     1      28.415  22.639  25.406  0.00  0.00    +0.000 A 
ATOM     18  C   UNL     1      28.984  22.470  26.672  0.00  0.00    +0.000 A 
ATOM     19  C   UNL     1      30.350  22.537  26.839  0.00  0.00    +0.000 A 
ATOM     20  F   UNL     1      30.880  22.365  28.095  0.00  0.00    +0.000 F 
ATOM     21  C   UNL     1      31.145  22.774  25.739  0.00  0.00    +0.000 A 
ATOM     22  C   UNL     1      30.573  22.943  24.473  0.00  0.00    +0.000 A 
ENDBRANCH  15  16
ENDBRANCH   6  15
TORSDOF 4
ENDMDL
MODEL 4
REMARK VINA RESULT:      -6.1      3.458      5.466
REMARK  Name = 
REMARK  4 active torsions:
REMARK  status: ('A' for Active; 'I' for Inactive)
REMARK    1  A    between atoms: O_2  and  C_3
REMARK    2  A    between atoms: C_7  and  N_8
REMARK    3  A    between atoms: C_11  and  N_12
REMARK    4  A    between atoms: N_12  and  C_13
REMARK                            x       y       z     vdW  Elec       q    Type
REMARK                         _______ _______ _______ _____ _____    ______ ____
ROOT
ATOM      1  C   UNL     1      24.034  26.400  29.360  0.00  0.00    +0.000 A 
ATOM      2  C   UNL     1      24.868  25.811  30.305  0.00  0.00    +0.000 A 
ATOM      3  C   UNL     1      25.763  24.816  29.899  0.00  0.00    +0.000 A 
ATOM      4  C   UNL     1      25.832  24.413  28.584  0.00  0.00    +0.000 A 
ATOM      5  C   UNL     1      26.606  23.476  27.934  0.00  0.00    +0.000 A 
ATOM      6  C   UNL     1      26.259  23.482  26.598  0.00  0.00    +0.000 A 
ATOM      7  N   UNL     1      25.297  24.401  26.451  0.00  0.00    +0.000 NA
ATOM      8  C   UNL     1      25.010  24.990  27.639  0.00  0.00    +0.000 A 
ATOM      9  C   UNL     1      24.138  25.964  28.057  0.00  0.00    +0.000 A 
ENDROOT
BRANCH   5  10
ATOM     10  N   UNL     1      27.590  22.653  28.549  0.00  0.00    +0.000 N 
ATOM     11  O   UNL     1      28.791  22.793  28.287  0.00  0.00    +0.000 OA
ATOM     12  O   UNL     1      27.235  21.680  29.451  0.00  0.00    +0.000 OA
ENDBRANCH   5  10
BRANCH   1  14
ATOM     13  C   UNL     1      21.774  27.013  29.897  0.00  0.00    +0.000 C 
ATOM     14  O   UNL     1      23.127  27.402  29.747  0.00  0.00    +0.000 OA
ENDBRANCH   1  14
BRANCH   6  15
ATOM     15  N   UNL     1      26.854  22.637  25.610  0.00  0.00    +0.000 NA
BRANCH  15  16
ATOM     16  C   UNL     1      27.586  23.135  24.517  0.00  0.00    +0.000 A 
ATOM     17  C   UNL     1      28.945  23.317  24.557  0.00  0.00    +0.000 A 
ATOM     18  C   UNL     1      29.632  23.816  23.446  0.00  0.00    +0.000 A 
ATOM     19  C   UNL     1      28.953  24.132  22.289  0.00  0.00    +0.000 A 
ATOM     20  F   UNL     1      29.655  24.620  21.213  0.00  0.00    +0.000 F 
ATOM     21  C   UNL     1      27.587  23.950  22.246  0.00  0.00    +0.000 A 
ATOM     22  C   UNL     1      26.903  23.451  23.360  0.00  0.00    +0.000 A 
ENDBRANCH  15  16
ENDBRANCH   6  15
TORSDOF 4
ENDMDL
MODEL 5
REMARK VINA RESULT:      -6.1     25.207     27.505
REMARK  Name = 
REMARK  4 active torsions:
REMARK  status: ('A' for Active; 'I' for Inactive)
REMARK    1  A    between atoms: O_2  and  C_3
REMARK    2  A    between atoms: C_7  and  N_8
REMARK    3  A    between atoms: C_11  and  N_12
REMARK    4  A    between atoms: N_12  and  C_13
REMARK                            x       y       z     vdW  Elec       q    Type
REMARK                         _______ _______ _______ _____ _____    ______ ____
ROOT
ATOM      1  C   UNL     1      33.654   1.041  34.648  0.00  0.00    +0.000 A 
ATOM      2  C   UNL     1      33.655   0.613  35.972  0.00  0.00    +0.000 A 
ATOM      3  C   UNL     1      33.644  -0.759  36.245  0.00  0.00    +0.000 A 
ATOM      4  C   UNL     1      33.632  -1.688  35.228  0.00  0.00    +0.000 A 
ATOM      5  C   UNL     1      33.620  -3.067  35.223  0.00  0.00    +0.000 A 
ATOM      6  C   UNL     1      33.612  -3.492  33.910  0.00  0.00    +0.000 A 
ATOM      7  N   UNL     1      33.618  -2.394  33.145  0.00  0.00    +0.000 NA
ATOM      8  C   UNL     1      33.631  -1.275  33.913  0.00  0.00    +0.000 A 
ATOM      9  C   UNL     1      33.641   0.075  33.665  0.00  0.00    +0.000 A 
ENDROOT
BRANCH   5  10
ATOM     10  N   UNL     1      33.617  -3.893  36.381  0.00  0.00    +0.000 N 
ATOM     11  O   UNL     1      34.672  -4.191  36.952  0.00  0.00    +0.000 OA
ATOM     12  O   UNL     1      32.442  -4.383  36.897  0.00  0.00    +0.000 OA
ENDBRANCH   5  10
BRANCH   1  14
ATOM     13  C   UNL     1      33.751   2.771  32.984  0.00  0.00    +0.000 C 
ATOM     14  O   UNL     1      33.665   2.415  34.352  0.00  0.00    +0.000 OA
ENDBRANCH   1  14
BRANCH   6  15
ATOM     15  N   UNL     1      33.598  -4.866  33.512  0.00  0.00    +0.000 NA
BRANCH  15  16
ATOM     16  C   UNL     1      33.829  -5.281  32.188  0.00  0.00    +0.000 A 
ATOM     17  C   UNL     1      32.902  -5.120  31.189  0.00  0.00    +0.000 A 
ATOM     18  C   UNL     1      33.175  -5.548  29.887  0.00  0.00    +0.000 A 
ATOM     19  C   UNL     1      34.382  -6.140  29.584  0.00  0.00    +0.000 A 
ATOM     20  F   UNL     1      34.621  -6.551  28.294  0.00  0.00    +0.000 F 
ATOM     21  C   UNL     1      35.314  -6.304  30.586  0.00  0.00    +0.000 A 
ATOM     22  C   UNL     1      35.038  -5.874  31.888  0.00  0.00    +0.000 A 
ENDBRANCH  15  16
ENDBRANCH   6  15
TORSDOF 4
ENDMDL
MODEL 6
REMARK VINA RESULT:      -6.1     15.537     17.128
REMARK  Name = 
REMARK  4 active torsions:
REMARK  status: ('A' for Active; 'I' for Inactive)
REMARK    1  A    between atoms: O_2  and  C_3
REMARK    2  A    between atoms: C_7  and  N_8
REMARK    3  A    between atoms: C_11  and  N_12
REMARK    4  A    between atoms: N_12  and  C_13
REMARK                            x       y       z     vdW  Elec       q    Type
REMARK                         _______ _______ _______ _____ _____    ______ ____
ROOT
ATOM      1  C   UNL     1      21.695  14.922  39.017  0.00  0.00    +0.000 A 
ATOM      2  C   UNL     1      22.540  13.816  39.013  0.00  0.00    +0.000 A 
ATOM      3  C   UNL     1      22.029  12.570  38.637  0.00  0.00    +0.000 A 
ATOM      4  C   UNL     1      20.709  12.421  38.271  0.00  0.00    +0.000 A 
ATOM      5  C   UNL     1      19.970  11.330  37.867  0.00  0.00    +0.000 A 
ATOM      6  C   UNL     1      18.678  11.752  37.622  0.00  0.00    +0.000 A 
ATOM      7  N   UNL     1      18.645  13.066  37.874  0.00  0.00    +0.000 NA
ATOM      8  C   UNL     1      19.864  13.510  38.272  0.00  0.00    +0.000 A 
ATOM      9  C   UNL     1      20.383  14.724  38.645  0.00  0.00    +0.000 A 
ENDROOT
BRANCH   5  10
ATOM     10  N   UNL     1      20.467  10.004  37.731  0.00  0.00    +0.000 N 
ATOM     11  O   UNL     1      20.396   9.198  38.667  0.00  0.00    +0.000 OA
ATOM     12  O   UNL     1      21.040   9.581  36.556  0.00  0.00    +0.000 OA
ENDBRANCH   5  10
BRANCH   1  14
ATOM     13  C   UNL     1      21.251  17.243  39.448  0.00  0.00    +0.000 C 
ATOM     14  O   UNL     1      22.188  16.184  39.392  0.00  0.00    +0.000 OA
ENDBRANCH   1  14
BRANCH   6  15
ATOM     15  N   UNL     1      17.623  10.892  37.184  0.00  0.00    +0.000 NA
BRANCH  15  16
ATOM     16  C   UNL     1      17.087  10.940  35.884  0.00  0.00    +0.000 A 
ATOM     17  C   UNL     1      15.998  11.710  35.561  0.00  0.00    +0.000 A 
ATOM     18  C   UNL     1      15.499  11.727  34.255  0.00  0.00    +0.000 A 
ATOM     19  C   UNL     1      16.094  10.969  33.270  0.00  0.00    +0.000 A 
ATOM     20  F   UNL     1      15.581  11.006  31.995  0.00  0.00    +0.000 F 
ATOM     21  C   UNL     1      17.187  10.195  33.593  0.00  0.00    +0.000 A 
ATOM     22  C   UNL     1      17.685  10.180  34.900  0.00  0.00    +0.000 A 
ENDBRANCH  15  16
ENDBRANCH   6  15
TORSDOF 4
ENDMDL
MODEL 7
REMARK VINA RESULT:      -6.0      3.815      5.556
REMARK  Name = 
REMARK  4 active torsions:
REMARK  status: ('A' for Active; 'I' for Inactive)
REMARK    1  A    between atoms: O_2  and  C_3
REMARK    2  A    between atoms: C_7  and  N_8
REMARK    3  A    between atoms: C_11  and  N_12
REMARK    4  A    between atoms: N_12  and  C_13
REMARK                            x       y       z     vdW  Elec       q    Type
REMARK                         _______ _______ _______ _____ _____    ______ ____
ROOT
ATOM      1  C   UNL     1      25.254  25.575  31.103  0.00  0.00    +0.000 A 
ATOM      2  C   UNL     1      24.813  26.528  30.189  0.00  0.00    +0.000 A 
ATOM      3  C   UNL     1      25.014  26.307  28.823  0.00  0.00    +0.000 A 
ATOM      4  C   UNL     1      25.637  25.164  28.370  0.00  0.00    +0.000 A 
ATOM      5  C   UNL     1      25.952  24.711  27.106  0.00  0.00    +0.000 A 
ATOM      6  C   UNL     1      26.581  23.489  27.232  0.00  0.00    +0.000 A 
ATOM      7  N   UNL     1      26.643  23.216  28.540  0.00  0.00    +0.000 NA
ATOM      8  C   UNL     1      26.077  24.214  29.266  0.00  0.00    +0.000 A 
ATOM      9  C   UNL     1      25.872  24.450  30.602  0.00  0.00    +0.000 A 
ENDROOT
BRANCH   5  10
ATOM     10  N   UNL     1      25.669  25.397  25.893  0.00  0.00    +0.000 N 
ATOM     11  O   UNL     1      24.527  25.405  25.417  0.00  0.00    +0.000 OA
ATOM     12  O   UNL     1      26.656  26.071  25.215  0.00  0.00    +0.000 OA
ENDBRANCH   5  10
BRANCH   1  14
ATOM     13  C   UNL     1      24.005  26.642  32.855  0.00  0.00    +0.000 C 
ATOM     14  O   UNL     1      25.063  25.778  32.480  0.00  0.00    +0.000 OA
ENDBRANCH   1  14
BRANCH   6  15
ATOM     15  N   UNL     1      27.054  22.713  26.128  0.00  0.00    +0.000 NA
BRANCH  15  16
ATOM     16  C   UNL     1      28.383  22.766  25.669  0.00  0.00    +0.000 A 
ATOM     17  C   UNL     1      29.453  22.442  26.463  0.00  0.00    +0.000 A 
ATOM     18  C   UNL     1      30.758  22.509  25.965  0.00  0.00    +0.000 A 
ATOM     19  C   UNL     1      30.990  22.901  24.664  0.00  0.00    +0.000 A 
ATOM     20  F   UNL     1      32.283  22.956  24.203  0.00  0.00    +0.000 F 
ATOM     21  C   UNL     1      29.916  23.226  23.865  0.00  0.00    +0.000 A 
ATOM     22  C   UNL     1      28.612  23.159  24.366  0.00  0.00    +0.000 A 
ENDBRANCH  15  16
ENDBRANCH   6  15
TORSDOF 4
ENDMDL
MODEL 8
REMARK VINA RESULT:      -6.0     17.718     19.260
REMARK  Name = 
REMARK  4 active torsions:
REMARK  status: ('A' for Active; 'I' for Inactive)
REMARK    1  A    between atoms: O_2  and  C_3
REMARK    2  A    between atoms: C_7  and  N_8
REMARK    3  A    between atoms: C_11  and  N_12
REMARK    4  A    between atoms: N_12  and  C_13
REMARK                            x       y       z     vdW  Elec       q    Type
REMARK                         _______ _______ _______ _____ _____    ______ ____
ROOT
ATOM      1  C   UNL     1      17.911   9.398  41.444  0.00  0.00    +0.000 A 
ATOM      2  C   UNL     1      19.270   9.696  41.425  0.00  0.00    +0.000 A 
ATOM      3  C   UNL     1      19.903   9.916  40.197  0.00  0.00    +0.000 A 
ATOM      4  C   UNL     1      19.204   9.844  39.012  0.00  0.00    +0.000 A 
ATOM      5  C   UNL     1      19.577  10.013  37.696  0.00  0.00    +0.000 A 
ATOM      6  C   UNL     1      18.463   9.824  36.904  0.00  0.00    +0.000 A 
ATOM      7  N   UNL     1      17.444   9.546  37.727  0.00  0.00    +0.000 NA
ATOM      8  C   UNL     1      17.857   9.550  39.020  0.00  0.00    +0.000 A 
ATOM      9  C   UNL     1      17.254   9.336  40.234  0.00  0.00    +0.000 A 
ENDROOT
BRANCH   5  10
ATOM     10  N   UNL     1      20.890  10.330  37.248  0.00  0.00    +0.000 N 
ATOM     11  O   UNL     1      21.514   9.558  36.512  0.00  0.00    +0.000 OA
ATOM     12  O   UNL     1      21.501  11.503  37.621  0.00  0.00    +0.000 OA
ENDBRANCH   5  10
BRANCH   1  14
ATOM     13  C   UNL     1      16.497   7.983  42.774  0.00  0.00    +0.000 C 
ATOM     14  O   UNL     1      17.256   9.174  42.667  0.00  0.00    +0.000 OA
ENDBRANCH   1  14
BRANCH   6  15
ATOM     15  N   UNL     1      18.467   9.920  35.477  0.00  0.00    +0.000 NA
BRANCH  15  16
ATOM     16  C   UNL     1      17.440  10.549  34.750  0.00  0.00    +0.000 A 
ATOM     17  C   UNL     1      16.561  11.433  35.323  0.00  0.00    +0.000 A 
ATOM     18  C   UNL     1      15.555  12.034  34.561  0.00  0.00    +0.000 A 
ATOM     19  C   UNL     1      15.430  11.749  33.218  0.00  0.00    +0.000 A 
ATOM     20  F   UNL     1      14.432  12.357  32.495  0.00  0.00    +0.000 F 
ATOM     21  C   UNL     1      16.312  10.862  32.641  0.00  0.00    +0.000 A 
ATOM     22  C   UNL     1      17.318  10.262  33.406  0.00  0.00    +0.000 A 
ENDBRANCH  15  16
ENDBRANCH   6  15
TORSDOF 4
ENDMDL
MODEL 9
REMARK VINA RESULT:      -5.8     18.719     20.582
REMARK  Name = 
REMARK  4 active torsions:
REMARK  status: ('A' for Active; 'I' for Inactive)
REMARK    1  A    between atoms: O_2  and  C_3
REMARK    2  A    between atoms: C_7  and  N_8
REMARK    3  A    between atoms: C_11  and  N_12
REMARK    4  A    between atoms: N_12  and  C_13
REMARK                            x       y       z     vdW  Elec       q    Type
REMARK                         _______ _______ _______ _____ _____    ______ ____
ROOT
ATOM      1  C   UNL     1      23.251   9.708  37.915  0.00  0.00    +0.000 A 
ATOM      2  C   UNL     1      22.736   9.837  36.629  0.00  0.00    +0.000 A 
ATOM      3  C   UNL     1      21.349   9.861  36.449  0.00  0.00    +0.000 A 
ATOM      4  C   UNL     1      20.489   9.760  37.521  0.00  0.00    +0.000 A 
ATOM      5  C   UNL     1      19.114   9.758  37.618  0.00  0.00    +0.000 A 
ATOM      6  C   UNL     1      18.778   9.629  38.951  0.00  0.00    +0.000 A 
ATOM      7  N   UNL     1      19.924   9.555  39.636  0.00  0.00    +0.000 NA
ATOM      8  C   UNL     1      20.990   9.633  38.799  0.00  0.00    +0.000 A 
ATOM      9  C   UNL     1      22.353   9.610  38.955  0.00  0.00    +0.000 A 
ENDROOT
BRANCH   5  10
ATOM     10  N   UNL     1      18.213   9.870  36.524  0.00  0.00    +0.000 N 
ATOM     11  O   UNL     1      17.680  10.951  36.246  0.00  0.00    +0.000 OA
ATOM     12  O   UNL     1      17.909   8.780  35.744  0.00  0.00    +0.000 OA
ENDBRANCH   5  10
BRANCH   1  14
ATOM     13  C   UNL     1      25.454   9.973  36.994  0.00  0.00    +0.000 C 
ATOM     14  O   UNL     1      24.642   9.681  38.117  0.00  0.00    +0.000 OA
ENDBRANCH   1  14
BRANCH   6  15
ATOM     15  N   UNL     1      17.433   9.588  39.438  0.00  0.00    +0.000 NA
BRANCH  15  16
ATOM     16  C   UNL     1      17.065   8.903  40.610  0.00  0.00    +0.000 A 
ATOM     17  C   UNL     1      17.129   7.538  40.721  0.00  0.00    +0.000 A 
ATOM     18  C   UNL     1      16.752   6.900  41.907  0.00  0.00    +0.000 A 
ATOM     19  C   UNL     1      16.310   7.634  42.986  0.00  0.00    +0.000 A 
ATOM     20  F   UNL     1      15.947   6.979  44.138  0.00  0.00    +0.000 F 
ATOM     21  C   UNL     1      16.245   9.006  42.876  0.00  0.00    +0.000 A 
ATOM     22  C   UNL     1      16.623   9.642  41.689  0.00  0.00    +0.000 A 
ENDBRANCH  15  16
ENDBRANCH   6  15
TORSDOF 4
ENDMDL
MODEL 10
REMARK VINA RESULT:      -5.7      3.420      5.509
REMARK  Name = 
REMARK  4 active torsions:
REMARK  status: ('A' for Active; 'I' for Inactive)
REMARK    1  A    between atoms: O_2  and  C_3
REMARK    2  A    between atoms: C_7  and  N_8
REMARK    3  A    between atoms: C_11  and  N_12
REMARK    4  A    between atoms: N_12  and  C_13
REMARK                            x       y       z     vdW  Elec       q    Type
REMARK                         _______ _______ _______ _____ _____    ______ ____
ROOT
ATOM      1  C   UNL     1      24.789  27.321  30.260  0.00  0.00    +0.000 A 
ATOM      2  C   UNL     1      25.128  26.519  31.345  0.00  0.00    +0.000 A 
ATOM      3  C   UNL     1      25.669  25.251  31.113  0.00  0.00    +0.000 A 
ATOM      4  C   UNL     1      25.872  24.786  29.833  0.00  0.00    +0.000 A 
ATOM      5  C   UNL     1      26.378  23.603  29.338  0.00  0.00    +0.000 A 
ATOM      6  C   UNL     1      26.355  23.668  27.959  0.00  0.00    +0.000 A 
ATOM      7  N   UNL     1      25.846  24.862  27.635  0.00  0.00    +0.000 NA
ATOM      8  C   UNL     1      25.540  25.572  28.750  0.00  0.00    +0.000 A 
ATOM      9  C   UNL     1      25.009  26.813  28.998  0.00  0.00    +0.000 A 
ENDROOT
BRANCH   5  10
ATOM     10  N   UNL     1      26.840  22.513  30.127  0.00  0.00    +0.000 N 
ATOM     11  O   UNL     1      26.046  21.719  30.644  0.00  0.00    +0.000 OA
ATOM     12  O   UNL     1      28.184  22.311  30.335  0.00  0.00    +0.000 OA
ENDBRANCH   5  10
BRANCH   1  14
ATOM     13  C   UNL     1      23.277  29.042  29.536  0.00  0.00    +0.000 C 
ATOM     14  O   UNL     1      24.243  28.599  30.471  0.00  0.00    +0.000 OA
ENDBRANCH   1  14
BRANCH   6  15
ATOM     15  N   UNL     1      26.805  22.617  27.099  0.00  0.00    +0.000 NA
BRANCH  15  16
ATOM     16  C   UNL     1      28.033  22.662  26.415  0.00  0.00    +0.000 A 
ATOM     17  C   UNL     1      28.135  23.048  25.102  0.00  0.00    +0.000 A 
ATOM     18  C   UNL     1      29.378  23.077  24.462  0.00  0.00    +0.000 A 
ATOM     19  C   UNL     1      30.523  22.720  25.140  0.00  0.00    +0.000 A 
ATOM     20  F   UNL     1      31.729  22.760  24.484  0.00  0.00    +0.000 F 
ATOM     21  C   UNL     1      30.422  22.333  26.459  0.00  0.00    +0.000 A 
ATOM     22  C   UNL     1      29.178  22.304  27.097  0.00  0.00    +0.000 A 
ENDBRANCH  15  16
ENDBRANCH   6  15
TORSDOF 4
ENDMDL
