MODEL 1
REMARK VINA RESULT:      -6.7      0.000      0.000
REMARK  Name = 
REMARK  1 active torsions:
REMARK  status: ('A' for Active; 'I' for Inactive)
REMARK    1  A    between atoms: N_6  and  C_7
REMARK                            x       y       z     vdW  Elec       q    Type
REMARK                         _______ _______ _______ _____ _____    ______ ____
ROOT
ATOM      1  C   UNL     1      30.126  21.959  26.959  0.00  0.00    +0.000 C 
ATOM      2  C   UNL     1      28.881  22.683  27.308  0.00  0.00    +0.000 A 
ATOM      3  C   UNL     1      28.277  22.633  28.546  0.00  0.00    +0.000 A 
ATOM      4  C   UNL     1      27.170  23.424  28.464  0.00  0.00    +0.000 A 
ATOM      5  C   UNL     1      27.145  23.928  27.171  0.00  0.00    +0.000 A 
ATOM      6  N   UNL     1      28.186  23.478  26.469  0.00  0.00    +0.000 N 
ATOM      7  C   UNL     1      26.044  24.823  26.806  0.00  0.00    +0.000 C 
ATOM      8  C   UNL     1      25.619  25.685  27.953  0.00  0.00    +0.000 C 
ATOM      9  C   UNL     1      26.641  26.748  28.282  0.00  0.00    +0.000 C 
ATOM     10  C   UNL     1      24.354  26.424  27.514  0.00  0.00    +0.000 C 
ATOM     11  C   UNL     1      25.288  24.939  29.200  0.00  0.00    +0.000 C 
ATOM     12  C   UNL     1      26.143  23.765  29.441  0.00  0.00    +0.000 C 
ATOM     13  O   UNL     1      25.945  23.101  30.486  0.00  0.00    +0.000 OA
ENDROOT
BRANCH   6  14
ATOM     14  C   UNL     1      28.531  23.754  25.104  0.00  0.00    +0.000 A 
ATOM     15  C   UNL     1      29.506  24.667  24.760  0.00  0.00    +0.000 A 
ATOM     16  C   UNL     1      29.857  24.953  23.455  0.00  0.00    +0.000 A 
ATOM     17  C   UNL     1      29.199  24.291  22.437  0.00  0.00    +0.000 A 
ATOM     18  N   UNL     1      29.575  24.599  21.094  0.00  0.00    +0.000 NA
ATOM     19  C   UNL     1      28.214  23.368  22.728  0.00  0.00    +0.000 A 
ATOM     20  C   UNL     1      27.902  23.120  24.052  0.00  0.00    +0.000 A 
ENDBRANCH   6  14
TORSDOF 1
ENDMDL
MODEL 2
REMARK VINA RESULT:      -6.5      2.914      5.403
REMARK  Name = 
REMARK  1 active torsions:
REMARK  status: ('A' for Active; 'I' for Inactive)
REMARK    1  A    between atoms: N_6  and  C_7
REMARK                            x       y       z     vdW  Elec       q    Type
REMARK                         _______ _______ _______ _____ _____    ______ ____
ROOT
ATOM      1  C   UNL     1      26.916  22.780  27.793  0.00  0.00    +0.000 C 
ATOM      2  C   UNL     1      27.159  23.038  26.355  0.00  0.00    +0.000 A 
ATOM      3  C   UNL     1      26.190  22.951  25.378  0.00  0.00    +0.000 A 
ATOM      4  C   UNL     1      26.804  23.259  24.201  0.00  0.00    +0.000 A 
ATOM      5  C   UNL     1      28.131  23.523  24.510  0.00  0.00    +0.000 A 
ATOM      6  N   UNL     1      28.345  23.389  25.820  0.00  0.00    +0.000 N 
ATOM      7  C   UNL     1      29.031  23.886  23.413  0.00  0.00    +0.000 C 
ATOM      8  C   UNL     1      28.335  24.690  22.360  0.00  0.00    +0.000 C 
ATOM      9  C   UNL     1      28.011  26.090  22.826  0.00  0.00    +0.000 C 
ATOM     10  C   UNL     1      29.310  24.838  21.191  0.00  0.00    +0.000 C 
ATOM     11  C   UNL     1      27.092  24.066  21.825  0.00  0.00    +0.000 C 
ATOM     12  C   UNL     1      26.305  23.337  22.834  0.00  0.00    +0.000 C 
ATOM     13  O   UNL     1      25.228  22.808  22.466  0.00  0.00    +0.000 OA
ENDROOT
BRANCH   6  14
ATOM     14  C   UNL     1      29.569  23.569  26.548  0.00  0.00    +0.000 A 
ATOM     15  C   UNL     1      30.353  22.507  26.947  0.00  0.00    +0.000 A 
ATOM     16  C   UNL     1      31.534  22.651  27.649  0.00  0.00    +0.000 A 
ATOM     17  C   UNL     1      31.956  23.926  27.970  0.00  0.00    +0.000 A 
ATOM     18  N   UNL     1      33.180  24.056  28.696  0.00  0.00    +0.000 NA
ATOM     19  C   UNL     1      31.207  25.024  27.595  0.00  0.00    +0.000 A 
ATOM     20  C   UNL     1      30.032  24.822  26.894  0.00  0.00    +0.000 A 
ENDBRANCH   6  14
TORSDOF 1
ENDMDL
MODEL 3
REMARK VINA RESULT:      -6.3     15.008     18.449
REMARK  Name = 
REMARK  1 active torsions:
REMARK  status: ('A' for Active; 'I' for Inactive)
REMARK    1  A    between atoms: N_6  and  C_7
REMARK                            x       y       z     vdW  Elec       q    Type
REMARK                         _______ _______ _______ _____ _____    ______ ____
ROOT
ATOM      1  C   UNL     1      32.628  20.433  12.163  0.00  0.00    +0.000 C 
ATOM      2  C   UNL     1      32.462  20.644  10.706  0.00  0.00    +0.000 A 
ATOM      3  C   UNL     1      33.329  20.161   9.750  0.00  0.00    +0.000 A 
ATOM      4  C   UNL     1      32.833  20.563   8.545  0.00  0.00    +0.000 A 
ATOM      5  C   UNL     1      31.676  21.279   8.819  0.00  0.00    +0.000 A 
ATOM      6  N   UNL     1      31.451  21.327  10.133  0.00  0.00    +0.000 N 
ATOM      7  C   UNL     1      30.930  21.834   7.686  0.00  0.00    +0.000 C 
ATOM      8  C   UNL     1      30.993  20.944   6.484  0.00  0.00    +0.000 C 
ATOM      9  C   UNL     1      30.181  19.682   6.661  0.00  0.00    +0.000 C 
ATOM     10  C   UNL     1      30.353  21.711   5.325  0.00  0.00    +0.000 C 
ATOM     11  C   UNL     1      32.372  20.570   6.062  0.00  0.00    +0.000 C 
ATOM     12  C   UNL     1      33.306  20.360   7.181  0.00  0.00    +0.000 C 
ATOM     13  O   UNL     1      34.480  20.013   6.907  0.00  0.00    +0.000 OA
ENDROOT
BRANCH   6  14
ATOM     14  C   UNL     1      30.371  21.963  10.831  0.00  0.00    +0.000 A 
ATOM     15  C   UNL     1      29.062  21.550  10.700  0.00  0.00    +0.000 A 
ATOM     16  C   UNL     1      28.003  22.144  11.360  0.00  0.00    +0.000 A 
ATOM     17  C   UNL     1      28.266  23.209  12.198  0.00  0.00    +0.000 A 
ATOM     18  N   UNL     1      27.161  23.811  12.872  0.00  0.00    +0.000 NA
ATOM     19  C   UNL     1      29.561  23.663  12.364  0.00  0.00    +0.000 A 
ATOM     20  C   UNL     1      30.582  23.031  11.679  0.00  0.00    +0.000 A 
ENDBRANCH   6  14
TORSDOF 1
ENDMDL
MODEL 4
REMARK VINA RESULT:      -6.1      2.730      6.295
REMARK  Name = 
REMARK  1 active torsions:
REMARK  status: ('A' for Active; 'I' for Inactive)
REMARK    1  A    between atoms: N_6  and  C_7
REMARK                            x       y       z     vdW  Elec       q    Type
REMARK                         _______ _______ _______ _____ _____    ______ ____
ROOT
ATOM      1  C   UNL     1      24.274  25.933  26.110  0.00  0.00    +0.000 C 
ATOM      2  C   UNL     1      25.424  25.149  25.600  0.00  0.00    +0.000 A 
ATOM      3  C   UNL     1      25.657  24.897  24.265  0.00  0.00    +0.000 A 
ATOM      4  C   UNL     1      26.799  24.154  24.210  0.00  0.00    +0.000 A 
ATOM      5  C   UNL     1      27.218  23.983  25.523  0.00  0.00    +0.000 A 
ATOM      6  N   UNL     1      26.381  24.590  26.366  0.00  0.00    +0.000 N 
ATOM      7  C   UNL     1      28.440  23.211  25.756  0.00  0.00    +0.000 C 
ATOM      8  C   UNL     1      29.449  23.416  24.670  0.00  0.00    +0.000 C 
ATOM      9  C   UNL     1      30.069  24.793  24.715  0.00  0.00    +0.000 C 
ATOM     10  C   UNL     1      30.585  22.422  24.919  0.00  0.00    +0.000 C 
ATOM     11  C   UNL     1      28.936  23.169  23.293  0.00  0.00    +0.000 C 
ATOM     12  C   UNL     1      27.540  23.590  23.088  0.00  0.00    +0.000 C 
ATOM     13  O   UNL     1      27.045  23.441  21.946  0.00  0.00    +0.000 OA
ENDROOT
BRANCH   6  14
ATOM     14  C   UNL     1      26.449  24.655  27.798  0.00  0.00    +0.000 A 
ATOM     15  C   UNL     1      26.951  25.754  28.464  0.00  0.00    +0.000 A 
ATOM     16  C   UNL     1      27.028  25.844  29.840  0.00  0.00    +0.000 A 
ATOM     17  C   UNL     1      26.579  24.777  30.594  0.00  0.00    +0.000 A 
ATOM     18  N   UNL     1      26.666  24.887  32.016  0.00  0.00    +0.000 NA
ATOM     19  C   UNL     1      26.067  23.653  29.976  0.00  0.00    +0.000 A 
ATOM     20  C   UNL     1      26.014  23.616  28.595  0.00  0.00    +0.000 A 
ENDBRANCH   6  14
TORSDOF 1
ENDMDL
MODEL 5
REMARK VINA RESULT:      -6.0     21.984     24.632
REMARK  Name = 
REMARK  1 active torsions:
REMARK  status: ('A' for Active; 'I' for Inactive)
REMARK    1  A    between atoms: N_6  and  C_7
REMARK                            x       y       z     vdW  Elec       q    Type
REMARK                         _______ _______ _______ _____ _____    ______ ____
ROOT
ATOM      1  C   UNL     1      33.566   3.183  32.736  0.00  0.00    +0.000 C 
ATOM      2  C   UNL     1      33.627   2.483  34.041  0.00  0.00    +0.000 A 
ATOM      3  C   UNL     1      33.285   1.161  34.226  0.00  0.00    +0.000 A 
ATOM      4  C   UNL     1      33.476   0.898  35.551  0.00  0.00    +0.000 A 
ATOM      5  C   UNL     1      33.930   2.080  36.121  0.00  0.00    +0.000 A 
ATOM      6  N   UNL     1      34.021   3.042  35.202  0.00  0.00    +0.000 N 
ATOM      7  C   UNL     1      34.219   2.079  37.558  0.00  0.00    +0.000 C 
ATOM      8  C   UNL     1      34.770   0.766  38.017  0.00  0.00    +0.000 C 
ATOM      9  C   UNL     1      36.180   0.533  37.529  0.00  0.00    +0.000 C 
ATOM     10  C   UNL     1      34.846   0.822  39.544  0.00  0.00    +0.000 C 
ATOM     11  C   UNL     1      33.938  -0.416  37.657  0.00  0.00    +0.000 C 
ATOM     12  C   UNL     1      33.289  -0.313  36.340  0.00  0.00    +0.000 C 
ATOM     13  O   UNL     1      32.593  -1.282  35.952  0.00  0.00    +0.000 OA
ENDROOT
BRANCH   6  14
ATOM     14  C   UNL     1      34.445   4.403  35.373  0.00  0.00    +0.000 A 
ATOM     15  C   UNL     1      33.551   5.436  35.556  0.00  0.00    +0.000 A 
ATOM     16  C   UNL     1      33.930   6.754  35.722  0.00  0.00    +0.000 A 
ATOM     17  C   UNL     1      35.277   7.057  35.705  0.00  0.00    +0.000 A 
ATOM     18  N   UNL     1      35.652   8.424  35.878  0.00  0.00    +0.000 NA
ATOM     19  C   UNL     1      36.214   6.058  35.524  0.00  0.00    +0.000 A 
ATOM     20  C   UNL     1      35.779   4.756  35.362  0.00  0.00    +0.000 A 
ENDBRANCH   6  14
TORSDOF 1
ENDMDL
MODEL 6
REMARK VINA RESULT:      -6.0     19.191     21.569
REMARK  Name = 
REMARK  1 active torsions:
REMARK  status: ('A' for Active; 'I' for Inactive)
REMARK    1  A    between atoms: N_6  and  C_7
REMARK                            x       y       z     vdW  Elec       q    Type
REMARK                         _______ _______ _______ _____ _____    ______ ____
ROOT
ATOM      1  C   UNL     1      20.192  12.356  38.520  0.00  0.00    +0.000 C 
ATOM      2  C   UNL     1      19.826  11.106  39.226  0.00  0.00    +0.000 A 
ATOM      3  C   UNL     1      20.301  10.753  40.471  0.00  0.00    +0.000 A 
ATOM      4  C   UNL     1      19.737   9.548  40.767  0.00  0.00    +0.000 A 
ATOM      5  C   UNL     1      18.936   9.214  39.684  0.00  0.00    +0.000 A 
ATOM      6  N   UNL     1      18.991  10.162  38.747  0.00  0.00    +0.000 N 
ATOM      7  C   UNL     1      18.201   7.948  39.740  0.00  0.00    +0.000 C 
ATOM      8  C   UNL     1      17.753   7.621  41.130  0.00  0.00    +0.000 C 
ATOM      9  C   UNL     1      16.635   8.523  41.599  0.00  0.00    +0.000 C 
ATOM     10  C   UNL     1      17.178   6.204  41.094  0.00  0.00    +0.000 C 
ATOM     11  C   UNL     1      18.838   7.635  42.150  0.00  0.00    +0.000 C 
ATOM     12  C   UNL     1      19.853   8.679  41.932  0.00  0.00    +0.000 C 
ATOM     13  O   UNL     1      20.785   8.773  42.766  0.00  0.00    +0.000 OA
ENDROOT
BRANCH   6  14
ATOM     14  C   UNL     1      18.319  10.207  37.480  0.00  0.00    +0.000 A 
ATOM     15  C   UNL     1      18.852   9.640  36.342  0.00  0.00    +0.000 A 
ATOM     16  C   UNL     1      18.228   9.668  35.110  0.00  0.00    +0.000 A 
ATOM     17  C   UNL     1      17.002  10.296  35.009  0.00  0.00    +0.000 A 
ATOM     18  N   UNL     1      16.371  10.316  33.728  0.00  0.00    +0.000 NA
ATOM     19  C   UNL     1      16.424  10.881  36.119  0.00  0.00    +0.000 A 
ATOM     20  C   UNL     1      17.094  10.823  37.328  0.00  0.00    +0.000 A 
ENDBRANCH   6  14
TORSDOF 1
ENDMDL
MODEL 7
REMARK VINA RESULT:      -5.9      2.075      3.782
REMARK  Name = 
REMARK  1 active torsions:
REMARK  status: ('A' for Active; 'I' for Inactive)
REMARK    1  A    between atoms: N_6  and  C_7
REMARK                            x       y       z     vdW  Elec       q    Type
REMARK                         _______ _______ _______ _____ _____    ______ ____
ROOT
ATOM      1  C   UNL     1      23.599  26.166  26.452  0.00  0.00    +0.000 C 
ATOM      2  C   UNL     1      24.542  25.692  27.492  0.00  0.00    +0.000 A 
ATOM      3  C   UNL     1      24.383  25.918  28.842  0.00  0.00    +0.000 A 
ATOM      4  C   UNL     1      25.448  25.328  29.456  0.00  0.00    +0.000 A 
ATOM      5  C   UNL     1      26.217  24.764  28.448  0.00  0.00    +0.000 A 
ATOM      6  N   UNL     1      25.665  24.985  27.254  0.00  0.00    +0.000 N 
ATOM      7  C   UNL     1      27.440  24.055  28.835  0.00  0.00    +0.000 C 
ATOM      8  C   UNL     1      27.287  23.348  30.145  0.00  0.00    +0.000 C 
ATOM      9  C   UNL     1      26.380  22.143  30.044  0.00  0.00    +0.000 C 
ATOM     10  C   UNL     1      28.668  22.818  30.532  0.00  0.00    +0.000 C 
ATOM     11  C   UNL     1      26.813  24.210  31.263  0.00  0.00    +0.000 C 
ATOM     12  C   UNL     1      25.829  25.229  30.860  0.00  0.00    +0.000 C 
ATOM     13  O   UNL     1      25.360  25.976  31.752  0.00  0.00    +0.000 OA
ENDROOT
BRANCH   6  14
ATOM     14  C   UNL     1      26.136  24.575  25.962  0.00  0.00    +0.000 A 
ATOM     15  C   UNL     1      27.053  25.313  25.243  0.00  0.00    +0.000 A 
ATOM     16  C   UNL     1      27.524  24.942  23.999  0.00  0.00    +0.000 A 
ATOM     17  C   UNL     1      27.053  23.771  23.440  0.00  0.00    +0.000 A 
ATOM     18  N   UNL     1      27.551  23.403  22.153  0.00  0.00    +0.000 NA
ATOM     19  C   UNL     1      26.133  22.995  24.119  0.00  0.00    +0.000 A 
ATOM     20  C   UNL     1      25.696  23.413  25.362  0.00  0.00    +0.000 A 
ENDBRANCH   6  14
TORSDOF 1
ENDMDL
MODEL 8
REMARK VINA RESULT:      -5.9     17.714     19.873
REMARK  Name = 
REMARK  1 active torsions:
REMARK  status: ('A' for Active; 'I' for Inactive)
REMARK    1  A    between atoms: N_6  and  C_7
REMARK                            x       y       z     vdW  Elec       q    Type
REMARK                         _______ _______ _______ _____ _____    ______ ____
ROOT
ATOM      1  C   UNL     1      17.249   9.549  39.748  0.00  0.00    +0.000 C 
ATOM      2  C   UNL     1      18.639  10.022  39.548  0.00  0.00    +0.000 A 
ATOM      3  C   UNL     1      19.582  10.099  40.550  0.00  0.00    +0.000 A 
ATOM      4  C   UNL     1      20.720  10.575  39.969  0.00  0.00    +0.000 A 
ATOM      5  C   UNL     1      20.421  10.769  38.627  0.00  0.00    +0.000 A 
ATOM      6  N   UNL     1      19.156  10.432  38.373  0.00  0.00    +0.000 N 
ATOM      7  C   UNL     1      21.482  11.283  37.757  0.00  0.00    +0.000 C 
ATOM      8  C   UNL     1      22.830  10.772  38.157  0.00  0.00    +0.000 C 
ATOM      9  C   UNL     1      23.005   9.305  37.842  0.00  0.00    +0.000 C 
ATOM     10  C   UNL     1      23.862  11.521  37.312  0.00  0.00    +0.000 C 
ATOM     11  C   UNL     1      23.180  10.998  39.587  0.00  0.00    +0.000 C 
ATOM     12  C   UNL     1      22.041  10.865  40.511  0.00  0.00    +0.000 C 
ATOM     13  O   UNL     1      22.261  11.013  41.737  0.00  0.00    +0.000 OA
ENDROOT
BRANCH   6  14
ATOM     14  C   UNL     1      18.452  10.483  37.123  0.00  0.00    +0.000 A 
ATOM     15  C   UNL     1      18.568   9.492  36.170  0.00  0.00    +0.000 A 
ATOM     16  C   UNL     1      17.903   9.515  34.960  0.00  0.00    +0.000 A 
ATOM     17  C   UNL     1      17.076  10.586  34.685  0.00  0.00    +0.000 A 
ATOM     18  N   UNL     1      16.396  10.594  33.429  0.00  0.00    +0.000 NA
ATOM     19  C   UNL     1      16.925  11.605  35.605  0.00  0.00    +0.000 A 
ATOM     20  C   UNL     1      17.615  11.531  36.801  0.00  0.00    +0.000 A 
ENDBRANCH   6  14
TORSDOF 1
ENDMDL
MODEL 9
REMARK VINA RESULT:      -5.8      2.892      6.096
REMARK  Name = 
REMARK  1 active torsions:
REMARK  status: ('A' for Active; 'I' for Inactive)
REMARK    1  A    between atoms: N_6  and  C_7
REMARK                            x       y       z     vdW  Elec       q    Type
REMARK                         _______ _______ _______ _____ _____    ______ ____
ROOT
ATOM      1  C   UNL     1      25.929  24.397  30.047  0.00  0.00    +0.000 C 
ATOM      2  C   UNL     1      26.575  23.919  28.802  0.00  0.00    +0.000 A 
ATOM      3  C   UNL     1      25.934  23.819  27.586  0.00  0.00    +0.000 A 
ATOM      4  C   UNL     1      26.859  23.346  26.704  0.00  0.00    +0.000 A 
ATOM      5  C   UNL     1      28.034  23.177  27.423  0.00  0.00    +0.000 A 
ATOM      6  N   UNL     1      27.860  23.526  28.699  0.00  0.00    +0.000 N 
ATOM      7  C   UNL     1      29.209  22.672  26.707  0.00  0.00    +0.000 C 
ATOM      8  C   UNL     1      29.260  23.168  25.296  0.00  0.00    +0.000 C 
ATOM      9  C   UNL     1      29.593  24.639  25.216  0.00  0.00    +0.000 C 
ATOM     10  C   UNL     1      30.405  22.427  24.602  0.00  0.00    +0.000 C 
ATOM     11  C   UNL     1      28.024  22.914  24.505  0.00  0.00    +0.000 C 
ATOM     12  C   UNL     1      26.779  23.038  25.281  0.00  0.00    +0.000 C 
ATOM     13  O   UNL     1      25.692  22.867  24.678  0.00  0.00    +0.000 OA
ENDROOT
BRANCH   6  14
ATOM     14  C   UNL     1      28.815  23.502  29.770  0.00  0.00    +0.000 A 
ATOM     15  C   UNL     1      29.698  24.537  29.995  0.00  0.00    +0.000 A 
ATOM     16  C   UNL     1      30.627  24.541  31.017  0.00  0.00    +0.000 A 
ATOM     17  C   UNL     1      30.678  23.449  31.862  0.00  0.00    +0.000 A 
ATOM     18  N   UNL     1      31.644  23.469  32.914  0.00  0.00    +0.000 NA
ATOM     19  C   UNL     1      29.816  22.385  31.679  0.00  0.00    +0.000 A 
ATOM     20  C   UNL     1      28.906  22.435  30.639  0.00  0.00    +0.000 A 
ENDBRANCH   6  14
TORSDOF 1
ENDMDL
MODEL 10
REMARK VINA RESULT:      -5.8     32.454     33.819
REMARK  Name = 
REMARK  1 active torsions:
REMARK  status: ('A' for Active; 'I' for Inactive)
REMARK    1  A    between atoms: N_6  and  C_7
REMARK                            x       y       z     vdW  Elec       q    Type
REMARK                         _______ _______ _______ _____ _____    ______ ____
ROOT
ATOM      1  C   UNL     1      22.847  -6.869  24.276  0.00  0.00    +0.000 C 
ATOM      2  C   UNL     1      21.592  -7.092  25.031  0.00  0.00    +0.000 A 
ATOM      3  C   UNL     1      20.674  -6.104  25.317  0.00  0.00    +0.000 A 
ATOM      4  C   UNL     1      19.671  -6.704  26.018  0.00  0.00    +0.000 A 
ATOM      5  C   UNL     1      20.021  -8.043  26.131  0.00  0.00    +0.000 A 
ATOM      6  N   UNL     1      21.189  -8.277  25.531  0.00  0.00    +0.000 N 
ATOM      7  C   UNL     1      19.104  -8.932  26.850  0.00  0.00    +0.000 C 
ATOM      8  C   UNL     1      17.673  -8.548  26.641  0.00  0.00    +0.000 C 
ATOM      9  C   UNL     1      17.194  -8.855  25.241  0.00  0.00    +0.000 C 
ATOM     10  C   UNL     1      16.834  -9.413  27.583  0.00  0.00    +0.000 C 
ATOM     11  C   UNL     1      17.361  -7.124  26.950  0.00  0.00    +0.000 C 
ATOM     12  C   UNL     1      18.435  -6.183  26.588  0.00  0.00    +0.000 C 
ATOM     13  O   UNL     1      18.236  -4.961  26.791  0.00  0.00    +0.000 OA
ENDROOT
BRANCH   6  14
ATOM     14  C   UNL     1      21.902  -9.517  25.418  0.00  0.00    +0.000 A 
ATOM     15  C   UNL     1      22.740  -9.979  26.412  0.00  0.00    +0.000 A 
ATOM     16  C   UNL     1      23.439 -11.167  26.331  0.00  0.00    +0.000 A 
ATOM     17  C   UNL     1      23.294 -11.938  25.194  0.00  0.00    +0.000 A 
ATOM     18  N   UNL     1      24.024 -13.164  25.127  0.00  0.00    +0.000 NA
ATOM     19  C   UNL     1      22.467 -11.520  24.169  0.00  0.00    +0.000 A 
ATOM     20  C   UNL     1      21.792 -10.322  24.303  0.00  0.00    +0.000 A 
ENDBRANCH   6  14
TORSDOF 1
ENDMDL
