MODEL 1
REMARK VINA RESULT:      -8.4      0.000      0.000
REMARK  Name = 
REMARK  7 active torsions:
REMARK  status: ('A' for Active; 'I' for Inactive)
REMARK    1  A    between atoms: C_2  and  C_3
REMARK    2  A    between atoms: C_6  and  N_7
REMARK    3  A    between atoms: N_7  and  C_8
REMARK    4  A    between atoms: C_9  and  S_10
REMARK    5  A    between atoms: S_10  and  C_11
REMARK    6  A    between atoms: N_20  and  C_21
REMARK    7  A    between atoms: C_21  and  C_22
REMARK                            x       y       z     vdW  Elec       q    Type
REMARK                         _______ _______ _______ _____ _____    ______ ____
ROOT
ATOM      1  C   UNL     1      37.751   3.563  14.803  0.00  0.00    +0.000 C 
ATOM      2  C   UNL     1      36.453   3.862  14.605  0.00  0.00    +0.000 C 
ATOM      3  C   UNL     1      35.727   2.602  14.647  0.00  0.00    +0.000 C 
ATOM      4  O   UNL     1      34.503   2.414  14.511  0.00  0.00    +0.000 OA
ATOM      5  N   UNL     1      36.640   1.512  14.880  0.00  0.00    +0.000 N 
ATOM      6  C   UNL     1      37.904   2.140  14.975  0.00  0.00    +0.000 C 
ATOM      7  O   UNL     1      39.008   1.561  15.177  0.00  0.00    +0.000 OA
ENDROOT
BRANCH   1   8
ATOM      8  N   UNL     1      38.818   4.502  14.839  0.00  0.00    +0.000 NA
BRANCH   8  12
ATOM      9  C   UNL     1      40.050   5.965  18.641  0.00  0.00    +0.000 A 
ATOM     10  C   UNL     1      38.964   5.123  18.509  0.00  0.00    +0.000 A 
ATOM     11  C   UNL     1      38.561   4.647  17.278  0.00  0.00    +0.000 A 
ATOM     12  C   UNL     1      39.229   4.992  16.123  0.00  0.00    +0.000 A 
ATOM     13  C   UNL     1      40.319   5.838  16.255  0.00  0.00    +0.000 A 
ATOM     14  C   UNL     1      40.723   6.315  17.486  0.00  0.00    +0.000 A 
BRANCH   9  16
ATOM     15  C   UNL     1      39.518   7.561  20.440  0.00  0.00    +0.000 C 
ATOM     16  C   UNL     1      40.476   6.474  19.976  0.00  0.00    +0.000 C 
ENDBRANCH   9  16
ENDBRANCH   8  12
ENDBRANCH   1   8
BRANCH   2  17
ATOM     17  S   UNL     1      35.880   5.524  14.355  0.00  0.00    +0.000 S 
BRANCH  17  18
ATOM     18  C   UNL     1      35.543   5.949  12.688  0.00  0.00    +0.000 A 
ATOM     19  C   UNL     1      36.209   5.530  11.580  0.00  0.00    +0.000 A 
ATOM     20  C   UNL     1      35.853   5.933  10.304  0.00  0.00    +0.000 A 
ATOM     21  C   UNL     1      34.783   6.794  10.105  0.00  0.00    +0.000 A 
ATOM     22  C   UNL     1      34.448   7.190   8.721  0.00  0.00    +0.000 C 
ATOM     23  C   UNL     1      34.107   7.219  11.220  0.00  0.00    +0.000 A 
ATOM     24  C   UNL     1      34.463   6.820  12.477  0.00  0.00    +0.000 A 
ENDBRANCH  17  18
ENDBRANCH   2  17
BRANCH   5  25
ATOM     25  C   UNL     1      36.374   0.095  14.997  0.00  0.00    +0.000 C 
BRANCH  25  26
ATOM     26  C   UNL     1      36.415  -0.287  16.431  0.00  0.00    +0.000 A 
ATOM     27  C   UNL     1      37.351  -1.211  16.830  0.00  0.00    +0.000 A 
ATOM     28  C   UNL     1      37.425  -1.597  18.151  0.00  0.00    +0.000 A 
ATOM     29  C   UNL     1      36.564  -1.059  19.083  0.00  0.00    +0.000 A 
ATOM     30  C   UNL     1      35.647  -0.145  18.659  0.00  0.00    +0.000 A 
ATOM     31  C   UNL     1      35.550   0.257  17.350  0.00  0.00    +0.000 A 
ENDBRANCH  25  26
ENDBRANCH   5  25
TORSDOF 7
ENDMDL
MODEL 2
REMARK VINA RESULT:      -8.2      3.043      7.738
REMARK  Name = 
REMARK  7 active torsions:
REMARK  status: ('A' for Active; 'I' for Inactive)
REMARK    1  A    between atoms: C_2  and  C_3
REMARK    2  A    between atoms: C_6  and  N_7
REMARK    3  A    between atoms: N_7  and  C_8
REMARK    4  A    between atoms: C_9  and  S_10
REMARK    5  A    between atoms: S_10  and  C_11
REMARK    6  A    between atoms: N_20  and  C_21
REMARK    7  A    between atoms: C_21  and  C_22
REMARK                            x       y       z     vdW  Elec       q    Type
REMARK                         _______ _______ _______ _____ _____    ______ ____
ROOT
ATOM      1  C   UNL     1      36.859   1.343  15.188  0.00  0.00    +0.000 C 
ATOM      2  C   UNL     1      37.893   1.412  14.326  0.00  0.00    +0.000 C 
ATOM      3  C   UNL     1      38.284   2.812  14.260  0.00  0.00    +0.000 C 
ATOM      4  O   UNL     1      39.197   3.324  13.585  0.00  0.00    +0.000 OA
ATOM      5  N   UNL     1      37.442   3.602  15.122  0.00  0.00    +0.000 N 
ATOM      6  C   UNL     1      36.556   2.658  15.693  0.00  0.00    +0.000 C 
ATOM      7  O   UNL     1      35.635   2.910  16.520  0.00  0.00    +0.000 OA
ENDROOT
BRANCH   1   8
ATOM      8  N   UNL     1      36.165   0.157  15.550  0.00  0.00    +0.000 NA
BRANCH   8  12
ATOM      9  C   UNL     1      37.457  -1.896  19.048  0.00  0.00    +0.000 A 
ATOM     10  C   UNL     1      38.074  -2.088  17.828  0.00  0.00    +0.000 A 
ATOM     11  C   UNL     1      37.659  -1.425  16.692  0.00  0.00    +0.000 A 
ATOM     12  C   UNL     1      36.605  -0.537  16.727  0.00  0.00    +0.000 A 
ATOM     13  C   UNL     1      35.984  -0.344  17.951  0.00  0.00    +0.000 A 
ATOM     14  C   UNL     1      36.400  -1.008  19.088  0.00  0.00    +0.000 A 
BRANCH   9  16
ATOM     15  C   UNL     1      38.822  -3.773  19.871  0.00  0.00    +0.000 C 
ATOM     16  C   UNL     1      37.915  -2.619  20.268  0.00  0.00    +0.000 C 
ENDBRANCH   9  16
ENDBRANCH   8  12
ENDBRANCH   1   8
BRANCH   2  17
ATOM     17  S   UNL     1      38.548  -0.017  13.501  0.00  0.00    +0.000 S 
BRANCH  17  18
ATOM     18  C   UNL     1      40.231  -0.368  13.848  0.00  0.00    +0.000 A 
ATOM     19  C   UNL     1      41.290   0.476  13.729  0.00  0.00    +0.000 A 
ATOM     20  C   UNL     1      42.584   0.089  14.034  0.00  0.00    +0.000 A 
ATOM     21  C   UNL     1      42.853  -1.198  14.480  0.00  0.00    +0.000 A 
ATOM     22  C   UNL     1      44.252  -1.555  14.791  0.00  0.00    +0.000 C 
ATOM     23  C   UNL     1      41.787  -2.052  14.603  0.00  0.00    +0.000 A 
ATOM     24  C   UNL     1      40.512  -1.666  14.300  0.00  0.00    +0.000 A 
ENDBRANCH  17  18
ENDBRANCH   2  17
BRANCH   5  25
ATOM     25  C   UNL     1      37.461   5.026  15.375  0.00  0.00    +0.000 C 
BRANCH  25  26
ATOM     26  C   UNL     1      38.521   5.325  16.370  0.00  0.00    +0.000 A 
ATOM     27  C   UNL     1      38.283   5.013  17.687  0.00  0.00    +0.000 A 
ATOM     28  C   UNL     1      39.238   5.274  18.645  0.00  0.00    +0.000 A 
ATOM     29  C   UNL     1      40.440   5.848  18.293  0.00  0.00    +0.000 A 
ATOM     30  C   UNL     1      40.649   6.148  16.980  0.00  0.00    +0.000 A 
ATOM     31  C   UNL     1      39.716   5.899  16.004  0.00  0.00    +0.000 A 
ENDBRANCH  25  26
ENDBRANCH   5  25
TORSDOF 7
ENDMDL
MODEL 3
REMARK VINA RESULT:      -8.1      1.008      6.576
REMARK  Name = 
REMARK  7 active torsions:
REMARK  status: ('A' for Active; 'I' for Inactive)
REMARK    1  A    between atoms: C_2  and  C_3
REMARK    2  A    between atoms: C_6  and  N_7
REMARK    3  A    between atoms: N_7  and  C_8
REMARK    4  A    between atoms: C_9  and  S_10
REMARK    5  A    between atoms: S_10  and  C_11
REMARK    6  A    between atoms: N_20  and  C_21
REMARK    7  A    between atoms: C_21  and  C_22
REMARK                            x       y       z     vdW  Elec       q    Type
REMARK                         _______ _______ _______ _____ _____    ______ ____
ROOT
ATOM      1  C   UNL     1      36.537   4.028  14.773  0.00  0.00    +0.000 C 
ATOM      2  C   UNL     1      37.841   3.728  14.936  0.00  0.00    +0.000 C 
ATOM      3  C   UNL     1      37.919   2.282  15.073  0.00  0.00    +0.000 C 
ATOM      4  O   UNL     1      38.934   1.580  15.241  0.00  0.00    +0.000 OA
ATOM      5  N   UNL     1      36.602   1.705  14.986  0.00  0.00    +0.000 N 
ATOM      6  C   UNL     1      35.752   2.820  14.798  0.00  0.00    +0.000 C 
ATOM      7  O   UNL     1      34.496   2.783  14.670  0.00  0.00    +0.000 OA
ENDROOT
BRANCH   1   8
ATOM      8  N   UNL     1      36.006   5.335  14.602  0.00  0.00    +0.000 NA
BRANCH   8  12
ATOM      9  C   UNL     1      35.089   6.601  10.643  0.00  0.00    +0.000 A 
ATOM     10  C   UNL     1      36.206   5.837  10.916  0.00  0.00    +0.000 A 
ATOM     11  C   UNL     1      36.507   5.424  12.198  0.00  0.00    +0.000 A 
ATOM     12  C   UNL     1      35.701   5.759  13.265  0.00  0.00    +0.000 A 
ATOM     13  C   UNL     1      34.580   6.526  12.992  0.00  0.00    +0.000 A 
ATOM     14  C   UNL     1      34.278   6.939  11.709  0.00  0.00    +0.000 A 
BRANCH   9  16
ATOM     15  C   UNL     1      35.032   5.898   8.283  0.00  0.00    +0.000 C 
ATOM     16  C   UNL     1      34.774   7.040   9.254  0.00  0.00    +0.000 C 
ENDBRANCH   9  16
ENDBRANCH   8  12
ENDBRANCH   1   8
BRANCH   2  17
ATOM     17  S   UNL     1      39.112   4.968  14.960  0.00  0.00    +0.000 S 
BRANCH  17  18
ATOM     18  C   UNL     1      39.656   5.443  16.557  0.00  0.00    +0.000 A 
ATOM     19  C   UNL     1      39.022   5.230  17.740  0.00  0.00    +0.000 A 
ATOM     20  C   UNL     1      39.548   5.652  18.950  0.00  0.00    +0.000 A 
ATOM     21  C   UNL     1      40.763   6.321  19.000  0.00  0.00    +0.000 A 
ATOM     22  C   UNL     1      41.276   6.748  20.318  0.00  0.00    +0.000 C 
ATOM     23  C   UNL     1      41.406   6.538  17.808  0.00  0.00    +0.000 A 
ATOM     24  C   UNL     1      40.883   6.120  16.617  0.00  0.00    +0.000 A 
ENDBRANCH  17  18
ENDBRANCH   2  17
BRANCH   5  25
ATOM     25  C   UNL     1      36.197   0.319  15.067  0.00  0.00    +0.000 C 
BRANCH  25  26
ATOM     26  C   UNL     1      36.309  -0.135  16.476  0.00  0.00    +0.000 A 
ATOM     27  C   UNL     1      37.229  -1.113  16.773  0.00  0.00    +0.000 A 
ATOM     28  C   UNL     1      37.367  -1.565  18.066  0.00  0.00    +0.000 A 
ATOM     29  C   UNL     1      36.586  -1.043  19.074  0.00  0.00    +0.000 A 
ATOM     30  C   UNL     1      35.682  -0.076  18.752  0.00  0.00    +0.000 A 
ATOM     31  C   UNL     1      35.522   0.394  17.472  0.00  0.00    +0.000 A 
ENDBRANCH  25  26
ENDBRANCH   5  25
TORSDOF 7
ENDMDL
MODEL 4
REMARK VINA RESULT:      -8.0      3.092      7.821
REMARK  Name = 
REMARK  7 active torsions:
REMARK  status: ('A' for Active; 'I' for Inactive)
REMARK    1  A    between atoms: C_2  and  C_3
REMARK    2  A    between atoms: C_6  and  N_7
REMARK    3  A    between atoms: N_7  and  C_8
REMARK    4  A    between atoms: C_9  and  S_10
REMARK    5  A    between atoms: S_10  and  C_11
REMARK    6  A    between atoms: N_20  and  C_21
REMARK    7  A    between atoms: C_21  and  C_22
REMARK                            x       y       z     vdW  Elec       q    Type
REMARK                         _______ _______ _______ _____ _____    ______ ____
ROOT
ATOM      1  C   UNL     1      38.073   1.939  14.099  0.00  0.00    +0.000 C 
ATOM      2  C   UNL     1      37.155   1.608  15.028  0.00  0.00    +0.000 C 
ATOM      3  C   UNL     1      36.820   2.835  15.734  0.00  0.00    +0.000 C 
ATOM      4  O   UNL     1      36.013   2.987  16.671  0.00  0.00    +0.000 OA
ATOM      5  N   UNL     1      37.575   3.938  15.196  0.00  0.00    +0.000 N 
ATOM      6  C   UNL     1      38.354   3.351  14.171  0.00  0.00    +0.000 C 
ATOM      7  O   UNL     1      39.175   3.954  13.425  0.00  0.00    +0.000 OA
ENDROOT
BRANCH   1   8
ATOM      8  N   UNL     1      38.679   1.040  13.180  0.00  0.00    +0.000 NA
BRANCH   8  12
ATOM      9  C   UNL     1      42.381  -0.734  14.305  0.00  0.00    +0.000 A 
ATOM     10  C   UNL     1      42.328   0.509  13.707  0.00  0.00    +0.000 A 
ATOM     11  C   UNL     1      41.130   1.088  13.341  0.00  0.00    +0.000 A 
ATOM     12  C   UNL     1      39.930   0.446  13.558  0.00  0.00    +0.000 A 
ATOM     13  C   UNL     1      39.982  -0.802  14.157  0.00  0.00    +0.000 A 
ATOM     14  C   UNL     1      41.181  -1.382  14.524  0.00  0.00    +0.000 A 
BRANCH   9  16
ATOM     15  C   UNL     1      44.608  -0.280  15.253  0.00  0.00    +0.000 C 
ATOM     16  C   UNL     1      43.681  -1.349  14.696  0.00  0.00    +0.000 C 
ENDBRANCH   9  16
ENDBRANCH   8  12
ENDBRANCH   1   8
BRANCH   2  17
ATOM     17  S   UNL     1      36.559  -0.052  15.236  0.00  0.00    +0.000 S 
BRANCH  17  18
ATOM     18  C   UNL     1      36.820  -0.739  16.827  0.00  0.00    +0.000 A 
ATOM     19  C   UNL     1      36.188  -0.405  17.983  0.00  0.00    +0.000 A 
ATOM     20  C   UNL     1      36.476  -1.018  19.191  0.00  0.00    +0.000 A 
ATOM     21  C   UNL     1      37.439  -2.015  19.267  0.00  0.00    +0.000 A 
ATOM     22  C   UNL     1      37.705  -2.636  20.582  0.00  0.00    +0.000 C 
ATOM     23  C   UNL     1      38.079  -2.357  18.103  0.00  0.00    +0.000 A 
ATOM     24  C   UNL     1      37.792  -1.748  16.914  0.00  0.00    +0.000 A 
ENDBRANCH  17  18
ENDBRANCH   2  17
BRANCH   5  25
ATOM     25  C   UNL     1      37.571   5.332  15.582  0.00  0.00    +0.000 C 
BRANCH  25  26
ATOM     26  C   UNL     1      38.642   5.558  16.585  0.00  0.00    +0.000 A 
ATOM     27  C   UNL     1      39.835   6.086  16.153  0.00  0.00    +0.000 A 
ATOM     28  C   UNL     1      40.858   6.313  17.048  0.00  0.00    +0.000 A 
ATOM     29  C   UNL     1      40.694   6.013  18.383  0.00  0.00    +0.000 A 
ATOM     30  C   UNL     1      39.501   5.490  18.783  0.00  0.00    +0.000 A 
ATOM     31  C   UNL     1      38.465   5.254  17.913  0.00  0.00    +0.000 A 
ENDBRANCH  25  26
ENDBRANCH   5  25
TORSDOF 7
ENDMDL
MODEL 5
REMARK VINA RESULT:      -7.9      2.112      6.632
REMARK  Name = 
REMARK  7 active torsions:
REMARK  status: ('A' for Active; 'I' for Inactive)
REMARK    1  A    between atoms: C_2  and  C_3
REMARK    2  A    between atoms: C_6  and  N_7
REMARK    3  A    between atoms: N_7  and  C_8
REMARK    4  A    between atoms: C_9  and  S_10
REMARK    5  A    between atoms: S_10  and  C_11
REMARK    6  A    between atoms: N_20  and  C_21
REMARK    7  A    between atoms: C_21  and  C_22
REMARK                            x       y       z     vdW  Elec       q    Type
REMARK                         _______ _______ _______ _____ _____    ______ ____
ROOT
ATOM      1  C   UNL     1      37.519   4.048  15.351  0.00  0.00    +0.000 C 
ATOM      2  C   UNL     1      36.382   3.418  15.704  0.00  0.00    +0.000 C 
ATOM      3  C   UNL     1      35.327   3.966  14.865  0.00  0.00    +0.000 C 
ATOM      4  O   UNL     1      34.118   3.668  14.857  0.00  0.00    +0.000 OA
ATOM      5  N   UNL     1      35.869   4.964  13.978  0.00  0.00    +0.000 N 
ATOM      6  C   UNL     1      37.246   4.998  14.302  0.00  0.00    +0.000 C 
ATOM      7  O   UNL     1      38.117   5.739  13.766  0.00  0.00    +0.000 OA
ENDROOT
BRANCH   1   8
ATOM      8  N   UNL     1      38.801   3.819  15.921  0.00  0.00    +0.000 NA
BRANCH   8  12
ATOM      9  C   UNL     1      40.243   6.665  18.738  0.00  0.00    +0.000 A 
ATOM     10  C   UNL     1      40.751   6.596  17.456  0.00  0.00    +0.000 A 
ATOM     11  C   UNL     1      40.287   5.675  16.540  0.00  0.00    +0.000 A 
ATOM     12  C   UNL     1      39.290   4.780  16.866  0.00  0.00    +0.000 A 
ATOM     13  C   UNL     1      38.779   4.849  18.153  0.00  0.00    +0.000 A 
ATOM     14  C   UNL     1      39.244   5.771  19.070  0.00  0.00    +0.000 A 
BRANCH   9  16
ATOM     15  C   UNL     1      42.063   7.175  20.316  0.00  0.00    +0.000 C 
ATOM     16  C   UNL     1      40.752   7.664  19.719  0.00  0.00    +0.000 C 
ENDBRANCH   9  16
ENDBRANCH   8  12
ENDBRANCH   1   8
BRANCH   2  17
ATOM     17  S   UNL     1      36.330   2.175  16.970  0.00  0.00    +0.000 S 
BRANCH  17  18
ATOM     18  C   UNL     1      36.059   0.541  16.396  0.00  0.00    +0.000 A 
ATOM     19  C   UNL     1      36.638  -0.062  15.324  0.00  0.00    +0.000 A 
ATOM     20  C   UNL     1      36.347  -1.366  14.960  0.00  0.00    +0.000 A 
ATOM     21  C   UNL     1      35.437  -2.120  15.689  0.00  0.00    +0.000 A 
ATOM     22  C   UNL     1      35.166  -3.506  15.255  0.00  0.00    +0.000 C 
ATOM     23  C   UNL     1      34.851  -1.516  16.771  0.00  0.00    +0.000 A 
ATOM     24  C   UNL     1      35.141  -0.228  17.126  0.00  0.00    +0.000 A 
ENDBRANCH  17  18
ENDBRANCH   2  17
BRANCH   5  25
ATOM     25  C   UNL     1      35.201   5.768  12.978  0.00  0.00    +0.000 C 
BRANCH  25  26
ATOM     26  C   UNL     1      34.905   7.104  13.552  0.00  0.00    +0.000 A 
ATOM     27  C   UNL     1      33.838   7.220  14.411  0.00  0.00    +0.000 A 
ATOM     28  C   UNL     1      33.525   8.442  14.967  0.00  0.00    +0.000 A 
ATOM     29  C   UNL     1      34.277   9.557  14.668  0.00  0.00    +0.000 A 
ATOM     30  C   UNL     1      35.329   9.412  13.813  0.00  0.00    +0.000 A 
ATOM     31  C   UNL     1      35.663   8.208  13.244  0.00  0.00    +0.000 A 
ENDBRANCH  25  26
ENDBRANCH   5  25
TORSDOF 7
ENDMDL
MODEL 6
REMARK VINA RESULT:      -7.9      1.942      6.900
REMARK  Name = 
REMARK  7 active torsions:
REMARK  status: ('A' for Active; 'I' for Inactive)
REMARK    1  A    between atoms: C_2  and  C_3
REMARK    2  A    between atoms: C_6  and  N_7
REMARK    3  A    between atoms: N_7  and  C_8
REMARK    4  A    between atoms: C_9  and  S_10
REMARK    5  A    between atoms: S_10  and  C_11
REMARK    6  A    between atoms: N_20  and  C_21
REMARK    7  A    between atoms: C_21  and  C_22
REMARK                            x       y       z     vdW  Elec       q    Type
REMARK                         _______ _______ _______ _____ _____    ______ ____
ROOT
ATOM      1  C   UNL     1      37.665   5.291  14.806  0.00  0.00    +0.000 C 
ATOM      2  C   UNL     1      36.897   4.187  14.727  0.00  0.00    +0.000 C 
ATOM      3  C   UNL     1      35.536   4.644  14.496  0.00  0.00    +0.000 C 
ATOM      4  O   UNL     1      34.506   3.956  14.359  0.00  0.00    +0.000 OA
ATOM      5  N   UNL     1      35.501   6.084  14.437  0.00  0.00    +0.000 N 
ATOM      6  C   UNL     1      36.848   6.466  14.634  0.00  0.00    +0.000 C 
ATOM      7  O   UNL     1      37.288   7.650  14.659  0.00  0.00    +0.000 OA
ENDROOT
BRANCH   1   8
ATOM      8  N   UNL     1      39.069   5.307  15.027  0.00  0.00    +0.000 NA
BRANCH   8  12
ATOM      9  C   UNL     1      40.451   6.123  18.969  0.00  0.00    +0.000 A 
ATOM     10  C   UNL     1      39.245   5.489  18.743  0.00  0.00    +0.000 A 
ATOM     11  C   UNL     1      38.793   5.223  17.467  0.00  0.00    +0.000 A 
ATOM     12  C   UNL     1      39.530   5.579  16.357  0.00  0.00    +0.000 A 
ATOM     13  C   UNL     1      40.741   6.215  16.583  0.00  0.00    +0.000 A 
ATOM     14  C   UNL     1      41.193   6.482  17.861  0.00  0.00    +0.000 A 
BRANCH   9  16
ATOM     15  C   UNL     1      42.449   6.416  20.377  0.00  0.00    +0.000 C 
ATOM     16  C   UNL     1      40.929   6.405  20.352  0.00  0.00    +0.000 C 
ENDBRANCH   9  16
ENDBRANCH   8  12
ENDBRANCH   1   8
BRANCH   2  17
ATOM     17  S   UNL     1      37.559   2.547  14.892  0.00  0.00    +0.000 S 
BRANCH  17  18
ATOM     18  C   UNL     1      36.504   1.399  15.693  0.00  0.00    +0.000 A 
ATOM     19  C   UNL     1      35.620   1.651  16.694  0.00  0.00    +0.000 A 
ATOM     20  C   UNL     1      34.833   0.660  17.255  0.00  0.00    +0.000 A 
ATOM     21  C   UNL     1      34.919  -0.652  16.809  0.00  0.00    +0.000 A 
ATOM     22  C   UNL     1      34.054  -1.668  17.444  0.00  0.00    +0.000 C 
ATOM     23  C   UNL     1      35.809  -0.911  15.799  0.00  0.00    +0.000 A 
ATOM     24  C   UNL     1      36.584   0.070  15.248  0.00  0.00    +0.000 A 
ENDBRANCH  17  18
ENDBRANCH   2  17
BRANCH   5  25
ATOM     25  C   UNL     1      34.377   6.970  14.227  0.00  0.00    +0.000 C 
BRANCH  25  26
ATOM     26  C   UNL     1      34.464   7.544  12.861  0.00  0.00    +0.000 A 
ATOM     27  C   UNL     1      34.529   8.912  12.735  0.00  0.00    +0.000 A 
ATOM     28  C   UNL     1      34.610   9.489  11.487  0.00  0.00    +0.000 A 
ATOM     29  C   UNL     1      34.626   8.704  10.355  0.00  0.00    +0.000 A 
ATOM     30  C   UNL     1      34.560   7.351  10.510  0.00  0.00    +0.000 A 
ATOM     31  C   UNL     1      34.479   6.749  11.741  0.00  0.00    +0.000 A 
ENDBRANCH  25  26
ENDBRANCH   5  25
TORSDOF 7
ENDMDL
MODEL 7
REMARK VINA RESULT:      -7.9      2.137      6.054
REMARK  Name = 
REMARK  7 active torsions:
REMARK  status: ('A' for Active; 'I' for Inactive)
REMARK    1  A    between atoms: C_2  and  C_3
REMARK    2  A    between atoms: C_6  and  N_7
REMARK    3  A    between atoms: N_7  and  C_8
REMARK    4  A    between atoms: C_9  and  S_10
REMARK    5  A    between atoms: S_10  and  C_11
REMARK    6  A    between atoms: N_20  and  C_21
REMARK    7  A    between atoms: C_21  and  C_22
REMARK                            x       y       z     vdW  Elec       q    Type
REMARK                         _______ _______ _______ _____ _____    ______ ____
ROOT
ATOM      1  C   UNL     1      36.351   3.944  15.035  0.00  0.00    +0.000 C 
ATOM      2  C   UNL     1      37.225   4.026  16.056  0.00  0.00    +0.000 C 
ATOM      3  C   UNL     1      36.822   3.021  17.028  0.00  0.00    +0.000 C 
ATOM      4  O   UNL     1      37.354   2.753  18.123  0.00  0.00    +0.000 OA
ATOM      5  N   UNL     1      35.657   2.316  16.557  0.00  0.00    +0.000 N 
ATOM      6  C   UNL     1      35.380   2.913  15.304  0.00  0.00    +0.000 C 
ATOM      7  O   UNL     1      34.433   2.604  14.528  0.00  0.00    +0.000 OA
ENDROOT
BRANCH   1   8
ATOM      8  N   UNL     1      36.372   4.748  13.863  0.00  0.00    +0.000 NA
BRANCH   8  12
ATOM      9  C   UNL     1      34.586   8.605  14.090  0.00  0.00    +0.000 A 
ATOM     10  C   UNL     1      35.954   8.447  13.991  0.00  0.00    +0.000 A 
ATOM     11  C   UNL     1      36.537   7.199  13.917  0.00  0.00    +0.000 A 
ATOM     12  C   UNL     1      35.775   6.050  13.939  0.00  0.00    +0.000 A 
ATOM     13  C   UNL     1      34.402   6.208  14.040  0.00  0.00    +0.000 A 
ATOM     14  C   UNL     1      33.818   7.457  14.114  0.00  0.00    +0.000 A 
BRANCH   9  16
ATOM     15  C   UNL     1      34.205  10.708  12.867  0.00  0.00    +0.000 C 
ATOM     16  C   UNL     1      33.967   9.958  14.170  0.00  0.00    +0.000 C 
ENDBRANCH   9  16
ENDBRANCH   8  12
ENDBRANCH   1   8
BRANCH   2  17
ATOM     17  S   UNL     1      38.567   5.188  16.076  0.00  0.00    +0.000 S 
BRANCH  17  18
ATOM     18  C   UNL     1      38.580   6.283  17.445  0.00  0.00    +0.000 A 
ATOM     19  C   UNL     1      37.949   7.483  17.546  0.00  0.00    +0.000 A 
ATOM     20  C   UNL     1      38.029   8.269  18.683  0.00  0.00    +0.000 A 
ATOM     21  C   UNL     1      38.769   7.854  19.782  0.00  0.00    +0.000 A 
ATOM     22  C   UNL     1      38.819   8.734  20.968  0.00  0.00    +0.000 C 
ATOM     23  C   UNL     1      39.407   6.644  19.684  0.00  0.00    +0.000 A 
ATOM     24  C   UNL     1      39.326   5.872  18.560  0.00  0.00    +0.000 A 
ENDBRANCH  17  18
ENDBRANCH   2  17
BRANCH   5  25
ATOM     25  C   UNL     1      34.913   1.246  17.182  0.00  0.00    +0.000 C 
BRANCH  25  26
ATOM     26  C   UNL     1      35.844   0.134  17.503  0.00  0.00    +0.000 A 
ATOM     27  C   UNL     1      35.942  -0.273  18.812  0.00  0.00    +0.000 A 
ATOM     28  C   UNL     1      36.793  -1.300  19.157  0.00  0.00    +0.000 A 
ATOM     29  C   UNL     1      37.553  -1.928  18.194  0.00  0.00    +0.000 A 
ATOM     30  C   UNL     1      37.436  -1.503  16.904  0.00  0.00    +0.000 A 
ATOM     31  C   UNL     1      36.596  -0.483  16.533  0.00  0.00    +0.000 A 
ENDBRANCH  25  26
ENDBRANCH   5  25
TORSDOF 7
ENDMDL
MODEL 8
REMARK VINA RESULT:      -7.8      1.505      5.543
REMARK  Name = 
REMARK  7 active torsions:
REMARK  status: ('A' for Active; 'I' for Inactive)
REMARK    1  A    between atoms: C_2  and  C_3
REMARK    2  A    between atoms: C_6  and  N_7
REMARK    3  A    between atoms: N_7  and  C_8
REMARK    4  A    between atoms: C_9  and  S_10
REMARK    5  A    between atoms: S_10  and  C_11
REMARK    6  A    between atoms: N_20  and  C_21
REMARK    7  A    between atoms: C_21  and  C_22
REMARK                            x       y       z     vdW  Elec       q    Type
REMARK                         _______ _______ _______ _____ _____    ______ ____
ROOT
ATOM      1  C   UNL     1      37.297   4.197  14.394  0.00  0.00    +0.000 C 
ATOM      2  C   UNL     1      36.794   5.445  14.453  0.00  0.00    +0.000 C 
ATOM      3  C   UNL     1      37.878   6.308  14.897  0.00  0.00    +0.000 C 
ATOM      4  O   UNL     1      37.853   7.539  15.087  0.00  0.00    +0.000 OA
ATOM      5  N   UNL     1      39.074   5.531  15.107  0.00  0.00    +0.000 N 
ATOM      6  C   UNL     1      38.684   4.210  14.785  0.00  0.00    +0.000 C 
ATOM      7  O   UNL     1      39.423   3.186  14.828  0.00  0.00    +0.000 OA
ENDROOT
BRANCH   1   8
ATOM      8  N   UNL     1      36.578   3.035  14.004  0.00  0.00    +0.000 NA
BRANCH   8  12
ATOM      9  C   UNL     1      35.520   0.254  17.048  0.00  0.00    +0.000 A 
ATOM     10  C   UNL     1      34.843   1.447  16.893  0.00  0.00    +0.000 A 
ATOM     11  C   UNL     1      35.183   2.351  15.908  0.00  0.00    +0.000 A 
ATOM     12  C   UNL     1      36.217   2.100  15.032  0.00  0.00    +0.000 A 
ATOM     13  C   UNL     1      36.898   0.903  15.188  0.00  0.00    +0.000 A 
ATOM     14  C   UNL     1      36.559  -0.002  16.174  0.00  0.00    +0.000 A 
BRANCH   9  16
ATOM     15  C   UNL     1      36.401  -1.287  18.756  0.00  0.00    +0.000 C 
ATOM     16  C   UNL     1      35.145  -0.715  18.116  0.00  0.00    +0.000 C 
ENDBRANCH   9  16
ENDBRANCH   8  12
ENDBRANCH   1   8
BRANCH   2  17
ATOM     17  S   UNL     1      35.108   5.818  14.040  0.00  0.00    +0.000 S 
BRANCH  17  18
ATOM     18  C   UNL     1      34.849   6.347  12.388  0.00  0.00    +0.000 A 
ATOM     19  C   UNL     1      33.828   7.110  11.918  0.00  0.00    +0.000 A 
ATOM     20  C   UNL     1      33.723   7.469  10.585  0.00  0.00    +0.000 A 
ATOM     21  C   UNL     1      34.674   7.056   9.662  0.00  0.00    +0.000 A 
ATOM     22  C   UNL     1      34.512   7.469   8.253  0.00  0.00    +0.000 C 
ATOM     23  C   UNL     1      35.707   6.285  10.132  0.00  0.00    +0.000 A 
ATOM     24  C   UNL     1      35.806   5.933  11.448  0.00  0.00    +0.000 A 
ENDBRANCH  17  18
ENDBRANCH   2  17
BRANCH   5  25
ATOM     25  C   UNL     1      40.384   5.959  15.545  0.00  0.00    +0.000 C 
BRANCH  25  26
ATOM     26  C   UNL     1      40.392   6.053  17.026  0.00  0.00    +0.000 A 
ATOM     27  C   UNL     1      41.554   6.445  17.646  0.00  0.00    +0.000 A 
ATOM     28  C   UNL     1      41.608   6.546  19.019  0.00  0.00    +0.000 A 
ATOM     29  C   UNL     1      40.498   6.257  19.783  0.00  0.00    +0.000 A 
ATOM     30  C   UNL     1      39.359   5.871  19.142  0.00  0.00    +0.000 A 
ATOM     31  C   UNL     1      39.277   5.761  17.776  0.00  0.00    +0.000 A 
ENDBRANCH  25  26
ENDBRANCH   5  25
TORSDOF 7
ENDMDL
MODEL 9
REMARK VINA RESULT:      -7.7      2.159      2.974
REMARK  Name = 
REMARK  7 active torsions:
REMARK  status: ('A' for Active; 'I' for Inactive)
REMARK    1  A    between atoms: C_2  and  C_3
REMARK    2  A    between atoms: C_6  and  N_7
REMARK    3  A    between atoms: N_7  and  C_8
REMARK    4  A    between atoms: C_9  and  S_10
REMARK    5  A    between atoms: S_10  and  C_11
REMARK    6  A    between atoms: N_20  and  C_21
REMARK    7  A    between atoms: C_21  and  C_22
REMARK                            x       y       z     vdW  Elec       q    Type
REMARK                         _______ _______ _______ _____ _____    ______ ____
ROOT
ATOM      1  C   UNL     1      36.737   2.154  14.783  0.00  0.00    +0.000 C 
ATOM      2  C   UNL     1      37.419   1.389  13.908  0.00  0.00    +0.000 C 
ATOM      3  C   UNL     1      37.120   0.006  14.246  0.00  0.00    +0.000 C 
ATOM      4  O   UNL     1      37.539  -1.028  13.693  0.00  0.00    +0.000 OA
ATOM      5  N   UNL     1      36.221  -0.045  15.370  0.00  0.00    +0.000 N 
ATOM      6  C   UNL     1      35.995   1.315  15.689  0.00  0.00    +0.000 C 
ATOM      7  O   UNL     1      35.260   1.747  16.621  0.00  0.00    +0.000 OA
ENDROOT
BRANCH   1   8
ATOM      8  N   UNL     1      36.742   3.575  14.815  0.00  0.00    +0.000 NA
BRANCH   8  12
ATOM      9  C   UNL     1      39.643   5.478  17.281  0.00  0.00    +0.000 A 
ATOM     10  C   UNL     1      39.737   5.503  15.904  0.00  0.00    +0.000 A 
ATOM     11  C   UNL     1      38.799   4.887  15.101  0.00  0.00    +0.000 A 
ATOM     12  C   UNL     1      37.722   4.218  15.642  0.00  0.00    +0.000 A 
ATOM     13  C   UNL     1      37.627   4.192  17.024  0.00  0.00    +0.000 A 
ATOM     14  C   UNL     1      38.566   4.808  17.829  0.00  0.00    +0.000 A 
BRANCH   9  16
ATOM     15  C   UNL     1      40.182   6.172  19.582  0.00  0.00    +0.000 C 
ATOM     16  C   UNL     1      40.662   6.146  18.139  0.00  0.00    +0.000 C 
ENDBRANCH   9  16
ENDBRANCH   8  12
ENDBRANCH   1   8
BRANCH   2  17
ATOM     17  S   UNL     1      38.450   2.077  12.636  0.00  0.00    +0.000 S 
BRANCH  17  18
ATOM     18  C   UNL     1      37.613   2.514  11.159  0.00  0.00    +0.000 A 
ATOM     19  C   UNL     1      37.245   1.687  10.145  0.00  0.00    +0.000 A 
ATOM     20  C   UNL     1      36.584   2.145   9.018  0.00  0.00    +0.000 A 
ATOM     21  C   UNL     1      36.266   3.489   8.878  0.00  0.00    +0.000 A 
ATOM     22  C   UNL     1      35.560   3.920   7.655  0.00  0.00    +0.000 C 
ATOM     23  C   UNL     1      36.635   4.327   9.899  0.00  0.00    +0.000 A 
ATOM     24  C   UNL     1      37.288   3.871  11.010  0.00  0.00    +0.000 A 
ENDBRANCH  17  18
ENDBRANCH   2  17
BRANCH   5  25
ATOM     25  C   UNL     1      35.656  -1.191  16.047  0.00  0.00    +0.000 C 
BRANCH  25  26
ATOM     26  C   UNL     1      36.579  -1.615  17.130  0.00  0.00    +0.000 A 
ATOM     27  C   UNL     1      37.590  -2.492  16.815  0.00  0.00    +0.000 A 
ATOM     28  C   UNL     1      38.470  -2.913  17.788  0.00  0.00    +0.000 A 
ATOM     29  C   UNL     1      38.346  -2.461  19.083  0.00  0.00    +0.000 A 
ATOM     30  C   UNL     1      37.334  -1.593  19.367  0.00  0.00    +0.000 A 
ATOM     31  C   UNL     1      36.443  -1.157  18.418  0.00  0.00    +0.000 A 
ENDBRANCH  25  26
ENDBRANCH   5  25
TORSDOF 7
ENDMDL
MODEL 10
REMARK VINA RESULT:      -7.7      3.186      6.364
REMARK  Name = 
REMARK  7 active torsions:
REMARK  status: ('A' for Active; 'I' for Inactive)
REMARK    1  A    between atoms: C_2  and  C_3
REMARK    2  A    between atoms: C_6  and  N_7
REMARK    3  A    between atoms: N_7  and  C_8
REMARK    4  A    between atoms: C_9  and  S_10
REMARK    5  A    between atoms: S_10  and  C_11
REMARK    6  A    between atoms: N_20  and  C_21
REMARK    7  A    between atoms: C_21  and  C_22
REMARK                            x       y       z     vdW  Elec       q    Type
REMARK                         _______ _______ _______ _____ _____    ______ ____
ROOT
ATOM      1  C   UNL     1      37.752   1.884  14.055  0.00  0.00    +0.000 C 
ATOM      2  C   UNL     1      37.517   2.848  14.966  0.00  0.00    +0.000 C 
ATOM      3  C   UNL     1      36.576   2.291  15.926  0.00  0.00    +0.000 C 
ATOM      4  O   UNL     1      36.090   2.840  16.933  0.00  0.00    +0.000 OA
ATOM      5  N   UNL     1      36.243   0.937  15.563  0.00  0.00    +0.000 N 
ATOM      6  C   UNL     1      36.993   0.704  14.386  0.00  0.00    +0.000 C 
ATOM      7  O   UNL     1      37.008  -0.365  13.715  0.00  0.00    +0.000 OA
ENDROOT
BRANCH   1   8
ATOM      8  N   UNL     1      38.615   2.001  12.932  0.00  0.00    +0.000 NA
BRANCH   8  12
ATOM      9  C   UNL     1      41.996  -0.580  12.778  0.00  0.00    +0.000 A 
ATOM     10  C   UNL     1      41.113  -0.483  11.722  0.00  0.00    +0.000 A 
ATOM     11  C   UNL     1      40.015   0.352  11.768  0.00  0.00    +0.000 A 
ATOM     12  C   UNL     1      39.754   1.130  12.875  0.00  0.00    +0.000 A 
ATOM     13  C   UNL     1      40.640   1.033  13.936  0.00  0.00    +0.000 A 
ATOM     14  C   UNL     1      41.738   0.197  13.891  0.00  0.00    +0.000 A 
BRANCH   9  16
ATOM     15  C   UNL     1      42.722  -2.932  12.834  0.00  0.00    +0.000 C 
ATOM     16  C   UNL     1      43.178  -1.486  12.717  0.00  0.00    +0.000 C 
ENDBRANCH   9  16
ENDBRANCH   8  12
ENDBRANCH   1   8
BRANCH   2  17
ATOM     17  S   UNL     1      38.281   4.449  14.884  0.00  0.00    +0.000 S 
BRANCH  17  18
ATOM     18  C   UNL     1      38.997   5.007  16.383  0.00  0.00    +0.000 A 
ATOM     19  C   UNL     1      38.533   4.802  17.644  0.00  0.00    +0.000 A 
ATOM     20  C   UNL     1      39.185   5.293  18.763  0.00  0.00    +0.000 A 
ATOM     21  C   UNL     1      40.358   6.025  18.636  0.00  0.00    +0.000 A 
ATOM     22  C   UNL     1      41.011   6.523  19.865  0.00  0.00    +0.000 C 
ATOM     23  C   UNL     1      40.830   6.234  17.366  0.00  0.00    +0.000 A 
ATOM     24  C   UNL     1      40.183   5.748  16.265  0.00  0.00    +0.000 A 
ENDBRANCH  17  18
ENDBRANCH   2  17
BRANCH   5  25
ATOM     25  C   UNL     1      35.357   0.000  16.217  0.00  0.00    +0.000 C 
BRANCH  25  26
ATOM     26  C   UNL     1      36.100  -0.691  17.301  0.00  0.00    +0.000 A 
ATOM     27  C   UNL     1      35.838  -0.330  18.601  0.00  0.00    +0.000 A 
ATOM     28  C   UNL     1      36.505  -0.944  19.639  0.00  0.00    +0.000 A 
ATOM     29  C   UNL     1      37.438  -1.925  19.384  0.00  0.00    +0.000 A 
ATOM     30  C   UNL     1      37.678  -2.263  18.086  0.00  0.00    +0.000 A 
ATOM     31  C   UNL     1      37.029  -1.668  17.032  0.00  0.00    +0.000 A 
ENDBRANCH  25  26
ENDBRANCH   5  25
TORSDOF 7
ENDMDL
