MODEL 1
REMARK VINA RESULT:      -8.7      0.000      0.000
REMARK  Name = 
REMARK  8 active torsions:
REMARK  status: ('A' for Active; 'I' for Inactive)
REMARK    1  A    between atoms: O_2  and  C_3
REMARK    2  A    between atoms: C_6  and  C_7
REMARK    3  A    between atoms: N_9  and  C_10
REMARK    4  A    between atoms: C_10  and  C_11
REMARK    5  A    between atoms: N_13  and  N_14
REMARK    6  A    between atoms: C_15  and  C_16
REMARK    7  A    between atoms: C_15  and  C_22
REMARK    8  A    between atoms: C_29  and  O_30
REMARK                            x       y       z     vdW  Elec       q    Type
REMARK                         _______ _______ _______ _____ _____    ______ ____
ROOT
ATOM      1  C   UNL     1      37.958   3.961  17.039  0.00  0.00    +0.000 C 
ATOM      2  O   UNL     1      38.845   3.992  16.134  0.00  0.00    +0.000 OA
ATOM      3  N   UNL     1      38.307   4.464  18.312  0.00  0.00    +0.000 NA
ENDROOT
BRANCH   3   4
ATOM      4  N   UNL     1      39.525   4.976  18.666  0.00  0.00    +0.000 NA
ATOM      5  C   UNL     1      39.875   6.118  19.038  0.00  0.00    +0.000 C 
BRANCH   5   6
ATOM      6  C   UNL     1      41.294   6.345  19.352  0.00  0.00    +0.000 A 
ATOM      7  C   UNL     1      42.131   6.749  18.357  0.00  0.00    +0.000 A 
ATOM      8  C   UNL     1      43.478   6.965  18.655  0.00  0.00    +0.000 A 
ATOM      9  C   UNL     1      43.927   6.768  19.932  0.00  0.00    +0.000 A 
ATOM     10  C   UNL     1      43.061   6.362  20.910  0.00  0.00    +0.000 A 
ATOM     11  C   UNL     1      41.754   6.153  20.618  0.00  0.00    +0.000 A 
ENDBRANCH   5   6
BRANCH   5  12
ATOM     12  C   UNL     1      38.954   7.249  19.182  0.00  0.00    +0.000 A 
ATOM     13  C   UNL     1      38.866   7.866  20.392  0.00  0.00    +0.000 A 
ATOM     14  C   UNL     1      38.023   8.930  20.589  0.00  0.00    +0.000 A 
ATOM     15  C   UNL     1      37.259   9.380  19.562  0.00  0.00    +0.000 A 
ATOM     16  C   UNL     1      37.317   8.785  18.324  0.00  0.00    +0.000 A 
ATOM     17  C   UNL     1      38.181   7.702  18.139  0.00  0.00    +0.000 A 
ENDBRANCH   5  12
ENDBRANCH   3   4
BRANCH   1  18
ATOM     18  C   UNL     1      36.659   3.393  16.643  0.00  0.00    +0.000 C 
BRANCH  18  21
ATOM     19  C   UNL     1      35.434   1.195  16.480  0.00  0.00    +0.000 C 
ATOM     20  O   UNL     1      34.338   1.741  16.754  0.00  0.00    +0.000 OA
ATOM     21  N   UNL     1      36.583   2.009  16.422  0.00  0.00    +0.000 NA
BRANCH  19  25
ATOM     22  C   UNL     1      35.576  -2.981  15.763  0.00  0.00    +0.000 A 
ATOM     23  C   UNL     1      34.789  -2.496  16.810  0.00  0.00    +0.000 A 
ATOM     24  C   UNL     1      34.768  -1.120  17.012  0.00  0.00    +0.000 A 
ATOM     25  C   UNL     1      35.484  -0.252  16.230  0.00  0.00    +0.000 A 
ATOM     26  C   UNL     1      36.249  -0.769  15.205  0.00  0.00    +0.000 A 
ATOM     27  C   UNL     1      36.302  -2.142  14.963  0.00  0.00    +0.000 A 
BRANCH  22  29
ATOM     28  C   UNL     1      36.433  -5.200  16.314  0.00  0.00    +0.000 C 
ATOM     29  O   UNL     1      35.607  -4.361  15.545  0.00  0.00    +0.000 OA
ENDBRANCH  22  29
BRANCH  27  30
ATOM     30  O   UNL     1      37.063  -2.685  13.941  0.00  0.00    +0.000 OA
ATOM     31  C   UNL     1      38.471  -2.616  13.913  0.00  0.00    +0.000 C 
ENDBRANCH  27  30
ENDBRANCH  19  25
ENDBRANCH  18  21
ENDBRANCH   1  18
TORSDOF 8
ENDMDL
MODEL 2
REMARK VINA RESULT:      -7.9      2.668     10.139
REMARK  Name = 
REMARK  8 active torsions:
REMARK  status: ('A' for Active; 'I' for Inactive)
REMARK    1  A    between atoms: O_2  and  C_3
REMARK    2  A    between atoms: C_6  and  C_7
REMARK    3  A    between atoms: N_9  and  C_10
REMARK    4  A    between atoms: C_10  and  C_11
REMARK    5  A    between atoms: N_13  and  N_14
REMARK    6  A    between atoms: C_15  and  C_16
REMARK    7  A    between atoms: C_15  and  C_22
REMARK    8  A    between atoms: C_29  and  O_30
REMARK                            x       y       z     vdW  Elec       q    Type
REMARK                         _______ _______ _______ _____ _____    ______ ____
ROOT
ATOM      1  C   UNL     1      38.237   3.148  15.191  0.00  0.00    +0.000 C 
ATOM      2  O   UNL     1      38.996   3.432  14.217  0.00  0.00    +0.000 OA
ATOM      3  N   UNL     1      38.146   1.791  15.573  0.00  0.00    +0.000 NA
ENDROOT
BRANCH   3   4
ATOM      4  N   UNL     1      38.796   0.745  14.980  0.00  0.00    +0.000 NA
ATOM      5  C   UNL     1      38.618  -0.492  15.039  0.00  0.00    +0.000 C 
BRANCH   5   6
ATOM      6  C   UNL     1      39.511  -1.364  14.261  0.00  0.00    +0.000 A 
ATOM      7  C   UNL     1      40.800  -1.521  14.672  0.00  0.00    +0.000 A 
ATOM      8  C   UNL     1      41.648  -2.348  13.934  0.00  0.00    +0.000 A 
ATOM      9  C   UNL     1      41.170  -2.982  12.820  0.00  0.00    +0.000 A 
ATOM     10  C   UNL     1      39.870  -2.806  12.433  0.00  0.00    +0.000 A 
ATOM     11  C   UNL     1      39.049  -2.001  13.151  0.00  0.00    +0.000 A 
ENDBRANCH   5   6
BRANCH   5  12
ATOM     12  C   UNL     1      37.568  -1.129  15.839  0.00  0.00    +0.000 A 
ATOM     13  C   UNL     1      37.919  -1.740  17.003  0.00  0.00    +0.000 A 
ATOM     14  C   UNL     1      36.982  -2.353  17.796  0.00  0.00    +0.000 A 
ATOM     15  C   UNL     1      35.679  -2.354  17.417  0.00  0.00    +0.000 A 
ATOM     16  C   UNL     1      35.282  -1.749  16.249  0.00  0.00    +0.000 A 
ATOM     17  C   UNL     1      36.249  -1.128  15.451  0.00  0.00    +0.000 A 
ENDBRANCH   5  12
ENDBRANCH   3   4
BRANCH   1  18
ATOM     18  C   UNL     1      37.534   4.286  15.807  0.00  0.00    +0.000 C 
BRANCH  18  21
ATOM     19  C   UNL     1      38.718   5.015  17.910  0.00  0.00    +0.000 C 
ATOM     20  O   UNL     1      38.417   3.947  18.496  0.00  0.00    +0.000 OA
ATOM     21  N   UNL     1      38.285   5.185  16.580  0.00  0.00    +0.000 NA
BRANCH  19  25
ATOM     22  C   UNL     1      40.984   7.963  19.947  0.00  0.00    +0.000 A 
ATOM     23  C   UNL     1      41.636   7.075  19.089  0.00  0.00    +0.000 A 
ATOM     24  C   UNL     1      40.858   6.123  18.440  0.00  0.00    +0.000 A 
ATOM     25  C   UNL     1      39.502   6.037  18.617  0.00  0.00    +0.000 A 
ATOM     26  C   UNL     1      38.893   6.933  19.471  0.00  0.00    +0.000 A 
ATOM     27  C   UNL     1      39.632   7.906  20.146  0.00  0.00    +0.000 A 
BRANCH  22  29
ATOM     28  C   UNL     1      42.199  10.081  19.940  0.00  0.00    +0.000 C 
ATOM     29  O   UNL     1      41.750   8.927  20.607  0.00  0.00    +0.000 OA
ENDBRANCH  22  29
BRANCH  27  30
ATOM     30  O   UNL     1      39.043   8.816  21.008  0.00  0.00    +0.000 OA
ATOM     31  C   UNL     1      38.200   9.857  20.567  0.00  0.00    +0.000 C 
ENDBRANCH  27  30
ENDBRANCH  19  25
ENDBRANCH  18  21
ENDBRANCH   1  18
TORSDOF 8
ENDMDL
MODEL 3
REMARK VINA RESULT:      -7.9      2.794     10.540
REMARK  Name = 
REMARK  8 active torsions:
REMARK  status: ('A' for Active; 'I' for Inactive)
REMARK    1  A    between atoms: O_2  and  C_3
REMARK    2  A    between atoms: C_6  and  C_7
REMARK    3  A    between atoms: N_9  and  C_10
REMARK    4  A    between atoms: C_10  and  C_11
REMARK    5  A    between atoms: N_13  and  N_14
REMARK    6  A    between atoms: C_15  and  C_16
REMARK    7  A    between atoms: C_15  and  C_22
REMARK    8  A    between atoms: C_29  and  O_30
REMARK                            x       y       z     vdW  Elec       q    Type
REMARK                         _______ _______ _______ _____ _____    ______ ____
ROOT
ATOM      1  C   UNL     1      37.664   3.355  15.715  0.00  0.00    +0.000 C 
ATOM      2  O   UNL     1      36.454   3.652  15.945  0.00  0.00    +0.000 OA
ATOM      3  N   UNL     1      38.002   1.984  15.668  0.00  0.00    +0.000 NA
ENDROOT
BRANCH   3   4
ATOM      4  N   UNL     1      37.141   0.938  15.860  0.00  0.00    +0.000 NA
ATOM      5  C   UNL     1      37.227  -0.278  15.578  0.00  0.00    +0.000 C 
BRANCH   5   6
ATOM      6  C   UNL     1      36.101  -1.156  15.927  0.00  0.00    +0.000 A 
ATOM      7  C   UNL     1      35.281  -0.798  16.954  0.00  0.00    +0.000 A 
ATOM      8  C   UNL     1      34.211  -1.632  17.285  0.00  0.00    +0.000 A 
ATOM      9  C   UNL     1      34.009  -2.784  16.576  0.00  0.00    +0.000 A 
ATOM     10  C   UNL     1      34.850  -3.116  15.550  0.00  0.00    +0.000 A 
ATOM     11  C   UNL     1      35.888  -2.305  15.230  0.00  0.00    +0.000 A 
ENDBRANCH   5   6
BRANCH   5  12
ATOM     12  C   UNL     1      38.386  -0.883  14.916  0.00  0.00    +0.000 A 
ATOM     13  C   UNL     1      39.331  -1.488  15.687  0.00  0.00    +0.000 A 
ATOM     14  C   UNL     1      40.439  -2.073  15.127  0.00  0.00    +0.000 A 
ATOM     15  C   UNL     1      40.601  -2.050  13.780  0.00  0.00    +0.000 A 
ATOM     16  C   UNL     1      39.671  -1.449  12.965  0.00  0.00    +0.000 A 
ATOM     17  C   UNL     1      38.548  -0.857  13.551  0.00  0.00    +0.000 A 
ENDBRANCH   5  12
ENDBRANCH   3   4
BRANCH   1  18
ATOM     18  C   UNL     1      38.578   4.493  15.526  0.00  0.00    +0.000 C 
BRANCH  18  21
ATOM     19  C   UNL     1      38.695   5.553  17.811  0.00  0.00    +0.000 C 
ATOM     20  O   UNL     1      39.013   4.463  18.343  0.00  0.00    +0.000 OA
ATOM     21  N   UNL     1      38.481   5.573  16.418  0.00  0.00    +0.000 NA
BRANCH  19  25
ATOM     22  C   UNL     1      38.305   9.025  20.213  0.00  0.00    +0.000 A 
ATOM     23  C   UNL     1      39.170   8.007  20.622  0.00  0.00    +0.000 A 
ATOM     24  C   UNL     1      39.270   6.886  19.806  0.00  0.00    +0.000 A 
ATOM     25  C   UNL     1      38.559   6.757  18.642  0.00  0.00    +0.000 A 
ATOM     26  C   UNL     1      37.715   7.784  18.271  0.00  0.00    +0.000 A 
ATOM     27  C   UNL     1      37.581   8.930  19.056  0.00  0.00    +0.000 A 
BRANCH  22  29
ATOM     28  C   UNL     1      39.197  11.145  21.034  0.00  0.00    +0.000 C 
ATOM     29  O   UNL     1      38.193  10.160  21.020  0.00  0.00    +0.000 OA
ENDBRANCH  22  29
BRANCH  27  30
ATOM     30  O   UNL     1      36.741   9.973  18.705  0.00  0.00    +0.000 OA
ATOM     31  C   UNL     1      35.883   9.925  17.586  0.00  0.00    +0.000 C 
ENDBRANCH  27  30
ENDBRANCH  19  25
ENDBRANCH  18  21
ENDBRANCH   1  18
TORSDOF 8
ENDMDL
MODEL 4
REMARK VINA RESULT:      -7.8      1.229      2.185
REMARK  Name = 
REMARK  8 active torsions:
REMARK  status: ('A' for Active; 'I' for Inactive)
REMARK    1  A    between atoms: O_2  and  C_3
REMARK    2  A    between atoms: C_6  and  C_7
REMARK    3  A    between atoms: N_9  and  C_10
REMARK    4  A    between atoms: C_10  and  C_11
REMARK    5  A    between atoms: N_13  and  N_14
REMARK    6  A    between atoms: C_15  and  C_16
REMARK    7  A    between atoms: C_15  and  C_22
REMARK    8  A    between atoms: C_29  and  O_30
REMARK                            x       y       z     vdW  Elec       q    Type
REMARK                         _______ _______ _______ _____ _____    ______ ____
ROOT
ATOM      1  C   UNL     1      38.440   4.576  17.042  0.00  0.00    +0.000 C 
ATOM      2  O   UNL     1      39.353   4.619  16.165  0.00  0.00    +0.000 OA
ATOM      3  N   UNL     1      38.783   4.954  18.360  0.00  0.00    +0.000 NA
ENDROOT
BRANCH   3   4
ATOM      4  N   UNL     1      40.020   5.355  18.783  0.00  0.00    +0.000 NA
ATOM      5  C   UNL     1      40.436   6.445  19.236  0.00  0.00    +0.000 C 
BRANCH   5   6
ATOM      6  C   UNL     1      41.855   6.550  19.608  0.00  0.00    +0.000 A 
ATOM      7  C   UNL     1      42.762   6.889  18.651  0.00  0.00    +0.000 A 
ATOM      8  C   UNL     1      44.109   6.989  19.004  0.00  0.00    +0.000 A 
ATOM      9  C   UNL     1      44.488   6.747  20.295  0.00  0.00    +0.000 A 
ATOM     10  C   UNL     1      43.553   6.408  21.234  0.00  0.00    +0.000 A 
ATOM     11  C   UNL     1      42.245   6.311  20.889  0.00  0.00    +0.000 A 
ENDBRANCH   5   6
BRANCH   5  12
ATOM     12  C   UNL     1      39.592   7.629  19.420  0.00  0.00    +0.000 A 
ATOM     13  C   UNL     1      39.457   8.498  18.381  0.00  0.00    +0.000 A 
ATOM     14  C   UNL     1      38.680   9.623  18.491  0.00  0.00    +0.000 A 
ATOM     15  C   UNL     1      38.033   9.881  19.655  0.00  0.00    +0.000 A 
ATOM     16  C   UNL     1      38.143   9.031  20.728  0.00  0.00    +0.000 A 
ATOM     17  C   UNL     1      38.938   7.887  20.601  0.00  0.00    +0.000 A 
ENDBRANCH   5  12
ENDBRANCH   3   4
BRANCH   1  18
ATOM     18  C   UNL     1      37.119   4.128  16.571  0.00  0.00    +0.000 C 
BRANCH  18  21
ATOM     19  C   UNL     1      35.787   2.082  15.941  0.00  0.00    +0.000 C 
ATOM     20  O   UNL     1      34.990   2.765  15.254  0.00  0.00    +0.000 OA
ATOM     21  N   UNL     1      36.842   2.752  16.592  0.00  0.00    +0.000 NA
BRANCH  19  25
ATOM     22  C   UNL     1      35.252  -2.114  16.230  0.00  0.00    +0.000 A 
ATOM     23  C   UNL     1      36.207  -1.608  15.346  0.00  0.00    +0.000 A 
ATOM     24  C   UNL     1      36.353  -0.227  15.281  0.00  0.00    +0.000 A 
ATOM     25  C   UNL     1      35.600   0.629  16.042  0.00  0.00    +0.000 A 
ATOM     26  C   UNL     1      34.667   0.091  16.905  0.00  0.00    +0.000 A 
ATOM     27  C   UNL     1      34.484  -1.288  17.005  0.00  0.00    +0.000 A 
BRANCH  22  29
ATOM     28  C   UNL     1      35.786  -4.362  15.441  0.00  0.00    +0.000 C 
ATOM     29  O   UNL     1      35.093  -3.499  16.309  0.00  0.00    +0.000 OA
ENDBRANCH  22  29
BRANCH  27  30
ATOM     30  O   UNL     1      33.554  -1.851  17.863  0.00  0.00    +0.000 OA
ATOM     31  C   UNL     1      32.212  -2.080  17.496  0.00  0.00    +0.000 C 
ENDBRANCH  27  30
ENDBRANCH  19  25
ENDBRANCH  18  21
ENDBRANCH   1  18
TORSDOF 8
ENDMDL
MODEL 5
REMARK VINA RESULT:      -7.8     24.290     26.843
REMARK  Name = 
REMARK  8 active torsions:
REMARK  status: ('A' for Active; 'I' for Inactive)
REMARK    1  A    between atoms: O_2  and  C_3
REMARK    2  A    between atoms: C_6  and  C_7
REMARK    3  A    between atoms: N_9  and  C_10
REMARK    4  A    between atoms: C_10  and  C_11
REMARK    5  A    between atoms: N_13  and  N_14
REMARK    6  A    between atoms: C_15  and  C_16
REMARK    7  A    between atoms: C_15  and  C_22
REMARK    8  A    between atoms: C_29  and  O_30
REMARK                            x       y       z     vdW  Elec       q    Type
REMARK                         _______ _______ _______ _____ _____    ______ ____
ROOT
ATOM      1  C   UNL     1      25.147  14.622  39.332  0.00  0.00    +0.000 C 
ATOM      2  O   UNL     1      23.926  14.573  38.995  0.00  0.00    +0.000 OA
ATOM      3  N   UNL     1      26.093  14.889  38.318  0.00  0.00    +0.000 NA
ENDROOT
BRANCH   3   4
ATOM      4  N   UNL     1      25.816  15.090  36.994  0.00  0.00    +0.000 NA
ATOM      5  C   UNL     1      26.505  15.550  36.055  0.00  0.00    +0.000 C 
BRANCH   5   6
ATOM      6  C   UNL     1      25.896  15.633  34.719  0.00  0.00    +0.000 A 
ATOM      7  C   UNL     1      25.910  14.531  33.920  0.00  0.00    +0.000 A 
ATOM      8  C   UNL     1      25.332  14.610  32.651  0.00  0.00    +0.000 A 
ATOM      9  C   UNL     1      24.766  15.786  32.240  0.00  0.00    +0.000 A 
ATOM     10  C   UNL     1      24.767  16.876  33.067  0.00  0.00    +0.000 A 
ATOM     11  C   UNL     1      25.329  16.796  34.298  0.00  0.00    +0.000 A 
ENDBRANCH   5   6
BRANCH   5  12
ATOM     12  C   UNL     1      27.887  16.012  36.207  0.00  0.00    +0.000 A 
ATOM     13  C   UNL     1      28.106  17.233  36.768  0.00  0.00    +0.000 A 
ATOM     14  C   UNL     1      29.376  17.721  36.937  0.00  0.00    +0.000 A 
ATOM     15  C   UNL     1      30.440  16.977  36.540  0.00  0.00    +0.000 A 
ATOM     16  C   UNL     1      30.263  15.740  35.969  0.00  0.00    +0.000 A 
ATOM     17  C   UNL     1      28.962  15.256  35.802  0.00  0.00    +0.000 A 
ENDBRANCH   5  12
ENDBRANCH   3   4
BRANCH   1  18
ATOM     18  C   UNL     1      25.427  14.390  40.758  0.00  0.00    +0.000 C 
BRANCH  18  21
ATOM     19  C   UNL     1      26.879  12.350  41.053  0.00  0.00    +0.000 C 
ATOM     20  O   UNL     1      27.859  12.923  40.518  0.00  0.00    +0.000 OA
ATOM     21  N   UNL     1      25.675  13.073  41.175  0.00  0.00    +0.000 NA
BRANCH  19  25
ATOM     22  C   UNL     1      27.276   8.358  42.424  0.00  0.00    +0.000 A 
ATOM     23  C   UNL     1      28.178   8.845  41.476  0.00  0.00    +0.000 A 
ATOM     24  C   UNL     1      28.014  10.160  41.052  0.00  0.00    +0.000 A 
ATOM     25  C   UNL     1      27.015  10.967  41.530  0.00  0.00    +0.000 A 
ATOM     26  C   UNL     1      26.144  10.450  42.466  0.00  0.00    +0.000 A 
ATOM     27  C   UNL     1      26.268   9.137  42.922  0.00  0.00    +0.000 A 
BRANCH  22  29
ATOM     28  C   UNL     1      28.241   6.728  43.965  0.00  0.00    +0.000 C 
ATOM     29  O   UNL     1      27.426   7.040  42.862  0.00  0.00    +0.000 OA
ENDBRANCH  22  29
BRANCH  27  30
ATOM     30  O   UNL     1      25.405   8.596  43.861  0.00  0.00    +0.000 OA
ATOM     31  C   UNL     1      24.070   8.251  43.568  0.00  0.00    +0.000 C 
ENDBRANCH  27  30
ENDBRANCH  19  25
ENDBRANCH  18  21
ENDBRANCH   1  18
TORSDOF 8
ENDMDL
MODEL 6
REMARK VINA RESULT:      -7.8      2.368     10.405
REMARK  Name = 
REMARK  8 active torsions:
REMARK  status: ('A' for Active; 'I' for Inactive)
REMARK    1  A    between atoms: O_2  and  C_3
REMARK    2  A    between atoms: C_6  and  C_7
REMARK    3  A    between atoms: N_9  and  C_10
REMARK    4  A    between atoms: C_10  and  C_11
REMARK    5  A    between atoms: N_13  and  N_14
REMARK    6  A    between atoms: C_15  and  C_16
REMARK    7  A    between atoms: C_15  and  C_22
REMARK    8  A    between atoms: C_29  and  O_30
REMARK                            x       y       z     vdW  Elec       q    Type
REMARK                         _______ _______ _______ _____ _____    ______ ____
ROOT
ATOM      1  C   UNL     1      36.700   1.640  16.561  0.00  0.00    +0.000 C 
ATOM      2  O   UNL     1      36.022   1.247  17.557  0.00  0.00    +0.000 OA
ATOM      3  N   UNL     1      37.366   0.658  15.795  0.00  0.00    +0.000 NA
ENDROOT
BRANCH   3   4
ATOM      4  N   UNL     1      37.356  -0.689  16.035  0.00  0.00    +0.000 NA
ATOM      5  C   UNL     1      38.034  -1.627  15.560  0.00  0.00    +0.000 C 
BRANCH   5   6
ATOM      6  C   UNL     1      37.770  -2.991  16.042  0.00  0.00    +0.000 A 
ATOM      7  C   UNL     1      38.588  -3.523  16.992  0.00  0.00    +0.000 A 
ATOM      8  C   UNL     1      38.337  -4.818  17.450  0.00  0.00    +0.000 A 
ATOM      9  C   UNL     1      37.282  -5.522  16.939  0.00  0.00    +0.000 A 
ATOM     10  C   UNL     1      36.478  -4.960  15.985  0.00  0.00    +0.000 A 
ATOM     11  C   UNL     1      36.723  -3.703  15.542  0.00  0.00    +0.000 A 
ENDBRANCH   5   6
BRANCH   5  12
ATOM     12  C   UNL     1      39.079  -1.450  14.548  0.00  0.00    +0.000 A 
ATOM     13  C   UNL     1      38.757  -1.645  13.240  0.00  0.00    +0.000 A 
ATOM     14  C   UNL     1      39.691  -1.493  12.247  0.00  0.00    +0.000 A 
ATOM     15  C   UNL     1      40.962  -1.143  12.568  0.00  0.00    +0.000 A 
ATOM     16  C   UNL     1      41.329  -0.937  13.876  0.00  0.00    +0.000 A 
ATOM     17  C   UNL     1      40.366  -1.096  14.878  0.00  0.00    +0.000 A 
ENDBRANCH   5  12
ENDBRANCH   3   4
BRANCH   1  18
ATOM     18  C   UNL     1      36.710   3.094  16.328  0.00  0.00    +0.000 C 
BRANCH  18  21
ATOM     19  C   UNL     1      38.471   4.872  16.637  0.00  0.00    +0.000 C 
ATOM     20  O   UNL     1      38.507   5.105  15.405  0.00  0.00    +0.000 OA
ATOM     21  N   UNL     1      37.582   3.880  17.098  0.00  0.00    +0.000 NA
BRANCH  19  25
ATOM     22  C   UNL     1      40.984   7.056  19.262  0.00  0.00    +0.000 A 
ATOM     23  C   UNL     1      41.522   6.525  18.087  0.00  0.00    +0.000 A 
ATOM     24  C   UNL     1      40.665   5.816  17.253  0.00  0.00    +0.000 A 
ATOM     25  C   UNL     1      39.340   5.630  17.548  0.00  0.00    +0.000 A 
ATOM     26  C   UNL     1      38.845   6.170  18.717  0.00  0.00    +0.000 A 
ATOM     27  C   UNL     1      39.666   6.889  19.586  0.00  0.00    +0.000 A 
BRANCH  22  29
ATOM     28  C   UNL     1      42.052   9.150  19.926  0.00  0.00    +0.000 C 
ATOM     29  O   UNL     1      41.830   7.773  20.111  0.00  0.00    +0.000 OA
ENDBRANCH  22  29
BRANCH  27  30
ATOM     30  O   UNL     1      39.191   7.441  20.765  0.00  0.00    +0.000 OA
ATOM     31  C   UNL     1      38.372   8.588  20.800  0.00  0.00    +0.000 C 
ENDBRANCH  27  30
ENDBRANCH  19  25
ENDBRANCH  18  21
ENDBRANCH   1  18
TORSDOF 8
ENDMDL
MODEL 7
REMARK VINA RESULT:      -7.7      1.548      1.881
REMARK  Name = 
REMARK  8 active torsions:
REMARK  status: ('A' for Active; 'I' for Inactive)
REMARK    1  A    between atoms: O_2  and  C_3
REMARK    2  A    between atoms: C_6  and  C_7
REMARK    3  A    between atoms: N_9  and  C_10
REMARK    4  A    between atoms: C_10  and  C_11
REMARK    5  A    between atoms: N_13  and  N_14
REMARK    6  A    between atoms: C_15  and  C_16
REMARK    7  A    between atoms: C_15  and  C_22
REMARK    8  A    between atoms: C_29  and  O_30
REMARK                            x       y       z     vdW  Elec       q    Type
REMARK                         _______ _______ _______ _____ _____    ______ ____
ROOT
ATOM      1  C   UNL     1      38.803   4.830  17.536  0.00  0.00    +0.000 C 
ATOM      2  O   UNL     1      38.658   4.284  18.670  0.00  0.00    +0.000 OA
ATOM      3  N   UNL     1      39.866   5.748  17.386  0.00  0.00    +0.000 NA
ENDROOT
BRANCH   3   4
ATOM      4  N   UNL     1      40.753   6.115  18.360  0.00  0.00    +0.000 NA
ATOM      5  C   UNL     1      40.748   7.056  19.185  0.00  0.00    +0.000 C 
BRANCH   5   6
ATOM      6  C   UNL     1      41.878   7.173  20.118  0.00  0.00    +0.000 A 
ATOM      7  C   UNL     1      42.325   6.055  20.754  0.00  0.00    +0.000 A 
ATOM      8  C   UNL     1      43.398   6.165  21.640  0.00  0.00    +0.000 A 
ATOM      9  C   UNL     1      43.977   7.387  21.849  0.00  0.00    +0.000 A 
ATOM     10  C   UNL     1      43.506   8.492  21.195  0.00  0.00    +0.000 A 
ATOM     11  C   UNL     1      42.463   8.382  20.335  0.00  0.00    +0.000 A 
ENDBRANCH   5   6
BRANCH   5  12
ATOM     12  C   UNL     1      39.679   8.055  19.277  0.00  0.00    +0.000 A 
ATOM     13  C   UNL     1      38.789   7.961  20.303  0.00  0.00    +0.000 A 
ATOM     14  C   UNL     1      37.767   8.865  20.444  0.00  0.00    +0.000 A 
ATOM     15  C   UNL     1      37.635   9.874  19.546  0.00  0.00    +0.000 A 
ATOM     16  C   UNL     1      38.511  10.005  18.496  0.00  0.00    +0.000 A 
ATOM     17  C   UNL     1      39.548   9.076  18.365  0.00  0.00    +0.000 A 
ENDBRANCH   5  12
ENDBRANCH   3   4
BRANCH   1  18
ATOM     18  C   UNL     1      37.830   4.433  16.505  0.00  0.00    +0.000 C 
BRANCH  18  21
ATOM     19  C   UNL     1      36.928   2.420  15.285  0.00  0.00    +0.000 C 
ATOM     20  O   UNL     1      36.665   3.106  14.268  0.00  0.00    +0.000 OA
ATOM     21  N   UNL     1      37.506   3.072  16.392  0.00  0.00    +0.000 NA
BRANCH  19  25
ATOM     22  C   UNL     1      36.070  -1.732  15.303  0.00  0.00    +0.000 A 
ATOM     23  C   UNL     1      35.449  -0.904  16.241  0.00  0.00    +0.000 A 
ATOM     24  C   UNL     1      35.756   0.452  16.201  0.00  0.00    +0.000 A 
ATOM     25  C   UNL     1      36.632   0.981  15.289  0.00  0.00    +0.000 A 
ATOM     26  C   UNL     1      37.224   0.131  14.379  0.00  0.00    +0.000 A 
ATOM     27  C   UNL     1      36.948  -1.237  14.378  0.00  0.00    +0.000 A 
BRANCH  22  29
ATOM     28  C   UNL     1      34.463  -3.551  15.568  0.00  0.00    +0.000 C 
ATOM     29  O   UNL     1      35.772  -3.097  15.327  0.00  0.00    +0.000 OA
ENDBRANCH  22  29
BRANCH  27  30
ATOM     30  O   UNL     1      37.531  -2.109  13.474  0.00  0.00    +0.000 OA
ATOM     31  C   UNL     1      38.772  -1.856  12.855  0.00  0.00    +0.000 C 
ENDBRANCH  27  30
ENDBRANCH  19  25
ENDBRANCH  18  21
ENDBRANCH   1  18
TORSDOF 8
ENDMDL
MODEL 8
REMARK VINA RESULT:      -7.6      2.583      9.812
REMARK  Name = 
REMARK  8 active torsions:
REMARK  status: ('A' for Active; 'I' for Inactive)
REMARK    1  A    between atoms: O_2  and  C_3
REMARK    2  A    between atoms: C_6  and  C_7
REMARK    3  A    between atoms: N_9  and  C_10
REMARK    4  A    between atoms: C_10  and  C_11
REMARK    5  A    between atoms: N_13  and  N_14
REMARK    6  A    between atoms: C_15  and  C_16
REMARK    7  A    between atoms: C_15  and  C_22
REMARK    8  A    between atoms: C_29  and  O_30
REMARK                            x       y       z     vdW  Elec       q    Type
REMARK                         _______ _______ _______ _____ _____    ______ ____
ROOT
ATOM      1  C   UNL     1      38.028   0.163  13.576  0.00  0.00    +0.000 C 
ATOM      2  O   UNL     1      37.078  -0.000  12.754  0.00  0.00    +0.000 OA
ATOM      3  N   UNL     1      38.193  -0.812  14.585  0.00  0.00    +0.000 NA
ENDROOT
BRANCH   3   4
ATOM      4  N   UNL     1      37.412  -1.920  14.765  0.00  0.00    +0.000 NA
ATOM      5  C   UNL     1      36.591  -2.228  15.658  0.00  0.00    +0.000 C 
BRANCH   5   6
ATOM      6  C   UNL     1      35.901  -3.522  15.556  0.00  0.00    +0.000 A 
ATOM      7  C   UNL     1      34.716  -3.586  14.888  0.00  0.00    +0.000 A 
ATOM      8  C   UNL     1      34.061  -4.815  14.790  0.00  0.00    +0.000 A 
ATOM      9  C   UNL     1      34.620  -5.924  15.362  0.00  0.00    +0.000 A 
ATOM     10  C   UNL     1      35.812  -5.829  16.026  0.00  0.00    +0.000 A 
ATOM     11  C   UNL     1      36.446  -4.634  16.120  0.00  0.00    +0.000 A 
ENDBRANCH   5   6
BRANCH   5  12
ATOM     12  C   UNL     1      36.274  -1.374  16.806  0.00  0.00    +0.000 A 
ATOM     13  C   UNL     1      36.848  -1.659  18.007  0.00  0.00    +0.000 A 
ATOM     14  C   UNL     1      36.591  -0.897  19.118  0.00  0.00    +0.000 A 
ATOM     15  C   UNL     1      35.750   0.164  19.024  0.00  0.00    +0.000 A 
ATOM     16  C   UNL     1      35.149   0.487  17.832  0.00  0.00    +0.000 A 
ATOM     17  C   UNL     1      35.420  -0.300  16.708  0.00  0.00    +0.000 A 
ENDBRANCH   5  12
ENDBRANCH   3   4
BRANCH   1  18
ATOM     18  C   UNL     1      38.848   1.369  13.374  0.00  0.00    +0.000 C 
BRANCH  18  21
ATOM     19  C   UNL     1      38.441   3.404  14.805  0.00  0.00    +0.000 C 
ATOM     20  O   UNL     1      37.538   3.812  14.036  0.00  0.00    +0.000 OA
ATOM     21  N   UNL     1      39.090   2.196  14.482  0.00  0.00    +0.000 NA
BRANCH  19  25
ATOM     22  C   UNL     1      39.438   5.656  18.256  0.00  0.00    +0.000 A 
ATOM     23  C   UNL     1      38.432   4.691  18.340  0.00  0.00    +0.000 A 
ATOM     24  C   UNL     1      38.135   3.974  17.186  0.00  0.00    +0.000 A 
ATOM     25  C   UNL     1      38.788   4.185  16.000  0.00  0.00    +0.000 A 
ATOM     26  C   UNL     1      39.777   5.147  15.958  0.00  0.00    +0.000 A 
ATOM     27  C   UNL     1      40.110   5.893  17.089  0.00  0.00    +0.000 A 
BRANCH  22  29
ATOM     28  C   UNL     1      39.020   7.534  19.760  0.00  0.00    +0.000 C 
ATOM     29  O   UNL     1      39.751   6.386  19.406  0.00  0.00    +0.000 OA
ENDBRANCH  22  29
BRANCH  27  30
ATOM     30  O   UNL     1      41.099   6.863  17.070  0.00  0.00    +0.000 OA
ATOM     31  C   UNL     1      42.465   6.571  17.264  0.00  0.00    +0.000 C 
ENDBRANCH  27  30
ENDBRANCH  19  25
ENDBRANCH  18  21
ENDBRANCH   1  18
TORSDOF 8
ENDMDL
MODEL 9
REMARK VINA RESULT:      -7.5      6.380     10.714
REMARK  Name = 
REMARK  8 active torsions:
REMARK  status: ('A' for Active; 'I' for Inactive)
REMARK    1  A    between atoms: O_2  and  C_3
REMARK    2  A    between atoms: C_6  and  C_7
REMARK    3  A    between atoms: N_9  and  C_10
REMARK    4  A    between atoms: C_10  and  C_11
REMARK    5  A    between atoms: N_13  and  N_14
REMARK    6  A    between atoms: C_15  and  C_16
REMARK    7  A    between atoms: C_15  and  C_22
REMARK    8  A    between atoms: C_29  and  O_30
REMARK                            x       y       z     vdW  Elec       q    Type
REMARK                         _______ _______ _______ _____ _____    ______ ____
ROOT
ATOM      1  C   UNL     1      43.857   6.332  21.624  0.00  0.00    +0.000 C 
ATOM      2  O   UNL     1      44.595   6.090  20.623  0.00  0.00    +0.000 OA
ATOM      3  N   UNL     1      42.459   6.317  21.423  0.00  0.00    +0.000 NA
ENDROOT
BRANCH   3   4
ATOM      4  N   UNL     1      41.821   6.073  20.237  0.00  0.00    +0.000 NA
ATOM      5  C   UNL     1      40.932   6.702  19.621  0.00  0.00    +0.000 C 
BRANCH   5   6
ATOM      6  C   UNL     1      40.453   6.160  18.342  0.00  0.00    +0.000 A 
ATOM      7  C   UNL     1      39.350   5.361  18.336  0.00  0.00    +0.000 A 
ATOM      8  C   UNL     1      38.895   4.846  17.121  0.00  0.00    +0.000 A 
ATOM      9  C   UNL     1      39.561   5.154  15.967  0.00  0.00    +0.000 A 
ATOM     10  C   UNL     1      40.665   5.960  16.004  0.00  0.00    +0.000 A 
ATOM     11  C   UNL     1      41.106   6.458  17.185  0.00  0.00    +0.000 A 
ENDBRANCH   5   6
BRANCH   5  12
ATOM     12  C   UNL     1      40.336   7.952  20.100  0.00  0.00    +0.000 A 
ATOM     13  C   UNL     1      39.042   7.935  20.523  0.00  0.00    +0.000 A 
ATOM     14  C   UNL     1      38.428   9.072  20.983  0.00  0.00    +0.000 A 
ATOM     15  C   UNL     1      39.118  10.240  21.019  0.00  0.00    +0.000 A 
ATOM     16  C   UNL     1      40.425  10.302  20.601  0.00  0.00    +0.000 A 
ATOM     17  C   UNL     1      41.038   9.134  20.135  0.00  0.00    +0.000 A 
ENDBRANCH   5  12
ENDBRANCH   3   4
BRANCH   1  18
ATOM     18  C   UNL     1      44.561   6.605  22.888  0.00  0.00    +0.000 C 
BRANCH  18  21
ATOM     19  C   UNL     1      44.521   5.303  25.046  0.00  0.00    +0.000 C 
ATOM     20  O   UNL     1      45.677   4.858  24.844  0.00  0.00    +0.000 OA
ATOM     21  N   UNL     1      43.967   6.169  24.082  0.00  0.00    +0.000 NA
BRANCH  19  25
ATOM     22  C   UNL     1      42.425   4.181  28.556  0.00  0.00    +0.000 A 
ATOM     23  C   UNL     1      43.522   3.420  28.145  0.00  0.00    +0.000 A 
ATOM     24  C   UNL     1      44.183   3.821  26.990  0.00  0.00    +0.000 A 
ATOM     25  C   UNL     1      43.794   4.916  26.262  0.00  0.00    +0.000 A 
ATOM     26  C   UNL     1      42.706   5.642  26.701  0.00  0.00    +0.000 A 
ATOM     27  C   UNL     1      42.011   5.279  27.855  0.00  0.00    +0.000 A 
BRANCH  22  29
ATOM     28  C   UNL     1      42.337   2.907  30.638  0.00  0.00    +0.000 C 
ATOM     29  O   UNL     1      41.750   3.793  29.717  0.00  0.00    +0.000 OA
ENDBRANCH  22  29
BRANCH  27  30
ATOM     30  O   UNL     1      40.916   5.993  28.314  0.00  0.00    +0.000 OA
ATOM     31  C   UNL     1      41.034   7.169  29.082  0.00  0.00    +0.000 C 
ENDBRANCH  27  30
ENDBRANCH  19  25
ENDBRANCH  18  21
ENDBRANCH   1  18
TORSDOF 8
ENDMDL
MODEL 10
REMARK VINA RESULT:      -7.4      5.836     10.086
REMARK  Name = 
REMARK  8 active torsions:
REMARK  status: ('A' for Active; 'I' for Inactive)
REMARK    1  A    between atoms: O_2  and  C_3
REMARK    2  A    between atoms: C_6  and  C_7
REMARK    3  A    between atoms: N_9  and  C_10
REMARK    4  A    between atoms: C_10  and  C_11
REMARK    5  A    between atoms: N_13  and  N_14
REMARK    6  A    between atoms: C_15  and  C_16
REMARK    7  A    between atoms: C_15  and  C_22
REMARK    8  A    between atoms: C_29  and  O_30
REMARK                            x       y       z     vdW  Elec       q    Type
REMARK                         _______ _______ _______ _____ _____    ______ ____
ROOT
ATOM      1  C   UNL     1      40.913  -0.413  13.647  0.00  0.00    +0.000 C 
ATOM      2  O   UNL     1      40.532   0.477  12.830  0.00  0.00    +0.000 OA
ATOM      3  N   UNL     1      40.089  -0.667  14.766  0.00  0.00    +0.000 NA
ENDROOT
BRANCH   3   4
ATOM      4  N   UNL     1      38.915  -0.031  15.058  0.00  0.00    +0.000 NA
ATOM      5  C   UNL     1      37.780  -0.465  15.359  0.00  0.00    +0.000 C 
BRANCH   5   6
ATOM      6  C   UNL     1      36.708   0.507  15.620  0.00  0.00    +0.000 A 
ATOM      7  C   UNL     1      36.472   1.489  14.708  0.00  0.00    +0.000 A 
ATOM      8  C   UNL     1      35.454   2.411  14.956  0.00  0.00    +0.000 A 
ATOM      9  C   UNL     1      34.717   2.310  16.104  0.00  0.00    +0.000 A 
ATOM     10  C   UNL     1      34.977   1.311  17.002  0.00  0.00    +0.000 A 
ATOM     11  C   UNL     1      35.967   0.417  16.758  0.00  0.00    +0.000 A 
ENDBRANCH   5   6
BRANCH   5  12
ATOM     12  C   UNL     1      37.453  -1.889  15.465  0.00  0.00    +0.000 A 
ATOM     13  C   UNL     1      36.701  -2.458  14.484  0.00  0.00    +0.000 A 
ATOM     14  C   UNL     1      36.362  -3.787  14.527  0.00  0.00    +0.000 A 
ATOM     15  C   UNL     1      36.781  -4.554  15.565  0.00  0.00    +0.000 A 
ATOM     16  C   UNL     1      37.541  -4.019  16.577  0.00  0.00    +0.000 A 
ATOM     17  C   UNL     1      37.879  -2.663  16.519  0.00  0.00    +0.000 A 
ENDBRANCH   5  12
ENDBRANCH   3   4
BRANCH   1  18
ATOM     18  C   UNL     1      42.187  -1.077  13.323  0.00  0.00    +0.000 C 
BRANCH  18  21
ATOM     19  C   UNL     1      44.157  -0.532  14.799  0.00  0.00    +0.000 C 
ATOM     20  O   UNL     1      44.361   0.548  14.193  0.00  0.00    +0.000 OA
ATOM     21  N   UNL     1      43.081  -1.337  14.372  0.00  0.00    +0.000 NA
BRANCH  19  25
ATOM     22  C   UNL     1      46.675  -1.638  18.025  0.00  0.00    +0.000 A 
ATOM     23  C   UNL     1      46.232  -0.317  17.928  0.00  0.00    +0.000 A 
ATOM     24  C   UNL     1      45.408   0.006  16.856  0.00  0.00    +0.000 A 
ATOM     25  C   UNL     1      45.029  -0.917  15.916  0.00  0.00    +0.000 A 
ATOM     26  C   UNL     1      45.486  -2.212  16.046  0.00  0.00    +0.000 A 
ATOM     27  C   UNL     1      46.316  -2.584  17.105  0.00  0.00    +0.000 A 
BRANCH  22  29
ATOM     28  C   UNL     1      47.100  -1.763  20.427  0.00  0.00    +0.000 C 
ATOM     29  O   UNL     1      47.504  -1.980  19.097  0.00  0.00    +0.000 OA
ENDBRANCH  22  29
BRANCH  27  30
ATOM     30  O   UNL     1      46.787  -3.878  17.256  0.00  0.00    +0.000 OA
ATOM     31  C   UNL     1      46.752  -4.833  16.220  0.00  0.00    +0.000 C 
ENDBRANCH  27  30
ENDBRANCH  19  25
ENDBRANCH  18  21
ENDBRANCH   1  18
TORSDOF 8
ENDMDL
