MODEL 1
REMARK VINA RESULT:      -8.6      0.000      0.000
REMARK  Name = 
REMARK  2 active torsions:
REMARK  status: ('A' for Active; 'I' for Inactive)
REMARK    1  A    between atoms: C_3  and  C_4
REMARK    2  A    between atoms: C_4  and  C_5
REMARK                            x       y       z     vdW  Elec       q    Type
REMARK                         _______ _______ _______ _____ _____    ______ ____
ROOT
ATOM      1  N   UNL     1      15.451  11.850  37.513  0.00  0.00    +0.000 NA
ATOM      2  N   UNL     1      15.734  11.524  36.159  0.00  0.00    +0.000 N 
ATOM      3  C   UNL     1      16.624  10.560  35.950  0.00  0.00    +0.000 A 
ATOM      4  N   UNL     1      16.884  10.262  34.667  0.00  0.00    +0.000 NA
ATOM      5  C   UNL     1      16.253  10.927  33.642  0.00  0.00    +0.000 A 
ATOM      6  S   UNL     1      16.328  10.821  31.939  0.00  0.00    +0.000 S 
ATOM      7  C   UNL     1      15.207  12.026  31.528  0.00  0.00    +0.000 A 
ATOM      8  C   UNL     1      14.792  12.491  32.737  0.00  0.00    +0.000 A 
ATOM      9  C   UNL     1      15.336  11.920  33.849  0.00  0.00    +0.000 A 
ATOM     10  C   UNL     1      15.083  12.214  35.210  0.00  0.00    +0.000 A 
ATOM     11  O   UNL     1      14.257  13.110  35.554  0.00  0.00    +0.000 OA
ATOM     12  C   UNL     1      13.770  13.588  32.421  0.00  0.00    +0.000 C 
ATOM     13  C   UNL     1      14.253  14.091  31.078  0.00  0.00    +0.000 C 
ATOM     14  C   UNL     1      14.523  12.747  30.389  0.00  0.00    +0.000 C 
ENDROOT
BRANCH   3  15
ATOM     15  C   UNL     1      17.278   9.872  37.076  0.00  0.00    +0.000 C 
BRANCH  15  16
ATOM     16  C   UNL     1      18.638  10.367  37.330  0.00  0.00    +0.000 A 
ATOM     17  C   UNL     1      18.933  11.509  38.047  0.00  0.00    +0.000 A 
ATOM     18  C   UNL     1      20.256  11.917  38.248  0.00  0.00    +0.000 A 
ATOM     19  C   UNL     1      21.282  11.165  37.719  0.00  0.00    +0.000 A 
ATOM     20  C   UNL     1      21.011  10.020  36.998  0.00  0.00    +0.000 A 
ATOM     21  C   UNL     1      19.700   9.649  36.821  0.00  0.00    +0.000 A 
ENDBRANCH  15  16
ENDBRANCH   3  15
TORSDOF 2
ENDMDL
MODEL 2
REMARK VINA RESULT:      -6.9     20.847     22.095
REMARK  Name = 
REMARK  2 active torsions:
REMARK  status: ('A' for Active; 'I' for Inactive)
REMARK    1  A    between atoms: C_3  and  C_4
REMARK    2  A    between atoms: C_4  and  C_5
REMARK                            x       y       z     vdW  Elec       q    Type
REMARK                         _______ _______ _______ _____ _____    ______ ____
ROOT
ATOM      1  N   UNL     1      17.729  -6.194  27.003  0.00  0.00    +0.000 NA
ATOM      2  N   UNL     1      18.797  -7.085  26.710  0.00  0.00    +0.000 N 
ATOM      3  C   UNL     1      18.715  -8.306  27.225  0.00  0.00    +0.000 A 
ATOM      4  N   UNL     1      19.730  -9.138  26.944  0.00  0.00    +0.000 NA
ATOM      5  C   UNL     1      20.785  -8.729  26.162  0.00  0.00    +0.000 A 
ATOM      6  S   UNL     1      22.212  -9.490  25.608  0.00  0.00    +0.000 S 
ATOM      7  C   UNL     1      22.889  -8.212  24.720  0.00  0.00    +0.000 A 
ATOM      8  C   UNL     1      21.982  -7.210  24.873  0.00  0.00    +0.000 A 
ATOM      9  C   UNL     1      20.877  -7.474  25.628  0.00  0.00    +0.000 A 
ATOM     10  C   UNL     1      19.795  -6.619  25.942  0.00  0.00    +0.000 A 
ATOM     11  O   UNL     1      19.743  -5.427  25.517  0.00  0.00    +0.000 OA
ATOM     12  C   UNL     1      22.549  -6.026  24.084  0.00  0.00    +0.000 C 
ATOM     13  C   UNL     1      24.039  -6.276  24.166  0.00  0.00    +0.000 C 
ATOM     14  C   UNL     1      24.056  -7.780  23.863  0.00  0.00    +0.000 C 
ENDROOT
BRANCH   3  15
ATOM     15  C   UNL     1      17.566  -8.703  28.058  0.00  0.00    +0.000 C 
BRANCH  15  16
ATOM     16  C   UNL     1      17.958  -9.535  29.204  0.00  0.00    +0.000 A 
ATOM     17  C   UNL     1      18.969  -9.219  30.090  0.00  0.00    +0.000 A 
ATOM     18  C   UNL     1      19.285 -10.063  31.160  0.00  0.00    +0.000 A 
ATOM     19  C   UNL     1      18.574 -11.230  31.331  0.00  0.00    +0.000 A 
ATOM     20  C   UNL     1      17.560 -11.568  30.458  0.00  0.00    +0.000 A 
ATOM     21  C   UNL     1      17.277 -10.715  29.419  0.00  0.00    +0.000 A 
ENDBRANCH  15  16
ENDBRANCH   3  15
TORSDOF 2
ENDMDL
MODEL 3
REMARK VINA RESULT:      -6.9     20.990     22.435
REMARK  Name = 
REMARK  2 active torsions:
REMARK  status: ('A' for Active; 'I' for Inactive)
REMARK    1  A    between atoms: C_3  and  C_4
REMARK    2  A    between atoms: C_4  and  C_5
REMARK                            x       y       z     vdW  Elec       q    Type
REMARK                         _______ _______ _______ _____ _____    ______ ____
ROOT
ATOM      1  N   UNL     1      17.936  -5.656  26.734  0.00  0.00    +0.000 NA
ATOM      2  N   UNL     1      18.923  -6.646  26.480  0.00  0.00    +0.000 N 
ATOM      3  C   UNL     1      18.705  -7.853  26.989  0.00  0.00    +0.000 A 
ATOM      4  N   UNL     1      19.645  -8.780  26.743  0.00  0.00    +0.000 NA
ATOM      5  C   UNL     1      20.763  -8.476  26.002  0.00  0.00    +0.000 A 
ATOM      6  S   UNL     1      22.130  -9.371  25.500  0.00  0.00    +0.000 S 
ATOM      7  C   UNL     1      22.959  -8.165  24.640  0.00  0.00    +0.000 A 
ATOM      8  C   UNL     1      22.148  -7.081  24.762  0.00  0.00    +0.000 A 
ATOM      9  C   UNL     1      20.996  -7.236  25.474  0.00  0.00    +0.000 A 
ATOM     10  C   UNL     1      19.989  -6.280  25.751  0.00  0.00    +0.000 A 
ATOM     11  O   UNL     1      20.069  -5.090  25.326  0.00  0.00    +0.000 OA
ATOM     12  C   UNL     1      22.855  -5.957  23.998  0.00  0.00    +0.000 C 
ATOM     13  C   UNL     1      24.310  -6.350  24.133  0.00  0.00    +0.000 C 
ATOM     14  C   UNL     1      24.194  -7.849  23.829  0.00  0.00    +0.000 C 
ENDROOT
BRANCH   3  15
ATOM     15  C   UNL     1      17.494  -8.138  27.777  0.00  0.00    +0.000 C 
BRANCH  15  16
ATOM     16  C   UNL     1      16.535  -8.987  27.057  0.00  0.00    +0.000 A 
ATOM     17  C   UNL     1      16.279 -10.308  27.362  0.00  0.00    +0.000 A 
ATOM     18  C   UNL     1      15.350 -11.055  26.630  0.00  0.00    +0.000 A 
ATOM     19  C   UNL     1      14.680 -10.459  25.584  0.00  0.00    +0.000 A 
ATOM     20  C   UNL     1      14.920  -9.139  25.260  0.00  0.00    +0.000 A 
ATOM     21  C   UNL     1      15.838  -8.436  26.001  0.00  0.00    +0.000 A 
ENDBRANCH  15  16
ENDBRANCH   3  15
TORSDOF 2
ENDMDL
MODEL 4
REMARK VINA RESULT:      -6.4     20.126     22.068
REMARK  Name = 
REMARK  2 active torsions:
REMARK  status: ('A' for Active; 'I' for Inactive)
REMARK    1  A    between atoms: C_3  and  C_4
REMARK    2  A    between atoms: C_4  and  C_5
REMARK                            x       y       z     vdW  Elec       q    Type
REMARK                         _______ _______ _______ _____ _____    ______ ____
ROOT
ATOM      1  N   UNL     1      26.782  23.058  23.478  0.00  0.00    +0.000 NA
ATOM      2  N   UNL     1      28.134  23.328  23.820  0.00  0.00    +0.000 N 
ATOM      3  C   UNL     1      28.904  23.833  22.863  0.00  0.00    +0.000 A 
ATOM      4  N   UNL     1      30.180  24.083  23.198  0.00  0.00    +0.000 NA
ATOM      5  C   UNL     1      30.643  23.825  24.468  0.00  0.00    +0.000 A 
ATOM      6  S   UNL     1      32.159  24.011  25.234  0.00  0.00    +0.000 S 
ATOM      7  C   UNL     1      31.768  23.432  26.781  0.00  0.00    +0.000 A 
ATOM      8  C   UNL     1      30.453  23.103  26.668  0.00  0.00    +0.000 A 
ATOM      9  C   UNL     1      29.857  23.306  25.458  0.00  0.00    +0.000 A 
ATOM     10  C   UNL     1      28.519  23.052  25.077  0.00  0.00    +0.000 A 
ATOM     11  O   UNL     1      27.675  22.571  25.890  0.00  0.00    +0.000 OA
ATOM     12  C   UNL     1      30.048  22.572  28.046  0.00  0.00    +0.000 C 
ATOM     13  C   UNL     1      31.353  22.009  28.564  0.00  0.00    +0.000 C 
ATOM     14  C   UNL     1      32.294  23.155  28.170  0.00  0.00    +0.000 C 
ENDROOT
BRANCH   3  15
ATOM     15  C   UNL     1      28.369  24.094  21.516  0.00  0.00    +0.000 C 
BRANCH  15  16
ATOM     16  C   UNL     1      28.438  25.514  21.144  0.00  0.00    +0.000 A 
ATOM     17  C   UNL     1      29.430  26.068  20.360  0.00  0.00    +0.000 A 
ATOM     18  C   UNL     1      29.430  27.432  20.047  0.00  0.00    +0.000 A 
ATOM     19  C   UNL     1      28.421  28.235  20.531  0.00  0.00    +0.000 A 
ATOM     20  C   UNL     1      27.419  27.703  21.317  0.00  0.00    +0.000 A 
ATOM     21  C   UNL     1      27.451  26.360  21.604  0.00  0.00    +0.000 A 
ENDBRANCH  15  16
ENDBRANCH   3  15
TORSDOF 2
ENDMDL
MODEL 5
REMARK VINA RESULT:      -6.3     21.231     22.484
REMARK  Name = 
REMARK  2 active torsions:
REMARK  status: ('A' for Active; 'I' for Inactive)
REMARK    1  A    between atoms: C_3  and  C_4
REMARK    2  A    between atoms: C_4  and  C_5
REMARK                            x       y       z     vdW  Elec       q    Type
REMARK                         _______ _______ _______ _____ _____    ______ ____
ROOT
ATOM      1  N   UNL     1      28.770  23.225  21.354  0.00  0.00    +0.000 NA
ATOM      2  N   UNL     1      28.624  24.532  21.892  0.00  0.00    +0.000 N 
ATOM      3  C   UNL     1      28.030  24.629  23.075  0.00  0.00    +0.000 A 
ATOM      4  N   UNL     1      27.897  25.869  23.573  0.00  0.00    +0.000 NA
ATOM      5  C   UNL     1      28.359  26.964  22.880  0.00  0.00    +0.000 A 
ATOM      6  S   UNL     1      28.365  28.644  23.190  0.00  0.00    +0.000 S 
ATOM      7  C   UNL     1      29.136  29.191  21.781  0.00  0.00    +0.000 A 
ATOM      8  C   UNL     1      29.376  28.043  21.091  0.00  0.00    +0.000 A 
ATOM      9  C   UNL     1      28.971  26.873  21.661  0.00  0.00    +0.000 A 
ATOM     10  C   UNL     1      29.096  25.555  21.161  0.00  0.00    +0.000 A 
ATOM     11  O   UNL     1      29.643  25.316  20.044  0.00  0.00    +0.000 OA
ATOM     12  C   UNL     1      30.077  28.484  19.802  0.00  0.00    +0.000 C 
ATOM     13  C   UNL     1      29.518  29.875  19.598  0.00  0.00    +0.000 C 
ATOM     14  C   UNL     1      29.637  30.405  21.034  0.00  0.00    +0.000 C 
ENDROOT
BRANCH   3  15
ATOM     15  C   UNL     1      27.550  23.431  23.785  0.00  0.00    +0.000 C 
BRANCH  15  16
ATOM     16  C   UNL     1      28.464  23.000  24.852  0.00  0.00    +0.000 A 
ATOM     17  C   UNL     1      29.835  22.915  24.721  0.00  0.00    +0.000 A 
ATOM     18  C   UNL     1      30.641  22.495  25.785  0.00  0.00    +0.000 A 
ATOM     19  C   UNL     1      30.053  22.159  26.984  0.00  0.00    +0.000 A 
ATOM     20  C   UNL     1      28.684  22.235  27.139  0.00  0.00    +0.000 A 
ATOM     21  C   UNL     1      27.924  22.652  26.073  0.00  0.00    +0.000 A 
ENDBRANCH  15  16
ENDBRANCH   3  15
TORSDOF 2
ENDMDL
MODEL 6
REMARK VINA RESULT:      -6.3     17.505     18.683
REMARK  Name = 
REMARK  2 active torsions:
REMARK  status: ('A' for Active; 'I' for Inactive)
REMARK    1  A    between atoms: C_3  and  C_4
REMARK    2  A    between atoms: C_4  and  C_5
REMARK                            x       y       z     vdW  Elec       q    Type
REMARK                         _______ _______ _______ _____ _____    ______ ____
ROOT
ATOM      1  N   UNL     1      25.305  24.669  24.791  0.00  0.00    +0.000 NA
ATOM      2  N   UNL     1      25.658  24.440  26.148  0.00  0.00    +0.000 N 
ATOM      3  C   UNL     1      26.536  23.473  26.383  0.00  0.00    +0.000 A 
ATOM      4  N   UNL     1      26.860  23.265  27.670  0.00  0.00    +0.000 NA
ATOM      5  C   UNL     1      26.303  24.024  28.672  0.00  0.00    +0.000 A 
ATOM      6  S   UNL     1      26.472  24.046  30.372  0.00  0.00    +0.000 S 
ATOM      7  C   UNL     1      25.401  25.308  30.748  0.00  0.00    +0.000 A 
ATOM      8  C   UNL     1      24.930  25.690  29.531  0.00  0.00    +0.000 A 
ATOM      9  C   UNL     1      25.399  25.022  28.439  0.00  0.00    +0.000 A 
ATOM     10  C   UNL     1      25.075  25.217  27.075  0.00  0.00    +0.000 A 
ATOM     11  O   UNL     1      24.251  26.107  26.708  0.00  0.00    +0.000 OA
ATOM     12  C   UNL     1      23.953  26.836  29.816  0.00  0.00    +0.000 C 
ATOM     13  C   UNL     1      23.461  26.493  31.205  0.00  0.00    +0.000 C 
ATOM     14  C   UNL     1      24.799  26.132  31.863  0.00  0.00    +0.000 C 
ENDROOT
BRANCH   3  15
ATOM     15  C   UNL     1      27.109  22.683  25.280  0.00  0.00    +0.000 C 
BRANCH  15  16
ATOM     16  C   UNL     1      28.529  22.981  25.046  0.00  0.00    +0.000 A 
ATOM     17  C   UNL     1      29.576  22.343  25.680  0.00  0.00    +0.000 A 
ATOM     18  C   UNL     1      30.905  22.683  25.405  0.00  0.00    +0.000 A 
ATOM     19  C   UNL     1      31.172  23.674  24.486  0.00  0.00    +0.000 A 
ATOM     20  C   UNL     1      30.141  24.327  23.841  0.00  0.00    +0.000 A 
ATOM     21  C   UNL     1      28.848  23.966  24.135  0.00  0.00    +0.000 A 
ENDBRANCH  15  16
ENDBRANCH   3  15
TORSDOF 2
ENDMDL
MODEL 7
REMARK VINA RESULT:      -6.2     17.684     18.683
REMARK  Name = 
REMARK  2 active torsions:
REMARK  status: ('A' for Active; 'I' for Inactive)
REMARK    1  A    between atoms: C_3  and  C_4
REMARK    2  A    between atoms: C_4  and  C_5
REMARK                            x       y       z     vdW  Elec       q    Type
REMARK                         _______ _______ _______ _____ _____    ______ ____
ROOT
ATOM      1  N   UNL     1      27.716  22.401  29.160  0.00  0.00    +0.000 NA
ATOM      2  N   UNL     1      27.172  23.091  28.043  0.00  0.00    +0.000 N 
ATOM      3  C   UNL     1      27.748  22.871  26.866  0.00  0.00    +0.000 A 
ATOM      4  N   UNL     1      27.226  23.529  25.819  0.00  0.00    +0.000 NA
ATOM      5  C   UNL     1      26.155  24.378  25.977  0.00  0.00    +0.000 A 
ATOM      6  S   UNL     1      25.252  25.355  24.905  0.00  0.00    +0.000 S 
ATOM      7  C   UNL     1      24.146  26.030  26.000  0.00  0.00    +0.000 A 
ATOM      8  C   UNL     1      24.505  25.476  27.189  0.00  0.00    +0.000 A 
ATOM      9  C   UNL     1      25.557  24.609  27.184  0.00  0.00    +0.000 A 
ATOM     10  C   UNL     1      26.128  23.903  28.269  0.00  0.00    +0.000 A 
ATOM     11  O   UNL     1      25.678  24.018  29.447  0.00  0.00    +0.000 OA
ATOM     12  C   UNL     1      23.530  26.056  28.218  0.00  0.00    +0.000 C 
ATOM     13  C   UNL     1      23.191  27.399  27.610  0.00  0.00    +0.000 C 
ATOM     14  C   UNL     1      22.969  26.966  26.155  0.00  0.00    +0.000 C 
ENDROOT
BRANCH   3  15
ATOM     15  C   UNL     1      28.894  21.954  26.740  0.00  0.00    +0.000 C 
BRANCH  15  16
ATOM     16  C   UNL     1      30.094  22.616  26.210  0.00  0.00    +0.000 A 
ATOM     17  C   UNL     1      30.471  22.603  24.883  0.00  0.00    +0.000 A 
ATOM     18  C   UNL     1      31.630  23.257  24.452  0.00  0.00    +0.000 A 
ATOM     19  C   UNL     1      32.409  23.925  25.371  0.00  0.00    +0.000 A 
ATOM     20  C   UNL     1      32.053  23.950  26.704  0.00  0.00    +0.000 A 
ATOM     21  C   UNL     1      30.907  23.298  27.091  0.00  0.00    +0.000 A 
ENDBRANCH  15  16
ENDBRANCH   3  15
TORSDOF 2
ENDMDL
MODEL 8
REMARK VINA RESULT:      -6.2     18.588     20.312
REMARK  Name = 
REMARK  2 active torsions:
REMARK  status: ('A' for Active; 'I' for Inactive)
REMARK    1  A    between atoms: C_3  and  C_4
REMARK    2  A    between atoms: C_4  and  C_5
REMARK                            x       y       z     vdW  Elec       q    Type
REMARK                         _______ _______ _______ _____ _____    ______ ____
ROOT
ATOM      1  N   UNL     1      30.495  22.283  24.601  0.00  0.00    +0.000 NA
ATOM      2  N   UNL     1      29.289  22.731  25.206  0.00  0.00    +0.000 N 
ATOM      3  C   UNL     1      28.363  23.229  24.396  0.00  0.00    +0.000 A 
ATOM      4  N   UNL     1      27.229  23.650  24.979  0.00  0.00    +0.000 NA
ATOM      5  C   UNL     1      27.057  23.561  26.341  0.00  0.00    +0.000 A 
ATOM      6  S   UNL     1      25.787  23.983  27.403  0.00  0.00    +0.000 S 
ATOM      7  C   UNL     1      26.480  23.508  28.878  0.00  0.00    +0.000 A 
ATOM      8  C   UNL     1      27.697  23.025  28.509  0.00  0.00    +0.000 A 
ATOM      9  C   UNL     1      28.006  23.050  27.182  0.00  0.00    +0.000 A 
ATOM     10  C   UNL     1      29.190  22.615  26.540  0.00  0.00    +0.000 A 
ATOM     11  O   UNL     1      30.156  22.119  27.191  0.00  0.00    +0.000 OA
ATOM     12  C   UNL     1      28.368  22.579  29.813  0.00  0.00    +0.000 C 
ATOM     13  C   UNL     1      27.737  23.507  30.827  0.00  0.00    +0.000 C 
ATOM     14  C   UNL     1      26.274  23.418  30.372  0.00  0.00    +0.000 C 
ENDROOT
BRANCH   3  15
ATOM     15  C   UNL     1      28.587  23.306  22.942  0.00  0.00    +0.000 C 
BRANCH  15  16
ATOM     16  C   UNL     1      28.490  24.679  22.426  0.00  0.00    +0.000 A 
ATOM     17  C   UNL     1      27.466  25.142  21.624  0.00  0.00    +0.000 A 
ATOM     18  C   UNL     1      27.443  26.465  21.170  0.00  0.00    +0.000 A 
ATOM     19  C   UNL     1      28.462  27.320  21.530  0.00  0.00    +0.000 A 
ATOM     20  C   UNL     1      29.496  26.879  22.329  0.00  0.00    +0.000 A 
ATOM     21  C   UNL     1      29.486  25.573  22.757  0.00  0.00    +0.000 A 
ENDBRANCH  15  16
ENDBRANCH   3  15
TORSDOF 2
ENDMDL
MODEL 9
REMARK VINA RESULT:      -6.1     18.379     20.199
REMARK  Name = 
REMARK  2 active torsions:
REMARK  status: ('A' for Active; 'I' for Inactive)
REMARK    1  A    between atoms: C_3  and  C_4
REMARK    2  A    between atoms: C_4  and  C_5
REMARK                            x       y       z     vdW  Elec       q    Type
REMARK                         _______ _______ _______ _____ _____    ______ ____
ROOT
ATOM      1  N   UNL     1      25.618  23.475  25.558  0.00  0.00    +0.000 NA
ATOM      2  N   UNL     1      26.974  23.294  25.943  0.00  0.00    +0.000 N 
ATOM      3  C   UNL     1      27.860  23.155  24.963  0.00  0.00    +0.000 A 
ATOM      4  N   UNL     1      29.137  22.983  25.339  0.00  0.00    +0.000 NA
ATOM      5  C   UNL     1      29.488  22.957  26.668  0.00  0.00    +0.000 A 
ATOM      6  S   UNL     1      30.970  22.766  27.498  0.00  0.00    +0.000 S 
ATOM      7  C   UNL     1      30.415  22.869  29.098  0.00  0.00    +0.000 A 
ATOM      8  C   UNL     1      29.075  23.053  28.953  0.00  0.00    +0.000 A 
ATOM      9  C   UNL     1      28.583  23.100  27.683  0.00  0.00    +0.000 A 
ATOM     10  C   UNL     1      27.245  23.278  27.257  0.00  0.00    +0.000 A 
ATOM     11  O   UNL     1      26.298  23.423  28.086  0.00  0.00    +0.000 OA
ATOM     12  C   UNL     1      28.523  23.154  30.378  0.00  0.00    +0.000 C 
ATOM     13  C   UNL     1      29.510  22.314  31.160  0.00  0.00    +0.000 C 
ATOM     14  C   UNL     1      30.819  22.838  30.554  0.00  0.00    +0.000 C 
ENDROOT
BRANCH   3  15
ATOM     15  C   UNL     1      27.442  23.188  23.551  0.00  0.00    +0.000 C 
BRANCH  15  16
ATOM     16  C   UNL     1      27.944  24.372  22.839  0.00  0.00    +0.000 A 
ATOM     17  C   UNL     1      27.617  25.673  23.161  0.00  0.00    +0.000 A 
ATOM     18  C   UNL     1      28.135  26.752  22.435  0.00  0.00    +0.000 A 
ATOM     19  C   UNL     1      28.986  26.507  21.379  0.00  0.00    +0.000 A 
ATOM     20  C   UNL     1      29.326  25.214  21.039  0.00  0.00    +0.000 A 
ATOM     21  C   UNL     1      28.799  24.180  21.774  0.00  0.00    +0.000 A 
ENDBRANCH  15  16
ENDBRANCH   3  15
TORSDOF 2
ENDMDL
MODEL 10
REMARK VINA RESULT:      -6.1     19.297     21.260
REMARK  Name = 
REMARK  2 active torsions:
REMARK  status: ('A' for Active; 'I' for Inactive)
REMARK    1  A    between atoms: C_3  and  C_4
REMARK    2  A    between atoms: C_4  and  C_5
REMARK                            x       y       z     vdW  Elec       q    Type
REMARK                         _______ _______ _______ _____ _____    ______ ____
ROOT
ATOM      1  N   UNL     1      35.724   1.275  38.762  0.00  0.00    +0.000 NA
ATOM      2  N   UNL     1      35.032   1.031  37.545  0.00  0.00    +0.000 N 
ATOM      3  C   UNL     1      34.407   2.066  36.996  0.00  0.00    +0.000 A 
ATOM      4  N   UNL     1      33.756   1.824  35.847  0.00  0.00    +0.000 NA
ATOM      5  C   UNL     1      33.752   0.568  35.286  0.00  0.00    +0.000 A 
ATOM      6  S   UNL     1      33.053  -0.095  33.874  0.00  0.00    +0.000 S 
ATOM      7  C   UNL     1      33.584  -1.700  34.021  0.00  0.00    +0.000 A 
ATOM      8  C   UNL     1      34.301  -1.687  35.177  0.00  0.00    +0.000 A 
ATOM      9  C   UNL     1      34.393  -0.502  35.845  0.00  0.00    +0.000 A 
ATOM     10  C   UNL     1      35.069  -0.218  37.055  0.00  0.00    +0.000 A 
ATOM     11  O   UNL     1      35.707  -1.111  37.686  0.00  0.00    +0.000 OA
ATOM     12  C   UNL     1      34.807  -3.122  35.357  0.00  0.00    +0.000 C 
ATOM     13  C   UNL     1      33.733  -3.926  34.656  0.00  0.00    +0.000 C 
ATOM     14  C   UNL     1      33.568  -3.074  33.391  0.00  0.00    +0.000 C 
ENDROOT
BRANCH   3  15
ATOM     15  C   UNL     1      34.436   3.395  37.629  0.00  0.00    +0.000 C 
BRANCH  15  16
ATOM     16  C   UNL     1      34.933   4.443  36.726  0.00  0.00    +0.000 A 
ATOM     17  C   UNL     1      34.128   5.318  36.026  0.00  0.00    +0.000 A 
ATOM     18  C   UNL     1      34.675   6.291  35.183  0.00  0.00    +0.000 A 
ATOM     19  C   UNL     1      36.044   6.376  35.050  0.00  0.00    +0.000 A 
ATOM     20  C   UNL     1      36.869   5.511  35.739  0.00  0.00    +0.000 A 
ATOM     21  C   UNL     1      36.297   4.568  36.558  0.00  0.00    +0.000 A 
ENDBRANCH  15  16
ENDBRANCH   3  15
TORSDOF 2
ENDMDL
