MODEL 1
REMARK VINA RESULT:      -6.3      0.000      0.000
REMARK  Name = 
REMARK  3 active torsions:
REMARK  status: ('A' for Active; 'I' for Inactive)
REMARK    1  A    between atoms: C_9  and  O_10
REMARK    2  A    between atoms: O_10  and  C_11
REMARK    3  A    between atoms: C_11  and  C_13
REMARK                            x       y       z     vdW  Elec       q    Type
REMARK                         _______ _______ _______ _____ _____    ______ ____
ROOT
ATOM      1  C   UNL     1      28.740  25.217  28.565  0.00  0.00    +0.000 C 
ATOM      2  C   UNL     1      27.901  24.372  29.475  0.00  0.00    +0.000 C 
ATOM      3  C   UNL     1      27.874  24.803  30.888  0.00  0.00    +0.000 C 
ATOM      4  C   UNL     1      28.655  22.922  29.577  0.00  0.00    +0.000 C 
ATOM      5  C   UNL     1      27.318  22.037  29.937  0.00  0.00    +0.000 C 
ATOM      6  C   UNL     1      26.261  23.035  30.101  0.00  0.00    +0.000 C 
ATOM      7  C   UNL     1      26.663  23.977  28.974  0.00  0.00    +0.000 C 
ATOM      8  C   UNL     1      25.591  24.843  28.556  0.00  0.00    +0.000 C 
ATOM      9  C   UNL     1      26.922  22.866  27.781  0.00  0.00    +0.000 C 
ATOM     10  C   UNL     1      28.566  22.796  27.950  0.00  0.00    +0.000 C 
ENDROOT
BRANCH   9  11
ATOM     11  O   UNL     1      26.992  23.937  26.654  0.00  0.00    +0.000 OA
BRANCH  11  12
ATOM     12  C   UNL     1      26.700  23.482  25.400  0.00  0.00    +0.000 C 
ATOM     13  O   UNL     1      25.657  22.789  25.274  0.00  0.00    +0.000 OA
BRANCH  12  14
ATOM     14  C   UNL     1      27.532  23.761  24.215  0.00  0.00    +0.000 A 
ATOM     15  C   UNL     1      28.896  23.853  24.253  0.00  0.00    +0.000 A 
ATOM     16  C   UNL     1      29.631  24.116  23.114  0.00  0.00    +0.000 A 
ATOM     17  C   UNL     1      29.038  24.298  21.891  0.00  0.00    +0.000 A 
ATOM     18  O   UNL     1      29.729  24.564  20.725  0.00  0.00    +0.000 OA
ATOM     19  C   UNL     1      27.661  24.207  21.839  0.00  0.00    +0.000 A 
ATOM     20  C   UNL     1      26.939  23.943  22.988  0.00  0.00    +0.000 A 
ENDBRANCH  12  14
ENDBRANCH  11  12
ENDBRANCH   9  11
TORSDOF 3
ENDMDL
MODEL 2
REMARK VINA RESULT:      -6.1      1.863      6.593
REMARK  Name = 
REMARK  3 active torsions:
REMARK  status: ('A' for Active; 'I' for Inactive)
REMARK    1  A    between atoms: C_9  and  O_10
REMARK    2  A    between atoms: O_10  and  C_11
REMARK    3  A    between atoms: C_11  and  C_13
REMARK                            x       y       z     vdW  Elec       q    Type
REMARK                         _______ _______ _______ _____ _____    ______ ____
ROOT
ATOM      1  C   UNL     1      27.037  25.783  24.370  0.00  0.00    +0.000 C 
ATOM      2  C   UNL     1      27.761  25.568  23.075  0.00  0.00    +0.000 C 
ATOM      3  C   UNL     1      27.495  26.577  22.029  0.00  0.00    +0.000 C 
ATOM      4  C   UNL     1      27.120  24.214  22.412  0.00  0.00    +0.000 C 
ATOM      5  C   UNL     1      28.436  23.798  21.520  0.00  0.00    +0.000 C 
ATOM      6  C   UNL     1      29.361  24.916  21.703  0.00  0.00    +0.000 C 
ATOM      7  C   UNL     1      29.097  25.189  23.177  0.00  0.00    +0.000 C 
ATOM      8  C   UNL     1      30.154  25.935  23.809  0.00  0.00    +0.000 C 
ATOM      9  C   UNL     1      29.150  23.640  23.746  0.00  0.00    +0.000 C 
ATOM     10  C   UNL     1      27.514  23.398  23.773  0.00  0.00    +0.000 C 
ENDROOT
BRANCH   9  11
ATOM     11  O   UNL     1      29.202  24.079  25.239  0.00  0.00    +0.000 OA
BRANCH  11  12
ATOM     12  C   UNL     1      29.140  23.061  26.148  0.00  0.00    +0.000 C 
ATOM     13  O   UNL     1      29.879  22.064  25.937  0.00  0.00    +0.000 OA
BRANCH  12  14
ATOM     14  C   UNL     1      28.267  23.078  27.336  0.00  0.00    +0.000 A 
ATOM     15  C   UNL     1      26.954  23.458  27.305  0.00  0.00    +0.000 A 
ATOM     16  C   UNL     1      26.177  23.456  28.447  0.00  0.00    +0.000 A 
ATOM     17  C   UNL     1      26.677  23.075  29.665  0.00  0.00    +0.000 A 
ATOM     18  O   UNL     1      25.941  23.057  30.834  0.00  0.00    +0.000 OA
ATOM     19  C   UNL     1      28.001  22.688  29.710  0.00  0.00    +0.000 A 
ATOM     20  C   UNL     1      28.766  22.695  28.558  0.00  0.00    +0.000 A 
ENDBRANCH  12  14
ENDBRANCH  11  12
ENDBRANCH   9  11
TORSDOF 3
ENDMDL
MODEL 3
REMARK VINA RESULT:      -6.0     19.519     22.060
REMARK  Name = 
REMARK  3 active torsions:
REMARK  status: ('A' for Active; 'I' for Inactive)
REMARK    1  A    between atoms: C_9  and  O_10
REMARK    2  A    between atoms: O_10  and  C_11
REMARK    3  A    between atoms: C_11  and  C_13
REMARK                            x       y       z     vdW  Elec       q    Type
REMARK                         _______ _______ _______ _____ _____    ______ ____
ROOT
ATOM      1  C   UNL     1      18.009   9.708  42.996  0.00  0.00    +0.000 C 
ATOM      2  C   UNL     1      17.224   8.504  42.571  0.00  0.00    +0.000 C 
ATOM      3  C   UNL     1      16.321   7.945  43.598  0.00  0.00    +0.000 C 
ATOM      4  C   UNL     1      18.312   7.294  42.380  0.00  0.00    +0.000 C 
ATOM      5  C   UNL     1      17.437   6.422  41.295  0.00  0.00    +0.000 C 
ATOM      6  C   UNL     1      16.155   7.123  41.222  0.00  0.00    +0.000 C 
ATOM      7  C   UNL     1      16.675   8.552  41.292  0.00  0.00    +0.000 C 
ATOM      8  C   UNL     1      15.728   9.519  40.802  0.00  0.00    +0.000 C 
ATOM      9  C   UNL     1      17.907   8.439  40.199  0.00  0.00    +0.000 C 
ATOM     10  C   UNL     1      19.117   8.228  41.307  0.00  0.00    +0.000 C 
ENDROOT
BRANCH   9  11
ATOM     11  O   UNL     1      18.120   9.979  40.123  0.00  0.00    +0.000 OA
BRANCH  11  12
ATOM     12  C   UNL     1      18.741  10.425  38.990  0.00  0.00    +0.000 C 
ATOM     13  O   UNL     1      19.903  10.889  39.123  0.00  0.00    +0.000 OA
BRANCH  12  14
ATOM     14  C   UNL     1      18.124  10.387  37.651  0.00  0.00    +0.000 A 
ATOM     15  C   UNL     1      16.996  11.085  37.318  0.00  0.00    +0.000 A 
ATOM     16  C   UNL     1      16.456  11.017  36.048  0.00  0.00    +0.000 A 
ATOM     17  C   UNL     1      17.019  10.252  35.060  0.00  0.00    +0.000 A 
ATOM     18  O   UNL     1      16.517  10.151  33.777  0.00  0.00    +0.000 OA
ATOM     19  C   UNL     1      18.159   9.543  35.383  0.00  0.00    +0.000 A 
ATOM     20  C   UNL     1      18.687   9.621  36.658  0.00  0.00    +0.000 A 
ENDBRANCH  12  14
ENDBRANCH  11  12
ENDBRANCH   9  11
TORSDOF 3
ENDMDL
MODEL 4
REMARK VINA RESULT:      -5.9     13.341     17.559
REMARK  Name = 
REMARK  3 active torsions:
REMARK  status: ('A' for Active; 'I' for Inactive)
REMARK    1  A    between atoms: C_9  and  O_10
REMARK    2  A    between atoms: O_10  and  C_11
REMARK    3  A    between atoms: C_11  and  C_13
REMARK                            x       y       z     vdW  Elec       q    Type
REMARK                         _______ _______ _______ _____ _____    ______ ____
ROOT
ATOM      1  C   UNL     1      32.660  22.841   7.661  0.00  0.00    +0.000 C 
ATOM      2  C   UNL     1      33.719  22.013   8.326  0.00  0.00    +0.000 C 
ATOM      3  C   UNL     1      35.110  22.420   8.039  0.00  0.00    +0.000 C 
ATOM      4  C   UNL     1      33.646  20.533   7.628  0.00  0.00    +0.000 C 
ATOM      5  C   UNL     1      34.271  19.694   8.896  0.00  0.00    +0.000 C 
ATOM      6  C   UNL     1      34.662  20.729   9.853  0.00  0.00    +0.000 C 
ATOM      7  C   UNL     1      33.485  21.675   9.656  0.00  0.00    +0.000 C 
ATOM      8  C   UNL     1      33.309  22.589  10.755  0.00  0.00    +0.000 C 
ATOM      9  C   UNL     1      32.254  20.576   9.699  0.00  0.00    +0.000 C 
ATOM     10  C   UNL     1      32.073  20.440   8.060  0.00  0.00    +0.000 C 
ENDROOT
BRANCH   9  11
ATOM     11  O   UNL     1      31.148  21.664   9.822  0.00  0.00    +0.000 OA
BRANCH  11  12
ATOM     12  C   UNL     1      30.025  21.279  10.499  0.00  0.00    +0.000 C 
ATOM     13  O   UNL     1      29.593  20.119  10.271  0.00  0.00    +0.000 OA
BRANCH  12  14
ATOM     14  C   UNL     1      29.315  22.141  11.462  0.00  0.00    +0.000 A 
ATOM     15  C   UNL     1      27.994  22.476  11.346  0.00  0.00    +0.000 A 
ATOM     16  C   UNL     1      27.373  23.287  12.276  0.00  0.00    +0.000 A 
ATOM     17  C   UNL     1      28.044  23.797  13.359  0.00  0.00    +0.000 A 
ATOM     18  O   UNL     1      27.468  24.612  14.313  0.00  0.00    +0.000 OA
ATOM     19  C   UNL     1      29.377  23.466  13.486  0.00  0.00    +0.000 A 
ATOM     20  C   UNL     1      29.984  22.652  12.548  0.00  0.00    +0.000 A 
ENDBRANCH  12  14
ENDBRANCH  11  12
ENDBRANCH   9  11
TORSDOF 3
ENDMDL
MODEL 5
REMARK VINA RESULT:      -5.9      3.051      6.710
REMARK  Name = 
REMARK  3 active torsions:
REMARK  status: ('A' for Active; 'I' for Inactive)
REMARK    1  A    between atoms: C_9  and  O_10
REMARK    2  A    between atoms: O_10  and  C_11
REMARK    3  A    between atoms: C_11  and  C_13
REMARK                            x       y       z     vdW  Elec       q    Type
REMARK                         _______ _______ _______ _____ _____    ______ ____
ROOT
ATOM      1  C   UNL     1      29.646  26.929  23.466  0.00  0.00    +0.000 C 
ATOM      2  C   UNL     1      28.913  27.712  22.419  0.00  0.00    +0.000 C 
ATOM      3  C   UNL     1      29.379  29.101  22.227  0.00  0.00    +0.000 C 
ATOM      4  C   UNL     1      27.397  27.939  22.997  0.00  0.00    +0.000 C 
ATOM      5  C   UNL     1      26.659  28.103  21.538  0.00  0.00    +0.000 C 
ATOM      6  C   UNL     1      27.762  28.097  20.576  0.00  0.00    +0.000 C 
ATOM      7  C   UNL     1      28.631  27.035  21.235  0.00  0.00    +0.000 C 
ATOM      8  C   UNL     1      29.589  26.453  20.331  0.00  0.00    +0.000 C 
ATOM      9  C   UNL     1      27.471  25.905  21.552  0.00  0.00    +0.000 C 
ATOM     10  C   UNL     1      27.241  26.318  23.137  0.00  0.00    +0.000 C 
ENDROOT
BRANCH   9  11
ATOM     11  O   UNL     1      28.502  24.791  21.897  0.00  0.00    +0.000 OA
BRANCH  11  12
ATOM     12  C   UNL     1      28.007  23.743  22.622  0.00  0.00    +0.000 C 
ATOM     13  O   UNL     1      26.980  23.174  22.170  0.00  0.00    +0.000 OA
BRANCH  12  14
ATOM     14  C   UNL     1      28.609  23.262  23.878  0.00  0.00    +0.000 A 
ATOM     15  C   UNL     1      27.890  23.005  25.012  0.00  0.00    +0.000 A 
ATOM     16  C   UNL     1      28.501  22.554  26.166  0.00  0.00    +0.000 A 
ATOM     17  C   UNL     1      29.854  22.341  26.236  0.00  0.00    +0.000 A 
ATOM     18  O   UNL     1      30.510  21.892  27.366  0.00  0.00    +0.000 OA
ATOM     19  C   UNL     1      30.591  22.596  25.098  0.00  0.00    +0.000 A 
ATOM     20  C   UNL     1      29.965  23.047  23.951  0.00  0.00    +0.000 A 
ENDBRANCH  12  14
ENDBRANCH  11  12
ENDBRANCH   9  11
TORSDOF 3
ENDMDL
MODEL 6
REMARK VINA RESULT:      -5.8     20.676     22.890
REMARK  Name = 
REMARK  3 active torsions:
REMARK  status: ('A' for Active; 'I' for Inactive)
REMARK    1  A    between atoms: C_9  and  O_10
REMARK    2  A    between atoms: O_10  and  C_11
REMARK    3  A    between atoms: C_11  and  C_13
REMARK                            x       y       z     vdW  Elec       q    Type
REMARK                         _______ _______ _______ _____ _____    ______ ____
ROOT
ATOM      1  C   UNL     1      34.891   7.680  36.192  0.00  0.00    +0.000 C 
ATOM      2  C   UNL     1      35.437   6.539  36.996  0.00  0.00    +0.000 C 
ATOM      3  C   UNL     1      35.744   6.852  38.407  0.00  0.00    +0.000 C 
ATOM      4  C   UNL     1      36.924   6.220  36.387  0.00  0.00    +0.000 C 
ATOM      5  C   UNL     1      36.981   4.642  36.841  0.00  0.00    +0.000 C 
ATOM      6  C   UNL     1      35.768   4.453  37.636  0.00  0.00    +0.000 C 
ATOM      7  C   UNL     1      34.818   5.306  36.806  0.00  0.00    +0.000 C 
ATOM      8  C   UNL     1      33.432   4.996  37.043  0.00  0.00    +0.000 C 
ATOM      9  C   UNL     1      35.218   4.757  35.301  0.00  0.00    +0.000 C 
ATOM     10  C   UNL     1      36.241   5.999  34.919  0.00  0.00    +0.000 C 
ENDROOT
BRANCH   9  11
ATOM     11  O   UNL     1      33.995   5.432  34.616  0.00  0.00    +0.000 OA
BRANCH  11  12
ATOM     12  C   UNL     1      33.176   4.586  33.922  0.00  0.00    +0.000 C 
ATOM     13  O   UNL     1      32.132   5.084  33.425  0.00  0.00    +0.000 OA
BRANCH  12  14
ATOM     14  C   UNL     1      33.454   3.150  33.734  0.00  0.00    +0.000 A 
ATOM     15  C   UNL     1      33.859   2.608  32.546  0.00  0.00    +0.000 A 
ATOM     16  C   UNL     1      34.108   1.255  32.420  0.00  0.00    +0.000 A 
ATOM     17  C   UNL     1      33.964   0.389  33.474  0.00  0.00    +0.000 A 
ATOM     18  O   UNL     1      34.200  -0.970  33.397  0.00  0.00    +0.000 OA
ATOM     19  C   UNL     1      33.557   0.924  34.679  0.00  0.00    +0.000 A 
ATOM     20  C   UNL     1      33.312   2.280  34.789  0.00  0.00    +0.000 A 
ENDBRANCH  12  14
ENDBRANCH  11  12
ENDBRANCH   9  11
TORSDOF 3
ENDMDL
MODEL 7
REMARK VINA RESULT:      -5.8     21.041     22.683
REMARK  Name = 
REMARK  3 active torsions:
REMARK  status: ('A' for Active; 'I' for Inactive)
REMARK    1  A    between atoms: C_9  and  O_10
REMARK    2  A    between atoms: O_10  and  C_11
REMARK    3  A    between atoms: C_11  and  C_13
REMARK                            x       y       z     vdW  Elec       q    Type
REMARK                         _______ _______ _______ _____ _____    ______ ____
ROOT
ATOM      1  C   UNL     1      27.441   5.792  18.875  0.00  0.00    +0.000 C 
ATOM      2  C   UNL     1      27.642   6.113  17.424  0.00  0.00    +0.000 C 
ATOM      3  C   UNL     1      28.743   7.055  17.134  0.00  0.00    +0.000 C 
ATOM      4  C   UNL     1      26.328   6.974  16.960  0.00  0.00    +0.000 C 
ATOM      5  C   UNL     1      26.395   6.578  15.367  0.00  0.00    +0.000 C 
ATOM      6  C   UNL     1      27.638   5.818  15.238  0.00  0.00    +0.000 C 
ATOM      7  C   UNL     1      27.563   5.038  16.543  0.00  0.00    +0.000 C 
ATOM      8  C   UNL     1      28.396   3.864  16.545  0.00  0.00    +0.000 C 
ATOM      9  C   UNL     1      25.987   4.551  16.468  0.00  0.00    +0.000 C 
ATOM     10  C   UNL     1      25.382   5.735  17.451  0.00  0.00    +0.000 C 
ENDROOT
BRANCH   9  11
ATOM     11  O   UNL     1      26.138   3.532  17.635  0.00  0.00    +0.000 OA
BRANCH  11  12
ATOM     12  C   UNL     1      25.470   2.351  17.468  0.00  0.00    +0.000 C 
ATOM     13  O   UNL     1      26.169   1.329  17.240  0.00  0.00    +0.000 OA
BRANCH  12  14
ATOM     14  C   UNL     1      24.003   2.225  17.541  0.00  0.00    +0.000 A 
ATOM     15  C   UNL     1      23.200   3.108  18.209  0.00  0.00    +0.000 A 
ATOM     16  C   UNL     1      21.829   2.946  18.248  0.00  0.00    +0.000 A 
ATOM     17  C   UNL     1      21.202   1.899  17.623  0.00  0.00    +0.000 A 
ATOM     18  O   UNL     1      19.837   1.694  17.634  0.00  0.00    +0.000 OA
ATOM     19  C   UNL     1      22.002   1.001  16.945  0.00  0.00    +0.000 A 
ATOM     20  C   UNL     1      23.373   1.176  16.915  0.00  0.00    +0.000 A 
ENDBRANCH  12  14
ENDBRANCH  11  12
ENDBRANCH   9  11
TORSDOF 3
ENDMDL
MODEL 8
REMARK VINA RESULT:      -5.7      2.830      4.800
REMARK  Name = 
REMARK  3 active torsions:
REMARK  status: ('A' for Active; 'I' for Inactive)
REMARK    1  A    between atoms: C_9  and  O_10
REMARK    2  A    between atoms: O_10  and  C_11
REMARK    3  A    between atoms: C_11  and  C_13
REMARK                            x       y       z     vdW  Elec       q    Type
REMARK                         _______ _______ _______ _____ _____    ______ ____
ROOT
ATOM      1  C   UNL     1      26.200  26.116  24.469  0.00  0.00    +0.000 C 
ATOM      2  C   UNL     1      26.350  24.804  25.177  0.00  0.00    +0.000 C 
ATOM      3  C   UNL     1      25.426  24.588  26.310  0.00  0.00    +0.000 C 
ATOM      4  C   UNL     1      27.804  24.854  25.930  0.00  0.00    +0.000 C 
ATOM      5  C   UNL     1      28.054  23.230  25.969  0.00  0.00    +0.000 C 
ATOM      6  C   UNL     1      26.807  22.663  25.454  0.00  0.00    +0.000 C 
ATOM      7  C   UNL     1      26.527  23.687  24.364  0.00  0.00    +0.000 C 
ATOM      8  C   UNL     1      25.614  23.204  23.361  0.00  0.00    +0.000 C 
ATOM      9  C   UNL     1      28.032  23.775  23.691  0.00  0.00    +0.000 C 
ATOM     10  C   UNL     1      28.508  25.146  24.484  0.00  0.00    +0.000 C 
ENDROOT
BRANCH   9  11
ATOM     11  O   UNL     1      27.540  24.559  22.439  0.00  0.00    +0.000 OA
BRANCH  11  12
ATOM     12  C   UNL     1      28.521  24.934  21.565  0.00  0.00    +0.000 C 
ATOM     13  O   UNL     1      29.384  24.066  21.271  0.00  0.00    +0.000 OA
BRANCH  12  14
ATOM     14  C   UNL     1      28.611  26.278  20.964  0.00  0.00    +0.000 A 
ATOM     15  C   UNL     1      27.654  27.242  21.122  0.00  0.00    +0.000 A 
ATOM     16  C   UNL     1      27.785  28.488  20.538  0.00  0.00    +0.000 A 
ATOM     17  C   UNL     1      28.874  28.821  19.774  0.00  0.00    +0.000 A 
ATOM     18  O   UNL     1      29.049  30.051  19.170  0.00  0.00    +0.000 OA
ATOM     19  C   UNL     1      29.846  27.856  19.608  0.00  0.00    +0.000 A 
ATOM     20  C   UNL     1      29.701  26.615  20.198  0.00  0.00    +0.000 A 
ENDBRANCH  12  14
ENDBRANCH  11  12
ENDBRANCH   9  11
TORSDOF 3
ENDMDL
MODEL 9
REMARK VINA RESULT:      -5.7     21.874     24.221
REMARK  Name = 
REMARK  3 active torsions:
REMARK  status: ('A' for Active; 'I' for Inactive)
REMARK    1  A    between atoms: C_9  and  O_10
REMARK    2  A    between atoms: O_10  and  C_11
REMARK    3  A    between atoms: C_11  and  C_13
REMARK                            x       y       z     vdW  Elec       q    Type
REMARK                         _______ _______ _______ _____ _____    ______ ____
ROOT
ATOM      1  C   UNL     1      37.054   5.020  36.088  0.00  0.00    +0.000 C 
ATOM      2  C   UNL     1      35.894   5.963  35.984  0.00  0.00    +0.000 C 
ATOM      3  C   UNL     1      36.177   7.238  35.293  0.00  0.00    +0.000 C 
ATOM      4  C   UNL     1      35.575   6.467  37.509  0.00  0.00    +0.000 C 
ATOM      5  C   UNL     1      33.988   6.817  37.267  0.00  0.00    +0.000 C 
ATOM      6  C   UNL     1      33.794   6.623  35.830  0.00  0.00    +0.000 C 
ATOM      7  C   UNL     1      34.669   5.391  35.648  0.00  0.00    +0.000 C 
ATOM      8  C   UNL     1      34.365   4.659  34.445  0.00  0.00    +0.000 C 
ATOM      9  C   UNL     1      34.146   4.503  36.937  0.00  0.00    +0.000 C 
ATOM     10  C   UNL     1      35.387   4.905  37.953  0.00  0.00    +0.000 C 
ENDROOT
BRANCH   9  11
ATOM     11  O   UNL     1      34.843   3.197  36.454  0.00  0.00    +0.000 OA
BRANCH  11  12
ATOM     12  C   UNL     1      34.195   2.038  36.775  0.00  0.00    +0.000 C 
ATOM     13  O   UNL     1      33.747   1.942  37.947  0.00  0.00    +0.000 OA
BRANCH  12  14
ATOM     14  C   UNL     1      34.002   0.921  35.832  0.00  0.00    +0.000 A 
ATOM     15  C   UNL     1      33.544   1.081  34.553  0.00  0.00    +0.000 A 
ATOM     16  C   UNL     1      33.380   0.002  33.707  0.00  0.00    +0.000 A 
ATOM     17  C   UNL     1      33.668  -1.280  34.100  0.00  0.00    +0.000 A 
ATOM     18  O   UNL     1      33.521  -2.390  33.292  0.00  0.00    +0.000 OA
ATOM     19  C   UNL     1      34.133  -1.455  35.388  0.00  0.00    +0.000 A 
ATOM     20  C   UNL     1      34.291  -0.365  36.223  0.00  0.00    +0.000 A 
ENDBRANCH  12  14
ENDBRANCH  11  12
ENDBRANCH   9  11
TORSDOF 3
ENDMDL
MODEL 10
REMARK VINA RESULT:      -5.7      2.374      5.766
REMARK  Name = 
REMARK  3 active torsions:
REMARK  status: ('A' for Active; 'I' for Inactive)
REMARK    1  A    between atoms: C_9  and  O_10
REMARK    2  A    between atoms: O_10  and  C_11
REMARK    3  A    between atoms: C_11  and  C_13
REMARK                            x       y       z     vdW  Elec       q    Type
REMARK                         _______ _______ _______ _____ _____    ______ ____
ROOT
ATOM      1  C   UNL     1      29.666  25.054  27.159  0.00  0.00    +0.000 C 
ATOM      2  C   UNL     1      30.434  24.317  26.104  0.00  0.00    +0.000 C 
ATOM      3  C   UNL     1      31.899  24.500  26.147  0.00  0.00    +0.000 C 
ATOM      4  C   UNL     1      30.044  25.021  24.678  0.00  0.00    +0.000 C 
ATOM      5  C   UNL     1      30.347  23.713  23.730  0.00  0.00    +0.000 C 
ATOM      6  C   UNL     1      30.916  22.728  24.651  0.00  0.00    +0.000 C 
ATOM      7  C   UNL     1      30.029  23.007  25.857  0.00  0.00    +0.000 C 
ATOM      8  C   UNL     1      30.010  21.922  26.803  0.00  0.00    +0.000 C 
ATOM      9  C   UNL     1      28.563  23.057  25.100  0.00  0.00    +0.000 C 
ATOM     10  C   UNL     1      28.471  24.704  24.987  0.00  0.00    +0.000 C 
ENDROOT
BRANCH   9  11
ATOM     11  O   UNL     1      27.757  23.012  26.431  0.00  0.00    +0.000 OA
BRANCH  11  12
ATOM     12  C   UNL     1      26.439  23.356  26.326  0.00  0.00    +0.000 C 
ATOM     13  O   UNL     1      25.801  22.873  25.355  0.00  0.00    +0.000 OA
BRANCH  12  14
ATOM     14  C   UNL     1      25.749  24.245  27.278  0.00  0.00    +0.000 A 
ATOM     15  C   UNL     1      24.781  25.139  26.912  0.00  0.00    +0.000 A 
ATOM     16  C   UNL     1      24.162  25.951  27.842  0.00  0.00    +0.000 A 
ATOM     17  C   UNL     1      24.482  25.905  29.175  0.00  0.00    +0.000 A 
ATOM     18  O   UNL     1      23.893  26.696  30.142  0.00  0.00    +0.000 OA
ATOM     19  C   UNL     1      25.457  25.006  29.557  0.00  0.00    +0.000 A 
ATOM     20  C   UNL     1      26.067  24.200  28.614  0.00  0.00    +0.000 A 
ENDBRANCH  12  14
ENDBRANCH  11  12
ENDBRANCH   9  11
TORSDOF 3
ENDMDL
