MODEL 1
REMARK VINA RESULT:      -6.1      0.000      0.000
REMARK  Name = 
REMARK  2 active torsions:
REMARK  status: ('A' for Active; 'I' for Inactive)
REMARK    1  A    between atoms: N_11  and  C_12
REMARK    2  A    between atoms: C_12  and  C_13
REMARK                            x       y       z     vdW  Elec       q    Type
REMARK                         _______ _______ _______ _____ _____    ______ ____
ROOT
ATOM      1  C   UNL     1      29.442  28.989  23.694  0.00  0.00    +0.000 C 
ATOM      2  C   UNL     1      29.256  27.422  23.962  0.00  0.00    +0.000 C 
ATOM      3  C   UNL     1      27.954  27.562  24.981  0.00  0.00    +0.000 C 
ATOM      4  C   UNL     1      27.160  28.732  24.654  0.00  0.00    +0.000 C 
ATOM      5  C   UNL     1      27.182  29.219  23.237  0.00  0.00    +0.000 C 
ATOM      6  C   UNL     1      27.492  28.179  22.249  0.00  0.00    +0.000 C 
ATOM      7  C   UNL     1      28.338  27.048  22.672  0.00  0.00    +0.000 C 
ATOM      8  N   UNL     1      29.095  26.545  21.576  0.00  0.00    +0.000 NA
ATOM      9  C   UNL     1      29.086  25.147  21.537  0.00  0.00    +0.000 C 
ATOM     10  O   UNL     1      29.738  24.324  20.807  0.00  0.00    +0.000 OA
ATOM     11  N   UNL     1      28.196  24.711  22.530  0.00  0.00    +0.000 N 
ATOM     12  C   UNL     1      27.624  25.845  23.202  0.00  0.00    +0.000 C 
ATOM     13  O   UNL     1      26.710  25.794  24.059  0.00  0.00    +0.000 OA
ENDROOT
BRANCH  11  14
ATOM     14  C   UNL     1      27.723  23.353  22.911  0.00  0.00    +0.000 C 
BRANCH  14  15
ATOM     15  C   UNL     1      28.476  23.177  24.247  0.00  0.00    +0.000 A 
ATOM     16  C   UNL     1      29.890  23.148  23.905  0.00  0.00    +0.000 A 
ATOM     17  C   UNL     1      30.766  22.735  24.924  0.00  0.00    +0.000 A 
ATOM     18  C   UNL     1      30.300  22.385  26.176  0.00  0.00    +0.000 A 
ATOM     19  C   UNL     1      28.904  22.450  26.432  0.00  0.00    +0.000 A 
ATOM     20  C   UNL     1      28.041  22.862  25.414  0.00  0.00    +0.000 A 
ATOM     21 CL   UNL     1      26.314  23.054  25.755  0.00  0.00    +0.000 Cl
ENDBRANCH  14  15
ENDBRANCH  11  14
TORSDOF 2
ENDMDL
MODEL 2
REMARK VINA RESULT:      -6.0      4.159      6.415
REMARK  Name = 
REMARK  2 active torsions:
REMARK  status: ('A' for Active; 'I' for Inactive)
REMARK    1  A    between atoms: N_11  and  C_12
REMARK    2  A    between atoms: C_12  and  C_13
REMARK                            x       y       z     vdW  Elec       q    Type
REMARK                         _______ _______ _______ _____ _____    ______ ____
ROOT
ATOM      1  C   UNL     1      30.717  24.739  25.279  0.00  0.00    +0.000 C 
ATOM      2  C   UNL     1      29.342  24.600  26.086  0.00  0.00    +0.000 C 
ATOM      3  C   UNL     1      28.524  23.758  24.913  0.00  0.00    +0.000 C 
ATOM      4  C   UNL     1      29.433  22.947  24.124  0.00  0.00    +0.000 C 
ATOM      5  C   UNL     1      30.697  22.476  24.776  0.00  0.00    +0.000 C 
ATOM      6  C   UNL     1      30.615  22.368  26.237  0.00  0.00    +0.000 C 
ATOM      7  C   UNL     1      29.685  23.265  26.950  0.00  0.00    +0.000 C 
ATOM      8  N   UNL     1      30.167  23.556  28.258  0.00  0.00    +0.000 NA
ATOM      9  C   UNL     1      29.149  23.478  29.215  0.00  0.00    +0.000 C 
ATOM     10  O   UNL     1      29.139  23.789  30.455  0.00  0.00    +0.000 OA
ATOM     11  N   UNL     1      28.007  22.988  28.564  0.00  0.00    +0.000 N 
ATOM     12  C   UNL     1      28.303  22.741  27.180  0.00  0.00    +0.000 C 
ATOM     13  O   UNL     1      27.528  22.196  26.360  0.00  0.00    +0.000 OA
ENDROOT
BRANCH  11  14
ATOM     14  C   UNL     1      26.655  22.630  29.071  0.00  0.00    +0.000 C 
BRANCH  14  15
ATOM     15  C   UNL     1      26.053  24.042  29.235  0.00  0.00    +0.000 A 
ATOM     16  C   UNL     1      26.172  24.363  30.649  0.00  0.00    +0.000 A 
ATOM     17  C   UNL     1      25.458  25.489  31.092  0.00  0.00    +0.000 A 
ATOM     18  C   UNL     1      24.694  26.245  30.223  0.00  0.00    +0.000 A 
ATOM     19  C   UNL     1      24.638  25.870  28.854  0.00  0.00    +0.000 A 
ATOM     20  C   UNL     1      25.352  24.749  28.423  0.00  0.00    +0.000 A 
ATOM     21 CL   UNL     1      25.380  24.339  26.701  0.00  0.00    +0.000 Cl
ENDBRANCH  14  15
ENDBRANCH  11  14
TORSDOF 2
ENDMDL
MODEL 3
REMARK VINA RESULT:      -5.9      2.851      4.325
REMARK  Name = 
REMARK  2 active torsions:
REMARK  status: ('A' for Active; 'I' for Inactive)
REMARK    1  A    between atoms: N_11  and  C_12
REMARK    2  A    between atoms: C_12  and  C_13
REMARK                            x       y       z     vdW  Elec       q    Type
REMARK                         _______ _______ _______ _____ _____    ______ ____
ROOT
ATOM      1  C   UNL     1      28.844  26.907  22.938  0.00  0.00    +0.000 C 
ATOM      2  C   UNL     1      27.975  25.977  23.908  0.00  0.00    +0.000 C 
ATOM      3  C   UNL     1      27.101  25.228  22.712  0.00  0.00    +0.000 C 
ATOM      4  C   UNL     1      27.871  25.136  21.485  0.00  0.00    +0.000 C 
ATOM      5  C   UNL     1      29.364  25.090  21.596  0.00  0.00    +0.000 C 
ATOM      6  C   UNL     1      29.855  24.557  22.873  0.00  0.00    +0.000 C 
ATOM      7  C   UNL     1      29.012  24.735  24.071  0.00  0.00    +0.000 C 
ATOM      8  N   UNL     1      29.814  24.828  25.244  0.00  0.00    +0.000 NA
ATOM      9  C   UNL     1      29.293  24.062  26.291  0.00  0.00    +0.000 C 
ATOM     10  O   UNL     1      29.633  23.982  27.522  0.00  0.00    +0.000 OA
ATOM     11  N   UNL     1      28.212  23.333  25.772  0.00  0.00    +0.000 N 
ATOM     12  C   UNL     1      28.050  23.631  24.377  0.00  0.00    +0.000 C 
ATOM     13  O   UNL     1      27.247  23.058  23.602  0.00  0.00    +0.000 OA
ENDROOT
BRANCH  11  14
ATOM     14  C   UNL     1      27.324  22.308  26.383  0.00  0.00    +0.000 C 
BRANCH  14  15
ATOM     15  C   UNL     1      26.444  23.216  27.269  0.00  0.00    +0.000 A 
ATOM     16  C   UNL     1      25.676  24.042  26.350  0.00  0.00    +0.000 A 
ATOM     17  C   UNL     1      24.993  25.131  26.918  0.00  0.00    +0.000 A 
ATOM     18  C   UNL     1      25.051  25.390  28.274  0.00  0.00    +0.000 A 
ATOM     19  C   UNL     1      25.818  24.529  29.105  0.00  0.00    +0.000 A 
ATOM     20  C   UNL     1      26.492  23.449  28.532  0.00  0.00    +0.000 A 
ATOM     21 CL   UNL     1      27.358  22.307  29.571  0.00  0.00    +0.000 Cl
ENDBRANCH  14  15
ENDBRANCH  11  14
TORSDOF 2
ENDMDL
MODEL 4
REMARK VINA RESULT:      -5.9      2.747      4.073
REMARK  Name = 
REMARK  2 active torsions:
REMARK  status: ('A' for Active; 'I' for Inactive)
REMARK    1  A    between atoms: N_11  and  C_12
REMARK    2  A    between atoms: C_12  and  C_13
REMARK                            x       y       z     vdW  Elec       q    Type
REMARK                         _______ _______ _______ _____ _____    ______ ____
ROOT
ATOM      1  C   UNL     1      29.493  26.947  22.742  0.00  0.00    +0.000 C 
ATOM      2  C   UNL     1      28.387  26.284  23.690  0.00  0.00    +0.000 C 
ATOM      3  C   UNL     1      27.187  26.208  22.547  0.00  0.00    +0.000 C 
ATOM      4  C   UNL     1      27.744  26.051  21.216  0.00  0.00    +0.000 C 
ATOM      5  C   UNL     1      29.076  25.377  21.089  0.00  0.00    +0.000 C 
ATOM      6  C   UNL     1      29.387  24.452  22.185  0.00  0.00    +0.000 C 
ATOM      7  C   UNL     1      28.799  24.720  23.511  0.00  0.00    +0.000 C 
ATOM      8  N   UNL     1      29.652  24.246  24.548  0.00  0.00    +0.000 NA
ATOM      9  C   UNL     1      28.935  23.572  25.541  0.00  0.00    +0.000 C 
ATOM     10  O   UNL     1      29.303  23.121  26.681  0.00  0.00    +0.000 OA
ATOM     11  N   UNL     1      27.609  23.465  25.095  0.00  0.00    +0.000 N 
ATOM     12  C   UNL     1      27.483  24.070  23.798  0.00  0.00    +0.000 C 
ATOM     13  O   UNL     1      26.455  24.039  23.082  0.00  0.00    +0.000 OA
ENDROOT
BRANCH  11  14
ATOM     14  C   UNL     1      26.417  22.795  25.681  0.00  0.00    +0.000 C 
BRANCH  14  15
ATOM     15  C   UNL     1      26.066  23.808  26.791  0.00  0.00    +0.000 A 
ATOM     16  C   UNL     1      26.586  23.240  28.025  0.00  0.00    +0.000 A 
ATOM     17  C   UNL     1      26.162  23.853  29.217  0.00  0.00    +0.000 A 
ATOM     18  C   UNL     1      25.304  24.935  29.205  0.00  0.00    +0.000 A 
ATOM     19  C   UNL     1      24.848  25.436  27.955  0.00  0.00    +0.000 A 
ATOM     20  C   UNL     1      25.276  24.821  26.776  0.00  0.00    +0.000 A 
ATOM     21 CL   UNL     1      24.804  25.505  25.213  0.00  0.00    +0.000 Cl
ENDBRANCH  14  15
ENDBRANCH  11  14
TORSDOF 2
ENDMDL
MODEL 5
REMARK VINA RESULT:      -5.8      2.614      3.940
REMARK  Name = 
REMARK  2 active torsions:
REMARK  status: ('A' for Active; 'I' for Inactive)
REMARK    1  A    between atoms: N_11  and  C_12
REMARK    2  A    between atoms: C_12  and  C_13
REMARK                            x       y       z     vdW  Elec       q    Type
REMARK                         _______ _______ _______ _____ _____    ______ ____
ROOT
ATOM      1  C   UNL     1      27.161  26.511  23.329  0.00  0.00    +0.000 C 
ATOM      2  C   UNL     1      27.650  25.278  24.224  0.00  0.00    +0.000 C 
ATOM      3  C   UNL     1      27.146  24.085  23.186  0.00  0.00    +0.000 C 
ATOM      4  C   UNL     1      27.189  24.541  21.808  0.00  0.00    +0.000 C 
ATOM      5  C   UNL     1      28.180  25.607  21.454  0.00  0.00    +0.000 C 
ATOM      6  C   UNL     1      29.355  25.651  22.332  0.00  0.00    +0.000 C 
ATOM      7  C   UNL     1      29.197  25.199  23.728  0.00  0.00    +0.000 C 
ATOM      8  N   UNL     1      30.095  25.892  24.588  0.00  0.00    +0.000 NA
ATOM      9  C   UNL     1      30.717  25.028  25.495  0.00  0.00    +0.000 C 
ATOM     10  O   UNL     1      31.473  25.267  26.499  0.00  0.00    +0.000 OA
ATOM     11  N   UNL     1      30.344  23.721  25.144  0.00  0.00    +0.000 N 
ATOM     12  C   UNL     1      29.482  23.754  23.995  0.00  0.00    +0.000 C 
ATOM     13  O   UNL     1      29.071  22.749  23.369  0.00  0.00    +0.000 OA
ENDROOT
BRANCH  11  14
ATOM     14  C   UNL     1      30.742  22.396  25.690  0.00  0.00    +0.000 C 
BRANCH  14  15
ATOM     15  C   UNL     1      29.958  22.412  27.019  0.00  0.00    +0.000 A 
ATOM     16  C   UNL     1      28.551  22.400  26.650  0.00  0.00    +0.000 A 
ATOM     17  C   UNL     1      27.636  22.674  27.681  0.00  0.00    +0.000 A 
ATOM     18  C   UNL     1      28.061  22.934  28.969  0.00  0.00    +0.000 A 
ATOM     19  C   UNL     1      29.454  22.918  29.250  0.00  0.00    +0.000 A 
ATOM     20  C   UNL     1      30.355  22.643  28.219  0.00  0.00    +0.000 A 
ATOM     21 CL   UNL     1      32.083  22.511  28.579  0.00  0.00    +0.000 Cl
ENDBRANCH  14  15
ENDBRANCH  11  14
TORSDOF 2
ENDMDL
MODEL 6
REMARK VINA RESULT:      -5.7      2.594      3.227
REMARK  Name = 
REMARK  2 active torsions:
REMARK  status: ('A' for Active; 'I' for Inactive)
REMARK    1  A    between atoms: N_11  and  C_12
REMARK    2  A    between atoms: C_12  and  C_13
REMARK                            x       y       z     vdW  Elec       q    Type
REMARK                         _______ _______ _______ _____ _____    ______ ____
ROOT
ATOM      1  C   UNL     1      25.440  27.525  27.094  0.00  0.00    +0.000 C 
ATOM      2  C   UNL     1      26.362  26.320  26.585  0.00  0.00    +0.000 C 
ATOM      3  C   UNL     1      25.486  25.104  27.296  0.00  0.00    +0.000 C 
ATOM      4  C   UNL     1      24.082  25.461  27.393  0.00  0.00    +0.000 C 
ATOM      5  C   UNL     1      23.532  26.418  26.381  0.00  0.00    +0.000 C 
ATOM      6  C   UNL     1      24.259  26.429  25.106  0.00  0.00    +0.000 C 
ATOM      7  C   UNL     1      25.694  26.086  25.120  0.00  0.00    +0.000 C 
ATOM      8  N   UNL     1      26.386  26.764  24.076  0.00  0.00    +0.000 NA
ATOM      9  C   UNL     1      27.276  25.916  23.409  0.00  0.00    +0.000 C 
ATOM     10  O   UNL     1      28.162  26.163  22.520  0.00  0.00    +0.000 OA
ATOM     11  N   UNL     1      27.073  24.623  23.913  0.00  0.00    +0.000 N 
ATOM     12  C   UNL     1      26.035  24.645  24.906  0.00  0.00    +0.000 C 
ATOM     13  O   UNL     1      25.542  23.635  25.462  0.00  0.00    +0.000 OA
ENDROOT
BRANCH  11  14
ATOM     14  C   UNL     1      27.668  23.311  23.544  0.00  0.00    +0.000 C 
BRANCH  14  15
ATOM     15  C   UNL     1      28.909  23.316  24.462  0.00  0.00    +0.000 A 
ATOM     16  C   UNL     1      29.978  23.919  23.681  0.00  0.00    +0.000 A 
ATOM     17  C   UNL     1      31.275  23.799  24.208  0.00  0.00    +0.000 A 
ATOM     18  C   UNL     1      31.509  23.147  25.403  0.00  0.00    +0.000 A 
ATOM     19  C   UNL     1      30.408  22.593  26.110  0.00  0.00    +0.000 A 
ATOM     20  C   UNL     1      29.122  22.718  25.579  0.00  0.00    +0.000 A 
ATOM     21 CL   UNL     1      27.732  22.130  26.504  0.00  0.00    +0.000 Cl
ENDBRANCH  14  15
ENDBRANCH  11  14
TORSDOF 2
ENDMDL
MODEL 7
REMARK VINA RESULT:      -5.7      3.627      5.088
REMARK  Name = 
REMARK  2 active torsions:
REMARK  status: ('A' for Active; 'I' for Inactive)
REMARK    1  A    between atoms: N_11  and  C_12
REMARK    2  A    between atoms: C_12  and  C_13
REMARK                            x       y       z     vdW  Elec       q    Type
REMARK                         _______ _______ _______ _____ _____    ______ ____
ROOT
ATOM      1  C   UNL     1      27.535  26.451  30.137  0.00  0.00    +0.000 C 
ATOM      2  C   UNL     1      27.871  25.302  29.074  0.00  0.00    +0.000 C 
ATOM      3  C   UNL     1      27.382  24.028  30.018  0.00  0.00    +0.000 C 
ATOM      4  C   UNL     1      26.317  24.426  30.920  0.00  0.00    +0.000 C 
ATOM      5  C   UNL     1      25.428  25.556  30.497  0.00  0.00    +0.000 C 
ATOM      6  C   UNL     1      25.335  25.736  29.044  0.00  0.00    +0.000 C 
ATOM      7  C   UNL     1      26.488  25.333  28.218  0.00  0.00    +0.000 C 
ATOM      8  N   UNL     1      26.576  26.136  27.045  0.00  0.00    +0.000 NA
ATOM      9  C   UNL     1      26.843  25.366  25.908  0.00  0.00    +0.000 C 
ATOM     10  O   UNL     1      27.122  25.712  24.708  0.00  0.00    +0.000 OA
ATOM     11  N   UNL     1      26.789  24.019  26.297  0.00  0.00    +0.000 N 
ATOM     12  C   UNL     1      26.475  23.930  27.696  0.00  0.00    +0.000 C 
ATOM     13  O   UNL     1      26.244  22.868  28.320  0.00  0.00    +0.000 OA
ENDROOT
BRANCH  11  14
ATOM     14  C   UNL     1      26.917  22.757  25.520  0.00  0.00    +0.000 C 
BRANCH  14  15
ATOM     15  C   UNL     1      28.449  22.713  25.340  0.00  0.00    +0.000 A 
ATOM     16  C   UNL     1      28.996  22.425  26.657  0.00  0.00    +0.000 A 
ATOM     17  C   UNL     1      30.383  22.593  26.804  0.00  0.00    +0.000 A 
ATOM     18  C   UNL     1      31.175  23.002  25.748  0.00  0.00    +0.000 A 
ATOM     19  C   UNL     1      30.564  23.254  24.490  0.00  0.00    +0.000 A 
ATOM     20  C   UNL     1      29.184  23.084  24.354  0.00  0.00    +0.000 A 
ATOM     21 CL   UNL     1      28.430  23.287  22.765  0.00  0.00    +0.000 Cl
ENDBRANCH  14  15
ENDBRANCH  11  14
TORSDOF 2
ENDMDL
MODEL 8
REMARK VINA RESULT:      -5.7      3.488      4.569
REMARK  Name = 
REMARK  2 active torsions:
REMARK  status: ('A' for Active; 'I' for Inactive)
REMARK    1  A    between atoms: N_11  and  C_12
REMARK    2  A    between atoms: C_12  and  C_13
REMARK                            x       y       z     vdW  Elec       q    Type
REMARK                         _______ _______ _______ _____ _____    ______ ____
ROOT
ATOM      1  C   UNL     1      26.243  27.549  28.938  0.00  0.00    +0.000 C 
ATOM      2  C   UNL     1      26.852  26.245  28.237  0.00  0.00    +0.000 C 
ATOM      3  C   UNL     1      26.520  25.195  29.478  0.00  0.00    +0.000 C 
ATOM      4  C   UNL     1      25.335  25.610  30.208  0.00  0.00    +0.000 C 
ATOM      5  C   UNL     1      24.300  26.402  29.471  0.00  0.00    +0.000 C 
ATOM      6  C   UNL     1      24.289  26.174  28.021  0.00  0.00    +0.000 C 
ATOM      7  C   UNL     1      25.555  25.791  27.367  0.00  0.00    +0.000 C 
ATOM      8  N   UNL     1      25.592  26.261  26.024  0.00  0.00    +0.000 NA
ATOM      9  C   UNL     1      26.074  25.284  25.146  0.00  0.00    +0.000 C 
ATOM     10  O   UNL     1      26.381  25.348  23.906  0.00  0.00    +0.000 OA
ATOM     11  N   UNL     1      26.224  24.101  25.886  0.00  0.00    +0.000 N 
ATOM     12  C   UNL     1      25.823  24.324  27.247  0.00  0.00    +0.000 C 
ATOM     13  O   UNL     1      25.732  23.439  28.130  0.00  0.00    +0.000 OA
ENDROOT
BRANCH  11  14
ATOM     14  C   UNL     1      26.626  22.726  25.485  0.00  0.00    +0.000 C 
BRANCH  14  15
ATOM     15  C   UNL     1      28.162  22.877  25.532  0.00  0.00    +0.000 A 
ATOM     16  C   UNL     1      28.569  23.219  24.178  0.00  0.00    +0.000 A 
ATOM     17  C   UNL     1      29.947  23.152  23.909  0.00  0.00    +0.000 A 
ATOM     18  C   UNL     1      30.854  22.787  24.884  0.00  0.00    +0.000 A 
ATOM     19  C   UNL     1      30.376  22.477  26.186  0.00  0.00    +0.000 A 
ATOM     20  C   UNL     1      29.004  22.547  26.444  0.00  0.00    +0.000 A 
ATOM     21 CL   UNL     1      28.409  22.272  28.088  0.00  0.00    +0.000 Cl
ENDBRANCH  14  15
ENDBRANCH  11  14
TORSDOF 2
ENDMDL
MODEL 9
REMARK VINA RESULT:      -5.6     14.407     16.660
REMARK  Name = 
REMARK  2 active torsions:
REMARK  status: ('A' for Active; 'I' for Inactive)
REMARK    1  A    between atoms: N_11  and  C_12
REMARK    2  A    between atoms: C_12  and  C_13
REMARK                            x       y       z     vdW  Elec       q    Type
REMARK                         _______ _______ _______ _____ _____    ______ ____
ROOT
ATOM      1  C   UNL     1      30.941  20.272  12.197  0.00  0.00    +0.000 C 
ATOM      2  C   UNL     1      30.962  20.429  10.604  0.00  0.00    +0.000 C 
ATOM      3  C   UNL     1      29.672  21.467  10.504  0.00  0.00    +0.000 C 
ATOM      4  C   UNL     1      29.569  22.288  11.697  0.00  0.00    +0.000 C 
ATOM      5  C   UNL     1      30.826  22.572  12.461  0.00  0.00    +0.000 C 
ATOM      6  C   UNL     1      32.048  22.513  11.651  0.00  0.00    +0.000 C 
ATOM      7  C   UNL     1      32.063  21.619  10.478  0.00  0.00    +0.000 C 
ATOM      8  N   UNL     1      33.379  21.137  10.226  0.00  0.00    +0.000 NA
ATOM      9  C   UNL     1      33.698  21.185   8.865  0.00  0.00    +0.000 C 
ATOM     10  O   UNL     1      34.707  20.731   8.223  0.00  0.00    +0.000 OA
ATOM     11  N   UNL     1      32.641  21.842   8.216  0.00  0.00    +0.000 N 
ATOM     12  C   UNL     1      31.643  22.224   9.175  0.00  0.00    +0.000 C 
ATOM     13  O   UNL     1      30.633  22.924   8.930  0.00  0.00    +0.000 OA
ENDROOT
BRANCH  11  14
ATOM     14  C   UNL     1      32.449  22.247   6.797  0.00  0.00    +0.000 C 
BRANCH  14  15
ATOM     15  C   UNL     1      32.040  20.889   6.188  0.00  0.00    +0.000 A 
ATOM     16  C   UNL     1      30.701  20.617   6.688  0.00  0.00    +0.000 A 
ATOM     17  C   UNL     1      30.215  19.314   6.483  0.00  0.00    +0.000 A 
ATOM     18  C   UNL     1      30.973  18.356   5.838  0.00  0.00    +0.000 A 
ATOM     19  C   UNL     1      32.269  18.706   5.371  0.00  0.00    +0.000 A 
ATOM     20  C   UNL     1      32.743  20.003   5.579  0.00  0.00    +0.000 A 
ATOM     21 CL   UNL     1      34.308  20.481   4.904  0.00  0.00    +0.000 Cl
ENDBRANCH  14  15
ENDBRANCH  11  14
TORSDOF 2
ENDMDL
MODEL 10
REMARK VINA RESULT:      -5.6     34.242     36.869
REMARK  Name = 
REMARK  2 active torsions:
REMARK  status: ('A' for Active; 'I' for Inactive)
REMARK    1  A    between atoms: N_11  and  C_12
REMARK    2  A    between atoms: C_12  and  C_13
REMARK                            x       y       z     vdW  Elec       q    Type
REMARK                         _______ _______ _______ _____ _____    ______ ____
ROOT
ATOM      1  C   UNL     1      17.548 -12.439  31.515  0.00  0.00    +0.000 C 
ATOM      2  C   UNL     1      17.716 -12.151  29.949  0.00  0.00    +0.000 C 
ATOM      3  C   UNL     1      16.110 -11.873  29.639  0.00  0.00    +0.000 C 
ATOM      4  C   UNL     1      15.443 -11.318  30.803  0.00  0.00    +0.000 C 
ATOM      5  C   UNL     1      16.266 -10.524  31.770  0.00  0.00    +0.000 C 
ATOM      6  C   UNL     1      17.457  -9.904  31.177  0.00  0.00    +0.000 C 
ATOM      7  C   UNL     1      18.083 -10.568  30.018  0.00  0.00    +0.000 C 
ATOM      8  N   UNL     1      19.485 -10.318  29.989  0.00  0.00    +0.000 NA
ATOM      9  C   UNL     1      19.928  -9.999  28.701  0.00  0.00    +0.000 C 
ATOM     10  O   UNL     1      21.109  -9.841  28.236  0.00  0.00    +0.000 OA
ATOM     11  N   UNL     1      18.791  -9.890  27.887  0.00  0.00    +0.000 N 
ATOM     12  C   UNL     1      17.609 -10.133  28.667  0.00  0.00    +0.000 C 
ATOM     13  O   UNL     1      16.432  -9.998  28.259  0.00  0.00    +0.000 OA
ENDROOT
BRANCH  11  14
ATOM     14  C   UNL     1      18.627  -9.506  26.459  0.00  0.00    +0.000 C 
BRANCH  14  15
ATOM     15  C   UNL     1      19.019  -8.015  26.541  0.00  0.00    +0.000 A 
ATOM     16  C   UNL     1      17.890  -7.341  27.163  0.00  0.00    +0.000 A 
ATOM     17  C   UNL     1      17.899  -5.937  27.110  0.00  0.00    +0.000 A 
ATOM     18  C   UNL     1      18.930  -5.246  26.503  0.00  0.00    +0.000 A 
ATOM     19  C   UNL     1      20.002  -5.979  25.926  0.00  0.00    +0.000 A 
ATOM     20  C   UNL     1      19.985  -7.375  25.985  0.00  0.00    +0.000 A 
ATOM     21 CL   UNL     1      21.367  -8.293  25.369  0.00  0.00    +0.000 Cl
ENDBRANCH  14  15
ENDBRANCH  11  14
TORSDOF 2
ENDMDL
