MODEL 1
REMARK VINA RESULT:      -8.9      0.000      0.000
REMARK  Name = 
REMARK  4 active torsions:
REMARK  status: ('A' for Active; 'I' for Inactive)
REMARK    1  A    between atoms: C_7  and  N_8
REMARK    2  A    between atoms: N_9  and  C_10
REMARK    3  A    between atoms: C_14  and  N_15
REMARK    4  A    between atoms: N_15  and  N_16
REMARK                            x       y       z     vdW  Elec       q    Type
REMARK                         _______ _______ _______ _____ _____    ______ ____
ROOT
ATOM      1  C   UNL     1      36.450  -1.509  16.013  0.00  0.00    +0.000 A 
ATOM      2  C   UNL     1      37.607  -1.272  15.311  0.00  0.00    +0.000 A 
ATOM      3  C   UNL     1      37.927   0.044  15.037  0.00  0.00    +0.000 A 
ATOM      4  C   UNL     1      39.181   0.318  14.274  0.00  0.00    +0.000 C 
ATOM      5  C   UNL     1      37.102   1.062  15.464  0.00  0.00    +0.000 A 
ATOM      6  C   UNL     1      35.945   0.801  16.167  0.00  0.00    +0.000 A 
ATOM      7  C   UNL     1      35.613  -0.499  16.447  0.00  0.00    +0.000 A 
ATOM      8  C   UNL     1      34.355  -0.811  17.214  0.00  0.00    +0.000 C 
ENDROOT
BRANCH   1  10
ATOM      9  N   UNL     1      35.987  -3.778  15.521  0.00  0.00    +0.000 NA
ATOM     10  N   UNL     1      36.029  -2.846  16.348  0.00  0.00    +0.000 NA
BRANCH   9  17
ATOM     11  C   UNL     1      36.558  -8.199  17.761  0.00  0.00    +0.000 C 
ATOM     12  C   UNL     1      35.831  -7.262  16.878  0.00  0.00    +0.000 A 
ATOM     13  C   UNL     1      34.671  -7.701  16.280  0.00  0.00    +0.000 A 
ATOM     14  C   UNL     1      33.954  -6.857  15.443  0.00  0.00    +0.000 A 
ATOM     15  C   UNL     1      34.420  -5.558  15.211  0.00  0.00    +0.000 A 
ATOM     16  C   UNL     1      33.590  -4.724  14.303  0.00  0.00    +0.000 C 
ATOM     17  C   UNL     1      35.580  -5.109  15.804  0.00  0.00    +0.000 A 
ATOM     18  C   UNL     1      36.262  -5.976  16.628  0.00  0.00    +0.000 A 
ENDBRANCH   9  17
ENDBRANCH   1  10
BRANCH   5  19
ATOM     19  N   UNL     1      37.415   2.418  15.191  0.00  0.00    +0.000 NA
BRANCH  19  20
ATOM     20  N   UNL     1      37.910   3.264  16.199  0.00  0.00    +0.000 NA
ATOM     21  C   UNL     1      38.812   4.120  15.842  0.00  0.00    +0.000 C 
ATOM     22  C   UNL     1      39.306   4.222  14.475  0.00  0.00    +0.000 C 
ATOM     23  O   UNL     1      38.847   3.452  13.593  0.00  0.00    +0.000 OA
ATOM     24  C   UNL     1      40.321   5.219  14.183  0.00  0.00    +0.000 C 
ATOM     25  C   UNL     1      40.783   6.013  15.135  0.00  0.00    +0.000 C 
ATOM     26  C   UNL     1      40.298   5.922  16.512  0.00  0.00    +0.000 A 
ATOM     27  C   UNL     1      40.799   6.771  17.503  0.00  0.00    +0.000 A 
ATOM     28  C   UNL     1      40.372   6.718  18.798  0.00  0.00    +0.000 A 
ATOM     29  C   UNL     1      39.418   5.807  19.156  0.00  0.00    +0.000 A 
ATOM     30  C   UNL     1      38.899   4.950  18.193  0.00  0.00    +0.000 A 
ATOM     31  C   UNL     1      39.342   5.015  16.887  0.00  0.00    +0.000 A 
ENDBRANCH  19  20
ENDBRANCH   5  19
TORSDOF 4
ENDMDL
MODEL 2
REMARK VINA RESULT:      -8.7      2.216      3.290
REMARK  Name = 
REMARK  4 active torsions:
REMARK  status: ('A' for Active; 'I' for Inactive)
REMARK    1  A    between atoms: C_7  and  N_8
REMARK    2  A    between atoms: N_9  and  C_10
REMARK    3  A    between atoms: C_14  and  N_15
REMARK    4  A    between atoms: N_15  and  N_16
REMARK                            x       y       z     vdW  Elec       q    Type
REMARK                         _______ _______ _______ _____ _____    ______ ____
ROOT
ATOM      1  C   UNL     1      37.182   0.825  15.213  0.00  0.00    +0.000 A 
ATOM      2  C   UNL     1      38.348   1.079  14.532  0.00  0.00    +0.000 A 
ATOM      3  C   UNL     1      38.857   2.362  14.599  0.00  0.00    +0.000 A 
ATOM      4  C   UNL     1      40.123   2.654  13.863  0.00  0.00    +0.000 C 
ATOM      5  C   UNL     1      38.203   3.332  15.328  0.00  0.00    +0.000 A 
ATOM      6  C   UNL     1      37.034   3.055  16.004  0.00  0.00    +0.000 A 
ATOM      7  C   UNL     1      36.515   1.788  15.948  0.00  0.00    +0.000 A 
ATOM      8  C   UNL     1      35.239   1.458  16.678  0.00  0.00    +0.000 C 
ENDROOT
BRANCH   1  10
ATOM      9  N   UNL     1      37.131  -1.500  15.652  0.00  0.00    +0.000 NA
ATOM     10  N   UNL     1      36.571  -0.480  15.206  0.00  0.00    +0.000 NA
BRANCH   9  17
ATOM     11  C   UNL     1      33.630  -4.826  14.399  0.00  0.00    +0.000 C 
ATOM     12  C   UNL     1      34.887  -4.439  15.074  0.00  0.00    +0.000 A 
ATOM     13  C   UNL     1      35.573  -5.406  15.773  0.00  0.00    +0.000 A 
ATOM     14  C   UNL     1      36.758  -5.090  16.423  0.00  0.00    +0.000 A 
ATOM     15  C   UNL     1      37.249  -3.781  16.363  0.00  0.00    +0.000 A 
ATOM     16  C   UNL     1      38.523  -3.531  17.087  0.00  0.00    +0.000 C 
ATOM     17  C   UNL     1      36.569  -2.805  15.667  0.00  0.00    +0.000 A 
ATOM     18  C   UNL     1      35.398  -3.158  15.036  0.00  0.00    +0.000 A 
ENDBRANCH   9  17
ENDBRANCH   1  10
BRANCH   5  19
ATOM     19  N   UNL     1      38.711   4.653  15.407  0.00  0.00    +0.000 NA
BRANCH  19  20
ATOM     20  N   UNL     1      38.904   5.283  16.649  0.00  0.00    +0.000 NA
ATOM     21  C   UNL     1      38.367   6.450  16.793  0.00  0.00    +0.000 C 
ATOM     22  C   UNL     1      37.598   7.102  15.741  0.00  0.00    +0.000 C 
ATOM     23  O   UNL     1      37.441   6.517  14.638  0.00  0.00    +0.000 OA
ATOM     24  C   UNL     1      37.038   8.415  16.009  0.00  0.00    +0.000 C 
ATOM     25  C   UNL     1      37.223   9.002  17.180  0.00  0.00    +0.000 C 
ATOM     26  C   UNL     1      37.992   8.362  18.246  0.00  0.00    +0.000 A 
ATOM     27  C   UNL     1      38.176   9.000  19.477  0.00  0.00    +0.000 A 
ATOM     28  C   UNL     1      38.886   8.437  20.496  0.00  0.00    +0.000 A 
ATOM     29  C   UNL     1      39.447   7.201  20.325  0.00  0.00    +0.000 A 
ATOM     30  C   UNL     1      39.282   6.541  19.113  0.00  0.00    +0.000 A 
ATOM     31  C   UNL     1      38.560   7.125  18.090  0.00  0.00    +0.000 A 
ENDBRANCH  19  20
ENDBRANCH   5  19
TORSDOF 4
ENDMDL
MODEL 3
REMARK VINA RESULT:      -8.6      1.594      2.915
REMARK  Name = 
REMARK  4 active torsions:
REMARK  status: ('A' for Active; 'I' for Inactive)
REMARK    1  A    between atoms: C_7  and  N_8
REMARK    2  A    between atoms: N_9  and  C_10
REMARK    3  A    between atoms: C_14  and  N_15
REMARK    4  A    between atoms: N_15  and  N_16
REMARK                            x       y       z     vdW  Elec       q    Type
REMARK                         _______ _______ _______ _____ _____    ______ ____
ROOT
ATOM      1  C   UNL     1      36.861   0.425  14.846  0.00  0.00    +0.000 A 
ATOM      2  C   UNL     1      35.868   1.373  14.882  0.00  0.00    +0.000 A 
ATOM      3  C   UNL     1      36.255   2.696  14.982  0.00  0.00    +0.000 A 
ATOM      4  C   UNL     1      35.186   3.739  15.023  0.00  0.00    +0.000 C 
ATOM      5  C   UNL     1      37.592   3.026  15.040  0.00  0.00    +0.000 A 
ATOM      6  C   UNL     1      38.572   2.058  15.002  0.00  0.00    +0.000 A 
ATOM      7  C   UNL     1      38.206   0.741  14.903  0.00  0.00    +0.000 A 
ATOM      8  C   UNL     1      39.258  -0.337  14.859  0.00  0.00    +0.000 C 
ENDROOT
BRANCH   1  10
ATOM      9  N   UNL     1      36.160  -1.667  15.702  0.00  0.00    +0.000 NA
ATOM     10  N   UNL     1      36.562  -0.981  14.742  0.00  0.00    +0.000 NA
BRANCH   9  17
ATOM     11  C   UNL     1      33.538  -5.556  14.001  0.00  0.00    +0.000 C 
ATOM     12  C   UNL     1      34.598  -4.957  14.841  0.00  0.00    +0.000 A 
ATOM     13  C   UNL     1      35.349  -5.795  15.634  0.00  0.00    +0.000 A 
ATOM     14  C   UNL     1      36.354  -5.278  16.439  0.00  0.00    +0.000 A 
ATOM     15  C   UNL     1      36.598  -3.900  16.439  0.00  0.00    +0.000 A 
ATOM     16  C   UNL     1      37.693  -3.434  17.330  0.00  0.00    +0.000 C 
ATOM     17  C   UNL     1      35.852  -3.053  15.649  0.00  0.00    +0.000 A 
ATOM     18  C   UNL     1      34.864  -3.604  14.864  0.00  0.00    +0.000 A 
ENDBRANCH   9  17
ENDBRANCH   1  10
BRANCH   5  19
ATOM     19  N   UNL     1      38.006   4.378  15.143  0.00  0.00    +0.000 NA
BRANCH  19  20
ATOM     20  N   UNL     1      38.551   4.881  16.338  0.00  0.00    +0.000 NA
ATOM     21  C   UNL     1      39.723   5.420  16.254  0.00  0.00    +0.000 C 
ATOM     22  C   UNL     1      40.462   5.515  15.002  0.00  0.00    +0.000 C 
ATOM     23  O   UNL     1      39.953   5.056  13.948  0.00  0.00    +0.000 OA
ATOM     24  C   UNL     1      41.773   6.140  15.022  0.00  0.00    +0.000 C 
ATOM     25  C   UNL     1      42.281   6.613  16.149  0.00  0.00    +0.000 C 
ATOM     26  C   UNL     1      41.551   6.524  17.414  0.00  0.00    +0.000 A 
ATOM     27  C   UNL     1      42.106   7.029  18.594  0.00  0.00    +0.000 A 
ATOM     28  C   UNL     1      41.458   6.967  19.793  0.00  0.00    +0.000 A 
ATOM     29  C   UNL     1      40.219   6.393  19.861  0.00  0.00    +0.000 A 
ATOM     30  C   UNL     1      39.641   5.883  18.705  0.00  0.00    +0.000 A 
ATOM     31  C   UNL     1      40.310   5.953  17.499  0.00  0.00    +0.000 A 
ENDBRANCH  19  20
ENDBRANCH   5  19
TORSDOF 4
ENDMDL
MODEL 4
REMARK VINA RESULT:      -8.4     26.472     29.580
REMARK  Name = 
REMARK  4 active torsions:
REMARK  status: ('A' for Active; 'I' for Inactive)
REMARK    1  A    between atoms: C_7  and  N_8
REMARK    2  A    between atoms: N_9  and  C_10
REMARK    3  A    between atoms: C_14  and  N_15
REMARK    4  A    between atoms: N_15  and  N_16
REMARK                            x       y       z     vdW  Elec       q    Type
REMARK                         _______ _______ _______ _____ _____    ______ ____
ROOT
ATOM      1  C   UNL     1      26.650  15.538  37.922  0.00  0.00    +0.000 A 
ATOM      2  C   UNL     1      28.019  15.603  38.012  0.00  0.00    +0.000 A 
ATOM      3  C   UNL     1      28.629  14.851  38.998  0.00  0.00    +0.000 A 
ATOM      4  C   UNL     1      30.117  14.912  39.109  0.00  0.00    +0.000 C 
ATOM      5  C   UNL     1      27.870  14.071  39.844  0.00  0.00    +0.000 A 
ATOM      6  C   UNL     1      26.497  14.020  39.736  0.00  0.00    +0.000 A 
ATOM      7  C   UNL     1      25.876  14.761  38.764  0.00  0.00    +0.000 A 
ATOM      8  C   UNL     1      24.377  14.723  38.624  0.00  0.00    +0.000 C 
ENDROOT
BRANCH   1  10
ATOM      9  N   UNL     1      26.154  16.207  35.706  0.00  0.00    +0.000 NA
ATOM     10  N   UNL     1      25.921  16.285  36.928  0.00  0.00    +0.000 NA
BRANCH   9  17
ATOM     11  C   UNL     1      23.873  20.272  33.927  0.00  0.00    +0.000 C 
ATOM     12  C   UNL     1      24.352  18.879  33.803  0.00  0.00    +0.000 A 
ATOM     13  C   UNL     1      24.117  18.214  32.621  0.00  0.00    +0.000 A 
ATOM     14  C   UNL     1      24.547  16.905  32.458  0.00  0.00    +0.000 A 
ATOM     15  C   UNL     1      25.222  16.266  33.504  0.00  0.00    +0.000 A 
ATOM     16  C   UNL     1      25.648  14.866  33.243  0.00  0.00    +0.000 C 
ATOM     17  C   UNL     1      25.463  16.922  34.692  0.00  0.00    +0.000 A 
ATOM     18  C   UNL     1      25.020  18.220  34.814  0.00  0.00    +0.000 A 
ENDBRANCH   9  17
ENDBRANCH   1  10
BRANCH   5  19
ATOM     19  N   UNL     1      28.479  13.293  40.861  0.00  0.00    +0.000 NA
BRANCH  19  20
ATOM     20  N   UNL     1      27.826  12.173  41.407  0.00  0.00    +0.000 NA
ATOM     21  C   UNL     1      28.470  11.052  41.362  0.00  0.00    +0.000 C 
ATOM     22  C   UNL     1      29.801  10.927  40.784  0.00  0.00    +0.000 C 
ATOM     23  O   UNL     1      30.362  11.944  40.301  0.00  0.00    +0.000 OA
ATOM     24  C   UNL     1      30.433   9.620  40.785  0.00  0.00    +0.000 C 
ATOM     25  C   UNL     1      29.813   8.570  41.301  0.00  0.00    +0.000 C 
ATOM     26  C   UNL     1      28.477   8.679  41.884  0.00  0.00    +0.000 A 
ATOM     27  C   UNL     1      27.840   7.557  42.424  0.00  0.00    +0.000 A 
ATOM     28  C   UNL     1      26.595   7.617  42.978  0.00  0.00    +0.000 A 
ATOM     29  C   UNL     1      25.931   8.811  43.016  0.00  0.00    +0.000 A 
ATOM     30  C   UNL     1      26.538   9.945  42.489  0.00  0.00    +0.000 A 
ATOM     31  C   UNL     1      27.799   9.868  41.930  0.00  0.00    +0.000 A 
ENDBRANCH  19  20
ENDBRANCH   5  19
TORSDOF 4
ENDMDL
MODEL 5
REMARK VINA RESULT:      -8.3      1.959      3.565
REMARK  Name = 
REMARK  4 active torsions:
REMARK  status: ('A' for Active; 'I' for Inactive)
REMARK    1  A    between atoms: C_7  and  N_8
REMARK    2  A    between atoms: N_9  and  C_10
REMARK    3  A    between atoms: C_14  and  N_15
REMARK    4  A    between atoms: N_15  and  N_16
REMARK                            x       y       z     vdW  Elec       q    Type
REMARK                         _______ _______ _______ _____ _____    ______ ____
ROOT
ATOM      1  C   UNL     1      36.884   1.024  15.471  0.00  0.00    +0.000 A 
ATOM      2  C   UNL     1      37.974   1.491  14.777  0.00  0.00    +0.000 A 
ATOM      3  C   UNL     1      38.356   2.801  15.000  0.00  0.00    +0.000 A 
ATOM      4  C   UNL     1      39.538   3.324  14.253  0.00  0.00    +0.000 C 
ATOM      5  C   UNL     1      37.655   3.586  15.890  0.00  0.00    +0.000 A 
ATOM      6  C   UNL     1      36.564   3.097  16.575  0.00  0.00    +0.000 A 
ATOM      7  C   UNL     1      36.172   1.800  16.366  0.00  0.00    +0.000 A 
ATOM      8  C   UNL     1      34.983   1.240  17.103  0.00  0.00    +0.000 C 
ENDROOT
BRANCH   1  10
ATOM      9  N   UNL     1      36.877  -1.298  15.932  0.00  0.00    +0.000 NA
ATOM     10  N   UNL     1      36.407  -0.326  15.309  0.00  0.00    +0.000 NA
BRANCH   9  17
ATOM     11  C   UNL     1      33.686  -4.783  14.332  0.00  0.00    +0.000 C 
ATOM     12  C   UNL     1      34.910  -4.355  15.043  0.00  0.00    +0.000 A 
ATOM     13  C   UNL     1      35.692  -5.323  15.631  0.00  0.00    +0.000 A 
ATOM     14  C   UNL     1      36.850  -4.969  16.309  0.00  0.00    +0.000 A 
ATOM     15  C   UNL     1      37.216  -3.621  16.391  0.00  0.00    +0.000 A 
ATOM     16  C   UNL     1      38.469  -3.332  17.135  0.00  0.00    +0.000 C 
ATOM     17  C   UNL     1      36.440  -2.643  15.807  0.00  0.00    +0.000 A 
ATOM     18  C   UNL     1      35.299  -3.035  15.143  0.00  0.00    +0.000 A 
ENDBRANCH   9  17
ENDBRANCH   1  10
BRANCH   5  19
ATOM     19  N   UNL     1      38.034   4.932  16.130  0.00  0.00    +0.000 NA
BRANCH  19  20
ATOM     20  N   UNL     1      39.357   5.361  15.924  0.00  0.00    +0.000 NA
ATOM     21  C   UNL     1      40.017   5.717  16.977  0.00  0.00    +0.000 C 
ATOM     22  C   UNL     1      39.446   5.686  18.317  0.00  0.00    +0.000 C 
ATOM     23  O   UNL     1      38.259   5.299  18.473  0.00  0.00    +0.000 OA
ATOM     24  C   UNL     1      40.276   6.109  19.431  0.00  0.00    +0.000 C 
ATOM     25  C   UNL     1      41.522   6.511  19.232  0.00  0.00    +0.000 C 
ATOM     26  C   UNL     1      42.109   6.548  17.893  0.00  0.00    +0.000 A 
ATOM     27  C   UNL     1      43.427   6.976  17.704  0.00  0.00    +0.000 A 
ATOM     28  C   UNL     1      44.012   7.025  16.473  0.00  0.00    +0.000 A 
ATOM     29  C   UNL     1      43.298   6.644  15.371  0.00  0.00    +0.000 A 
ATOM     30  C   UNL     1      41.986   6.213  15.526  0.00  0.00    +0.000 A 
ATOM     31  C   UNL     1      41.407   6.170  16.780  0.00  0.00    +0.000 A 
ENDBRANCH  19  20
ENDBRANCH   5  19
TORSDOF 4
ENDMDL
MODEL 6
REMARK VINA RESULT:      -8.2      4.969      6.146
REMARK  Name = 
REMARK  4 active torsions:
REMARK  status: ('A' for Active; 'I' for Inactive)
REMARK    1  A    between atoms: C_7  and  N_8
REMARK    2  A    between atoms: N_9  and  C_10
REMARK    3  A    between atoms: C_14  and  N_15
REMARK    4  A    between atoms: N_15  and  N_16
REMARK                            x       y       z     vdW  Elec       q    Type
REMARK                         _______ _______ _______ _____ _____    ______ ____
ROOT
ATOM      1  C   UNL     1      36.820   2.536  14.967  0.00  0.00    +0.000 A 
ATOM      2  C   UNL     1      37.459   3.388  14.100  0.00  0.00    +0.000 A 
ATOM      3  C   UNL     1      36.742   4.471  13.628  0.00  0.00    +0.000 A 
ATOM      4  C   UNL     1      37.422   5.407  12.684  0.00  0.00    +0.000 C 
ATOM      5  C   UNL     1      35.438   4.667  14.028  0.00  0.00    +0.000 A 
ATOM      6  C   UNL     1      34.816   3.799  14.900  0.00  0.00    +0.000 A 
ATOM      7  C   UNL     1      35.513   2.720  15.377  0.00  0.00    +0.000 A 
ATOM      8  C   UNL     1      34.857   1.756  16.332  0.00  0.00    +0.000 C 
ENDROOT
BRANCH   1  10
ATOM      9  N   UNL     1      37.753   0.364  14.844  0.00  0.00    +0.000 NA
ATOM     10  N   UNL     1      37.482   1.378  15.515  0.00  0.00    +0.000 NA
BRANCH   9  17
ATOM     11  C   UNL     1      38.273  -3.356  18.127  0.00  0.00    +0.000 C 
ATOM     12  C   UNL     1      38.678  -2.612  16.915  0.00  0.00    +0.000 A 
ATOM     13  C   UNL     1      39.765  -3.071  16.205  0.00  0.00    +0.000 A 
ATOM     14  C   UNL     1      40.182  -2.406  15.061  0.00  0.00    +0.000 A 
ATOM     15  C   UNL     1      39.491  -1.266  14.635  0.00  0.00    +0.000 A 
ATOM     16  C   UNL     1      40.006  -0.617  13.401  0.00  0.00    +0.000 C 
ATOM     17  C   UNL     1      38.403  -0.798  15.339  0.00  0.00    +0.000 A 
ATOM     18  C   UNL     1      38.020  -1.486  16.468  0.00  0.00    +0.000 A 
ENDBRANCH   9  17
ENDBRANCH   1  10
BRANCH   5  19
ATOM     19  N   UNL     1      34.687   5.773  13.554  0.00  0.00    +0.000 NA
BRANCH  19  20
ATOM     20  N   UNL     1      34.457   6.896  14.369  0.00  0.00    +0.000 NA
ATOM     21  C   UNL     1      34.385   8.039  13.767  0.00  0.00    +0.000 C 
ATOM     22  C   UNL     1      34.531   8.184  12.325  0.00  0.00    +0.000 C 
ATOM     23  O   UNL     1      34.738   7.163  11.619  0.00  0.00    +0.000 OA
ATOM     24  C   UNL     1      34.434   9.515  11.753  0.00  0.00    +0.000 C 
ATOM     25  C   UNL     1      34.216  10.568  12.524  0.00  0.00    +0.000 C 
ATOM     26  C   UNL     1      34.068  10.439  13.973  0.00  0.00    +0.000 A 
ATOM     27  C   UNL     1      33.839  11.565  14.770  0.00  0.00    +0.000 A 
ATOM     28  C   UNL     1      33.694  11.487  16.124  0.00  0.00    +0.000 A 
ATOM     29  C   UNL     1      33.773  10.270  16.742  0.00  0.00    +0.000 A 
ATOM     30  C   UNL     1      33.999   9.132  15.977  0.00  0.00    +0.000 A 
ATOM     31  C   UNL     1      34.144   9.228  14.607  0.00  0.00    +0.000 A 
ENDBRANCH  19  20
ENDBRANCH   5  19
TORSDOF 4
ENDMDL
MODEL 7
REMARK VINA RESULT:      -8.1      3.133     11.145
REMARK  Name = 
REMARK  4 active torsions:
REMARK  status: ('A' for Active; 'I' for Inactive)
REMARK    1  A    between atoms: C_7  and  N_8
REMARK    2  A    between atoms: N_9  and  C_10
REMARK    3  A    between atoms: C_14  and  N_15
REMARK    4  A    between atoms: N_15  and  N_16
REMARK                            x       y       z     vdW  Elec       q    Type
REMARK                         _______ _______ _______ _____ _____    ______ ____
ROOT
ATOM      1  C   UNL     1      38.119   6.564  16.724  0.00  0.00    +0.000 A 
ATOM      2  C   UNL     1      37.472   6.588  15.513  0.00  0.00    +0.000 A 
ATOM      3  C   UNL     1      37.260   5.377  14.881  0.00  0.00    +0.000 A 
ATOM      4  C   UNL     1      36.557   5.386  13.563  0.00  0.00    +0.000 C 
ATOM      5  C   UNL     1      37.688   4.205  15.466  0.00  0.00    +0.000 A 
ATOM      6  C   UNL     1      38.336   4.204  16.682  0.00  0.00    +0.000 A 
ATOM      7  C   UNL     1      38.556   5.397  17.322  0.00  0.00    +0.000 A 
ATOM      8  C   UNL     1      39.261   5.424  18.653  0.00  0.00    +0.000 C 
ENDROOT
BRANCH   1  10
ATOM      9  N   UNL     1      37.559   8.311  18.220  0.00  0.00    +0.000 NA
ATOM     10  N   UNL     1      38.389   7.773  17.462  0.00  0.00    +0.000 NA
BRANCH   9  17
ATOM     11  C   UNL     1      37.269  13.250  18.865  0.00  0.00    +0.000 C 
ATOM     12  C   UNL     1      37.651  11.891  19.306  0.00  0.00    +0.000 A 
ATOM     13  C   UNL     1      38.267  11.755  20.530  0.00  0.00    +0.000 A 
ATOM     14  C   UNL     1      38.644  10.500  20.986  0.00  0.00    +0.000 A 
ATOM     15  C   UNL     1      38.394   9.374  20.193  0.00  0.00    +0.000 A 
ATOM     16  C   UNL     1      38.830   8.071  20.759  0.00  0.00    +0.000 C 
ATOM     17  C   UNL     1      37.779   9.499  18.966  0.00  0.00    +0.000 A 
ATOM     18  C   UNL     1      37.420  10.761  18.549  0.00  0.00    +0.000 A 
ENDBRANCH   9  17
ENDBRANCH   1  10
BRANCH   5  19
ATOM     19  N   UNL     1      37.478   2.954  14.832  0.00  0.00    +0.000 NA
BRANCH  19  20
ATOM     20  N   UNL     1      36.706   1.951  15.444  0.00  0.00    +0.000 NA
ATOM     21  C   UNL     1      36.867   0.747  14.999  0.00  0.00    +0.000 C 
ATOM     22  C   UNL     1      37.792   0.420  13.922  0.00  0.00    +0.000 C 
ATOM     23  O   UNL     1      38.470   1.336  13.390  0.00  0.00    +0.000 OA
ATOM     24  C   UNL     1      37.894  -0.966  13.499  0.00  0.00    +0.000 C 
ATOM     25  C   UNL     1      37.166  -1.906  14.080  0.00  0.00    +0.000 C 
ATOM     26  C   UNL     1      36.233  -1.593  15.162  0.00  0.00    +0.000 A 
ATOM     27  C   UNL     1      35.472  -2.601  15.762  0.00  0.00    +0.000 A 
ATOM     28  C   UNL     1      34.592  -2.351  16.774  0.00  0.00    +0.000 A 
ATOM     29  C   UNL     1      34.436  -1.072  17.231  0.00  0.00    +0.000 A 
ATOM     30  C   UNL     1      35.178  -0.048  16.655  0.00  0.00    +0.000 A 
ATOM     31  C   UNL     1      36.065  -0.317  15.631  0.00  0.00    +0.000 A 
ENDBRANCH  19  20
ENDBRANCH   5  19
TORSDOF 4
ENDMDL
MODEL 8
REMARK VINA RESULT:      -7.9      3.103     11.114
REMARK  Name = 
REMARK  4 active torsions:
REMARK  status: ('A' for Active; 'I' for Inactive)
REMARK    1  A    between atoms: C_7  and  N_8
REMARK    2  A    between atoms: N_9  and  C_10
REMARK    3  A    between atoms: C_14  and  N_15
REMARK    4  A    between atoms: N_15  and  N_16
REMARK                            x       y       z     vdW  Elec       q    Type
REMARK                         _______ _______ _______ _____ _____    ______ ____
ROOT
ATOM      1  C   UNL     1      38.160   6.047  16.482  0.00  0.00    +0.000 A 
ATOM      2  C   UNL     1      37.474   5.991  15.293  0.00  0.00    +0.000 A 
ATOM      3  C   UNL     1      36.943   4.771  14.922  0.00  0.00    +0.000 A 
ATOM      4  C   UNL     1      36.194   4.695  13.632  0.00  0.00    +0.000 C 
ATOM      5  C   UNL     1      37.106   3.667  15.730  0.00  0.00    +0.000 A 
ATOM      6  C   UNL     1      37.799   3.745  16.920  0.00  0.00    +0.000 A 
ATOM      7  C   UNL     1      38.333   4.948  17.303  0.00  0.00    +0.000 A 
ATOM      8  C   UNL     1      39.094   5.060  18.598  0.00  0.00    +0.000 C 
ENDROOT
BRANCH   1  10
ATOM      9  N   UNL     1      38.179   8.047  17.748  0.00  0.00    +0.000 NA
ATOM     10  N   UNL     1      38.752   7.271  16.958  0.00  0.00    +0.000 NA
BRANCH   9  17
ATOM     11  C   UNL     1      39.829  12.719  17.168  0.00  0.00    +0.000 C 
ATOM     12  C   UNL     1      39.527  11.529  17.992  0.00  0.00    +0.000 A 
ATOM     13  C   UNL     1      39.786  11.592  19.342  0.00  0.00    +0.000 A 
ATOM     14  C   UNL     1      39.519  10.501  20.157  0.00  0.00    +0.000 A 
ATOM     15  C   UNL     1      38.985   9.336  19.594  0.00  0.00    +0.000 A 
ATOM     16  C   UNL     1      38.729   8.217  20.539  0.00  0.00    +0.000 C 
ATOM     17  C   UNL     1      38.722   9.262  18.244  0.00  0.00    +0.000 A 
ATOM     18  C   UNL     1      39.000  10.366  17.470  0.00  0.00    +0.000 A 
ENDBRANCH   9  17
ENDBRANCH   1  10
BRANCH   5  19
ATOM     19  N   UNL     1      36.567   2.408  15.364  0.00  0.00    +0.000 NA
BRANCH  19  20
ATOM     20  N   UNL     1      37.337   1.234  15.459  0.00  0.00    +0.000 NA
ATOM     21  C   UNL     1      36.776   0.224  16.040  0.00  0.00    +0.000 C 
ATOM     22  C   UNL     1      35.422   0.270  16.576  0.00  0.00    +0.000 C 
ATOM     23  O   UNL     1      34.756   1.333  16.479  0.00  0.00    +0.000 OA
ATOM     24  C   UNL     1      34.890  -0.923  17.209  0.00  0.00    +0.000 C 
ATOM     25  C   UNL     1      35.619  -2.025  17.295  0.00  0.00    +0.000 C 
ATOM     26  C   UNL     1      36.979  -2.087  16.763  0.00  0.00    +0.000 A 
ATOM     27  C   UNL     1      37.732  -3.261  16.864  0.00  0.00    +0.000 A 
ATOM     28  C   UNL     1      39.004  -3.361  16.380  0.00  0.00    +0.000 A 
ATOM     29  C   UNL     1      39.579  -2.281  15.769  0.00  0.00    +0.000 A 
ATOM     30  C   UNL     1      38.856  -1.100  15.652  0.00  0.00    +0.000 A 
ATOM     31  C   UNL     1      37.570  -1.015  16.148  0.00  0.00    +0.000 A 
ENDBRANCH  19  20
ENDBRANCH   5  19
TORSDOF 4
ENDMDL
MODEL 9
REMARK VINA RESULT:      -7.9      5.278      7.465
REMARK  Name = 
REMARK  4 active torsions:
REMARK  status: ('A' for Active; 'I' for Inactive)
REMARK    1  A    between atoms: C_7  and  N_8
REMARK    2  A    between atoms: N_9  and  C_10
REMARK    3  A    between atoms: C_14  and  N_15
REMARK    4  A    between atoms: N_15  and  N_16
REMARK                            x       y       z     vdW  Elec       q    Type
REMARK                         _______ _______ _______ _____ _____    ______ ____
ROOT
ATOM      1  C   UNL     1      37.819   1.919  14.462  0.00  0.00    +0.000 A 
ATOM      2  C   UNL     1      36.782   2.786  14.707  0.00  0.00    +0.000 A 
ATOM      3  C   UNL     1      36.483   3.713  13.727  0.00  0.00    +0.000 A 
ATOM      4  C   UNL     1      35.358   4.662  13.979  0.00  0.00    +0.000 C 
ATOM      5  C   UNL     1      37.210   3.746  12.557  0.00  0.00    +0.000 A 
ATOM      6  C   UNL     1      38.248   2.866  12.332  0.00  0.00    +0.000 A 
ATOM      7  C   UNL     1      38.558   1.941  13.294  0.00  0.00    +0.000 A 
ATOM      8  C   UNL     1      39.687   0.968  13.073  0.00  0.00    +0.000 C 
ENDROOT
BRANCH   1  10
ATOM      9  N   UNL     1      37.635  -0.184  15.533  0.00  0.00    +0.000 NA
ATOM     10  N   UNL     1      38.210   0.916  15.421  0.00  0.00    +0.000 NA
BRANCH   9  17
ATOM     11  C   UNL     1      37.477  -2.300  20.048  0.00  0.00    +0.000 C 
ATOM     12  C   UNL     1      37.925  -2.250  18.640  0.00  0.00    +0.000 A 
ATOM     13  C   UNL     1      38.740  -3.260  18.182  0.00  0.00    +0.000 A 
ATOM     14  C   UNL     1      39.186  -3.256  16.867  0.00  0.00    +0.000 A 
ATOM     15  C   UNL     1      38.799  -2.217  16.012  0.00  0.00    +0.000 A 
ATOM     16  C   UNL     1      39.322  -2.292  14.622  0.00  0.00    +0.000 C 
ATOM     17  C   UNL     1      37.983  -1.201  16.461  0.00  0.00    +0.000 A 
ATOM     18  C   UNL     1      37.563  -1.242  17.771  0.00  0.00    +0.000 A 
ENDBRANCH   9  17
ENDBRANCH   1  10
BRANCH   5  19
ATOM     19  N   UNL     1      36.916   4.690  11.541  0.00  0.00    +0.000 NA
BRANCH  19  20
ATOM     20  N   UNL     1      36.659   4.279  10.221  0.00  0.00    +0.000 NA
ATOM     21  C   UNL     1      35.982   5.098   9.484  0.00  0.00    +0.000 C 
ATOM     22  C   UNL     1      35.500   6.384   9.969  0.00  0.00    +0.000 C 
ATOM     23  O   UNL     1      35.743   6.728  11.155  0.00  0.00    +0.000 OA
ATOM     24  C   UNL     1      34.748   7.227   9.056  0.00  0.00    +0.000 C 
ATOM     25  C   UNL     1      34.510   6.836   7.815  0.00  0.00    +0.000 C 
ATOM     26  C   UNL     1      34.987   5.547   7.313  0.00  0.00    +0.000 A 
ATOM     27  C   UNL     1      34.723   5.152   5.998  0.00  0.00    +0.000 A 
ATOM     28  C   UNL     1      35.151   3.960   5.492  0.00  0.00    +0.000 A 
ATOM     29  C   UNL     1      35.865   3.107   6.287  0.00  0.00    +0.000 A 
ATOM     30  C   UNL     1      36.144   3.471   7.598  0.00  0.00    +0.000 A 
ATOM     31  C   UNL     1      35.703   4.682   8.097  0.00  0.00    +0.000 A 
ENDBRANCH  19  20
ENDBRANCH   5  19
TORSDOF 4
ENDMDL
MODEL 10
REMARK VINA RESULT:      -7.9      6.387      8.622
REMARK  Name = 
REMARK  4 active torsions:
REMARK  status: ('A' for Active; 'I' for Inactive)
REMARK    1  A    between atoms: C_7  and  N_8
REMARK    2  A    between atoms: N_9  and  C_10
REMARK    3  A    between atoms: C_14  and  N_15
REMARK    4  A    between atoms: N_15  and  N_16
REMARK                            x       y       z     vdW  Elec       q    Type
REMARK                         _______ _______ _______ _____ _____    ______ ____
ROOT
ATOM      1  C   UNL     1      36.028   4.187  13.982  0.00  0.00    +0.000 A 
ATOM      2  C   UNL     1      35.025   5.071  14.298  0.00  0.00    +0.000 A 
ATOM      3  C   UNL     1      34.801   6.117  13.423  0.00  0.00    +0.000 A 
ATOM      4  C   UNL     1      33.714   7.086  13.753  0.00  0.00    +0.000 C 
ATOM      5  C   UNL     1      35.566   6.246  12.284  0.00  0.00    +0.000 A 
ATOM      6  C   UNL     1      36.568   5.347  11.987  0.00  0.00    +0.000 A 
ATOM      7  C   UNL     1      36.804   4.304  12.844  0.00  0.00    +0.000 A 
ATOM      8  C   UNL     1      37.893   3.307  12.542  0.00  0.00    +0.000 C 
ENDROOT
BRANCH   1  10
ATOM      9  N   UNL     1      35.685   2.004  14.830  0.00  0.00    +0.000 NA
ATOM     10  N   UNL     1      36.341   3.064  14.829  0.00  0.00    +0.000 NA
BRANCH   9  17
ATOM     11  C   UNL     1      35.588  -0.446  19.175  0.00  0.00    +0.000 C 
ATOM     12  C   UNL     1      35.921  -0.339  17.739  0.00  0.00    +0.000 A 
ATOM     13  C   UNL     1      36.539  -1.411  17.135  0.00  0.00    +0.000 A 
ATOM     14  C   UNL     1      36.872  -1.357  15.788  0.00  0.00    +0.000 A 
ATOM     15  C   UNL     1      36.574  -0.206  15.050  0.00  0.00    +0.000 A 
ATOM     16  C   UNL     1      36.964  -0.235  13.616  0.00  0.00    +0.000 C 
ATOM     17  C   UNL     1      35.955   0.872  15.645  0.00  0.00    +0.000 A 
ATOM     18  C   UNL     1      35.642   0.780  16.982  0.00  0.00    +0.000 A 
ENDBRANCH   9  17
ENDBRANCH   1  10
BRANCH   5  19
ATOM     19  N   UNL     1      35.349   7.313  11.376  0.00  0.00    +0.000 NA
BRANCH  19  20
ATOM     20  N   UNL     1      34.695   7.099  10.149  0.00  0.00    +0.000 NA
ATOM     21  C   UNL     1      34.767   8.057   9.283  0.00  0.00    +0.000 C 
ATOM     22  C   UNL     1      35.480   9.302   9.539  0.00  0.00    +0.000 C 
ATOM     23  O   UNL     1      36.055   9.468  10.645  0.00  0.00    +0.000 OA
ATOM     24  C   UNL     1      35.497  10.313   8.496  0.00  0.00    +0.000 C 
ATOM     25  C   UNL     1      34.881  10.106   7.344  0.00  0.00    +0.000 C 
ATOM     26  C   UNL     1      34.161   8.862   7.072  0.00  0.00    +0.000 A 
ATOM     27  C   UNL     1      33.516   8.664   5.847  0.00  0.00    +0.000 A 
ATOM     28  C   UNL     1      32.834   7.519   5.555  0.00  0.00    +0.000 A 
ATOM     29  C   UNL     1      32.769   6.517   6.483  0.00  0.00    +0.000 A 
ATOM     30  C   UNL     1      33.401   6.684   7.710  0.00  0.00    +0.000 A 
ATOM     31  C   UNL     1      34.087   7.850   7.991  0.00  0.00    +0.000 A 
ENDBRANCH  19  20
ENDBRANCH   5  19
TORSDOF 4
ENDMDL
