MODEL 1
REMARK VINA RESULT:      -7.0      0.000      0.000
REMARK  Name = 
REMARK  4 active torsions:
REMARK  status: ('A' for Active; 'I' for Inactive)
REMARK    1  A    between atoms: C_4  and  N_5
REMARK    2  A    between atoms: C_4  and  C_16
REMARK    3  A    between atoms: N_5  and  N_6
REMARK    4  A    between atoms: C_7  and  C_9
REMARK                            x       y       z     vdW  Elec       q    Type
REMARK                         _______ _______ _______ _____ _____    ______ ____
ROOT
ATOM      1  N   UNL     1      16.226  11.636  34.311  0.00  0.00    +0.000 NA
ATOM      2  C   UNL     1      16.304  11.360  35.712  0.00  0.00    +0.000 C 
ATOM      3  O   UNL     1      15.172  11.264  36.309  0.00  0.00    +0.000 OA
ENDROOT
BRANCH   2   4
ATOM      4  C   UNL     1      17.504  11.188  36.483  0.00  0.00    +0.000 A 
ATOM      5  C   UNL     1      18.035  12.144  37.321  0.00  0.00    +0.000 A 
ATOM      6  C   UNL     1      19.194  12.001  38.035  0.00  0.00    +0.000 A 
ATOM      7  C   UNL     1      19.915  10.823  37.935  0.00  0.00    +0.000 A 
ATOM      8  C   UNL     1      19.411   9.845  37.106  0.00  0.00    +0.000 A 
ATOM      9  C   UNL     1      18.241  10.014  36.396  0.00  0.00    +0.000 A 
ATOM     10 CL   UNL     1      17.589   8.750  35.339  0.00  0.00    +0.000 Cl
ENDBRANCH   2   4
BRANCH   1  11
ATOM     11  N   UNL     1      14.985  11.779  33.707  0.00  0.00    +0.000 NA
BRANCH  11  15
ATOM     12  C   UNL     1      13.664  14.050  34.490  0.00  0.00    +0.000 C 
ATOM     13  C   UNL     1      13.976  13.810  33.070  0.00  0.00    +0.000 C 
ATOM     14  C   UNL     1      13.549  14.829  32.077  0.00  0.00    +0.000 C 
ATOM     15  C   UNL     1      14.618  12.699  32.725  0.00  0.00    +0.000 C 
BRANCH  15  16
ATOM     16  C   UNL     1      14.928  12.421  31.312  0.00  0.00    +0.000 C 
ATOM     17  C   UNL     1      16.284  12.879  30.874  0.00  0.00    +0.000 C 
ATOM     18  C   UNL     1      14.726  10.985  30.930  0.00  0.00    +0.000 C 
ENDBRANCH  15  16
ENDBRANCH  11  15
ENDBRANCH   1  11
TORSDOF 4
ENDMDL
MODEL 2
REMARK VINA RESULT:      -6.9      3.129      3.951
REMARK  Name = 
REMARK  4 active torsions:
REMARK  status: ('A' for Active; 'I' for Inactive)
REMARK    1  A    between atoms: C_4  and  N_5
REMARK    2  A    between atoms: C_4  and  C_16
REMARK    3  A    between atoms: N_5  and  N_6
REMARK    4  A    between atoms: C_7  and  C_9
REMARK                            x       y       z     vdW  Elec       q    Type
REMARK                         _______ _______ _______ _____ _____    ______ ____
ROOT
ATOM      1  N   UNL     1      14.821  11.777  34.773  0.00  0.00    +0.000 NA
ATOM      2  C   UNL     1      13.898  12.259  35.753  0.00  0.00    +0.000 C 
ATOM      3  O   UNL     1      13.423  13.428  35.521  0.00  0.00    +0.000 OA
ENDROOT
BRANCH   2   4
ATOM      4  C   UNL     1      13.472  11.567  36.938  0.00  0.00    +0.000 A 
ATOM      5  C   UNL     1      12.176  11.171  37.186  0.00  0.00    +0.000 A 
ATOM      6  C   UNL     1      11.756  10.539  38.325  0.00  0.00    +0.000 A 
ATOM      7  C   UNL     1      12.671  10.260  39.326  0.00  0.00    +0.000 A 
ATOM      8  C   UNL     1      13.976  10.643  39.111  0.00  0.00    +0.000 A 
ATOM      9  C   UNL     1      14.375  11.278  37.954  0.00  0.00    +0.000 A 
ATOM     10 CL   UNL     1      16.057  11.759  37.674  0.00  0.00    +0.000 Cl
ENDBRANCH   2   4
BRANCH   1  11
ATOM     11  N   UNL     1      15.136  12.569  33.678  0.00  0.00    +0.000 NA
BRANCH  11  15
ATOM     12  C   UNL     1      13.836  14.435  32.149  0.00  0.00    +0.000 C 
ATOM     13  C   UNL     1      14.294  13.164  31.561  0.00  0.00    +0.000 C 
ATOM     14  C   UNL     1      14.025  12.921  30.120  0.00  0.00    +0.000 C 
ATOM     15  C   UNL     1      14.921  12.282  32.331  0.00  0.00    +0.000 C 
BRANCH  15  16
ATOM     16  C   UNL     1      15.375  10.993  31.778  0.00  0.00    +0.000 C 
ATOM     17  C   UNL     1      16.704  10.534  32.290  0.00  0.00    +0.000 C 
ATOM     18  C   UNL     1      14.364   9.895  31.922  0.00  0.00    +0.000 C 
ENDBRANCH  15  16
ENDBRANCH  11  15
ENDBRANCH   1  11
TORSDOF 4
ENDMDL
MODEL 3
REMARK VINA RESULT:      -6.3      2.166      6.478
REMARK  Name = 
REMARK  4 active torsions:
REMARK  status: ('A' for Active; 'I' for Inactive)
REMARK    1  A    between atoms: C_4  and  N_5
REMARK    2  A    between atoms: C_4  and  C_16
REMARK    3  A    between atoms: N_5  and  N_6
REMARK    4  A    between atoms: C_7  and  C_9
REMARK                            x       y       z     vdW  Elec       q    Type
REMARK                         _______ _______ _______ _____ _____    ______ ____
ROOT
ATOM      1  N   UNL     1      17.349  12.326  35.853  0.00  0.00    +0.000 NA
ATOM      2  C   UNL     1      16.198  11.679  35.302  0.00  0.00    +0.000 C 
ATOM      3  O   UNL     1      15.424  11.125  36.163  0.00  0.00    +0.000 OA
ENDROOT
BRANCH   2   4
ATOM      4  C   UNL     1      15.849  11.595  33.910  0.00  0.00    +0.000 A 
ATOM      5  C   UNL     1      16.430  10.727  33.012  0.00  0.00    +0.000 A 
ATOM      6  C   UNL     1      16.126  10.662  31.679  0.00  0.00    +0.000 A 
ATOM      7  C   UNL     1      15.168  11.516  31.157  0.00  0.00    +0.000 A 
ATOM      8  C   UNL     1      14.567  12.396  32.028  0.00  0.00    +0.000 A 
ATOM      9  C   UNL     1      14.891  12.442  33.367  0.00  0.00    +0.000 A 
ATOM     10 CL   UNL     1      14.108  13.568  34.489  0.00  0.00    +0.000 Cl
ENDBRANCH   2   4
BRANCH   1  11
ATOM     11  N   UNL     1      17.551  12.317  37.225  0.00  0.00    +0.000 NA
BRANCH  11  15
ATOM     12  C   UNL     1      19.791  13.683  38.018  0.00  0.00    +0.000 C 
ATOM     13  C   UNL     1      19.626  12.253  38.335  0.00  0.00    +0.000 C 
ATOM     14  C   UNL     1      20.711  11.574  39.090  0.00  0.00    +0.000 C 
ATOM     15  C   UNL     1      18.528  11.622  37.936  0.00  0.00    +0.000 C 
BRANCH  15  16
ATOM     16  C   UNL     1      18.342  10.189  38.221  0.00  0.00    +0.000 C 
ATOM     17  C   UNL     1      17.113   9.869  39.013  0.00  0.00    +0.000 C 
ATOM     18  C   UNL     1      18.399   9.326  36.996  0.00  0.00    +0.000 C 
ENDBRANCH  15  16
ENDBRANCH  11  15
ENDBRANCH   1  11
TORSDOF 4
ENDMDL
MODEL 4
REMARK VINA RESULT:      -6.2      2.620      6.629
REMARK  Name = 
REMARK  4 active torsions:
REMARK  status: ('A' for Active; 'I' for Inactive)
REMARK    1  A    between atoms: C_4  and  N_5
REMARK    2  A    between atoms: C_4  and  C_16
REMARK    3  A    between atoms: N_5  and  N_6
REMARK    4  A    between atoms: C_7  and  C_9
REMARK                            x       y       z     vdW  Elec       q    Type
REMARK                         _______ _______ _______ _____ _____    ______ ____
ROOT
ATOM      1  N   UNL     1      16.293  10.606  36.666  0.00  0.00    +0.000 NA
ATOM      2  C   UNL     1      16.526  11.558  35.625  0.00  0.00    +0.000 C 
ATOM      3  O   UNL     1      17.138  12.624  35.994  0.00  0.00    +0.000 OA
ENDROOT
BRANCH   2   4
ATOM      4  C   UNL     1      16.144  11.428  34.247  0.00  0.00    +0.000 A 
ATOM      5  C   UNL     1      16.771  10.602  33.339  0.00  0.00    +0.000 A 
ATOM      6  C   UNL     1      16.433  10.495  32.017  0.00  0.00    +0.000 A 
ATOM      7  C   UNL     1      15.389  11.255  31.516  0.00  0.00    +0.000 A 
ATOM      8  C   UNL     1      14.740  12.091  32.398  0.00  0.00    +0.000 A 
ATOM      9  C   UNL     1      15.100  12.181  33.725  0.00  0.00    +0.000 A 
ATOM     10 CL   UNL     1      14.255  13.249  34.860  0.00  0.00    +0.000 Cl
ENDBRANCH   2   4
BRANCH   1  11
ATOM     11  N   UNL     1      16.723  10.879  37.957  0.00  0.00    +0.000 NA
BRANCH  11  15
ATOM     12  C   UNL     1      16.062   9.546  40.259  0.00  0.00    +0.000 C 
ATOM     13  C   UNL     1      17.457   9.591  39.786  0.00  0.00    +0.000 C 
ATOM     14  C   UNL     1      18.494   8.900  40.595  0.00  0.00    +0.000 C 
ATOM     15  C   UNL     1      17.742  10.246  38.666  0.00  0.00    +0.000 C 
BRANCH  15  16
ATOM     16  C   UNL     1      19.130  10.326  38.177  0.00  0.00    +0.000 C 
ATOM     17  C   UNL     1      19.354   9.684  36.844  0.00  0.00    +0.000 C 
ATOM     18  C   UNL     1      19.680  11.721  38.171  0.00  0.00    +0.000 C 
ENDBRANCH  15  16
ENDBRANCH  11  15
ENDBRANCH   1  11
TORSDOF 4
ENDMDL
MODEL 5
REMARK VINA RESULT:      -6.0      1.654      2.027
REMARK  Name = 
REMARK  4 active torsions:
REMARK  status: ('A' for Active; 'I' for Inactive)
REMARK    1  A    between atoms: C_4  and  N_5
REMARK    2  A    between atoms: C_4  and  C_16
REMARK    3  A    between atoms: N_5  and  N_6
REMARK    4  A    between atoms: C_7  and  C_9
REMARK                            x       y       z     vdW  Elec       q    Type
REMARK                         _______ _______ _______ _____ _____    ______ ____
ROOT
ATOM      1  N   UNL     1      15.430  11.457  35.039  0.00  0.00    +0.000 NA
ATOM      2  C   UNL     1      16.293  11.835  36.115  0.00  0.00    +0.000 C 
ATOM      3  O   UNL     1      16.317  13.091  36.375  0.00  0.00    +0.000 OA
ENDROOT
BRANCH   2   4
ATOM      4  C   UNL     1      17.110  10.954  36.904  0.00  0.00    +0.000 A 
ATOM      5  C   UNL     1      18.368  10.525  36.540  0.00  0.00    +0.000 A 
ATOM      6  C   UNL     1      19.141   9.662  37.269  0.00  0.00    +0.000 A 
ATOM      7  C   UNL     1      18.659   9.162  38.467  0.00  0.00    +0.000 A 
ATOM      8  C   UNL     1      17.405   9.572  38.861  0.00  0.00    +0.000 A 
ATOM      9  C   UNL     1      16.645  10.442  38.108  0.00  0.00    +0.000 A 
ATOM     10 CL   UNL     1      15.036  10.977  38.623  0.00  0.00    +0.000 Cl
ENDBRANCH   2   4
BRANCH   1  11
ATOM     11  N   UNL     1      14.703  12.430  34.368  0.00  0.00    +0.000 NA
BRANCH  11  15
ATOM     12  C   UNL     1      13.351  14.641  33.476  0.00  0.00    +0.000 C 
ATOM     13  C   UNL     1      14.026  13.736  32.529  0.00  0.00    +0.000 C 
ATOM     14  C   UNL     1      13.946  14.052  31.079  0.00  0.00    +0.000 C 
ATOM     15  C   UNL     1      14.673  12.673  32.996  0.00  0.00    +0.000 C 
BRANCH  15  16
ATOM     16  C   UNL     1      15.342  11.739  32.074  0.00  0.00    +0.000 C 
ATOM     17  C   UNL     1      14.426  10.751  31.421  0.00  0.00    +0.000 C 
ATOM     18  C   UNL     1      16.177  12.425  31.034  0.00  0.00    +0.000 C 
ENDBRANCH  15  16
ENDBRANCH  11  15
ENDBRANCH   1  11
TORSDOF 4
ENDMDL
MODEL 6
REMARK VINA RESULT:      -5.8     21.577     23.329
REMARK  Name = 
REMARK  4 active torsions:
REMARK  status: ('A' for Active; 'I' for Inactive)
REMARK    1  A    between atoms: C_4  and  N_5
REMARK    2  A    between atoms: C_4  and  C_16
REMARK    3  A    between atoms: N_5  and  N_6
REMARK    4  A    between atoms: C_7  and  C_9
REMARK                            x       y       z     vdW  Elec       q    Type
REMARK                         _______ _______ _______ _____ _____    ______ ____
ROOT
ATOM      1  N   UNL     1      22.357  -8.456  25.607  0.00  0.00    +0.000 NA
ATOM      2  C   UNL     1      21.030  -8.159  25.163  0.00  0.00    +0.000 C 
ATOM      3  O   UNL     1      20.684  -8.734  24.069  0.00  0.00    +0.000 OA
ENDROOT
BRANCH   2   4
ATOM      4  C   UNL     1      20.083  -7.299  25.817  0.00  0.00    +0.000 A 
ATOM      5  C   UNL     1      20.053  -5.928  25.681  0.00  0.00    +0.000 A 
ATOM      6  C   UNL     1      19.174  -5.098  26.323  0.00  0.00    +0.000 A 
ATOM      7  C   UNL     1      18.230  -5.638  27.181  0.00  0.00    +0.000 A 
ATOM      8  C   UNL     1      18.232  -7.005  27.339  0.00  0.00    +0.000 A 
ATOM      9  C   UNL     1      19.128  -7.821  26.681  0.00  0.00    +0.000 A 
ATOM     10 CL   UNL     1      19.121  -9.582  26.876  0.00  0.00    +0.000 Cl
ENDBRANCH   2   4
BRANCH   1  11
ATOM     11  N   UNL     1      23.156  -9.308  24.860  0.00  0.00    +0.000 NA
BRANCH  11  15
ATOM     12  C   UNL     1      25.336 -10.841  25.503  0.00  0.00    +0.000 C 
ATOM     13  C   UNL     1      25.449  -9.736  24.535  0.00  0.00    +0.000 C 
ATOM     14  C   UNL     1      26.778  -9.472  23.925  0.00  0.00    +0.000 C 
ATOM     15  C   UNL     1      24.373  -9.013  24.246  0.00  0.00    +0.000 C 
BRANCH  15  16
ATOM     16  C   UNL     1      24.458  -7.889  23.297  0.00  0.00    +0.000 C 
ATOM     17  C   UNL     1      23.454  -7.938  22.188  0.00  0.00    +0.000 C 
ATOM     18  C   UNL     1      24.420  -6.545  23.962  0.00  0.00    +0.000 C 
ENDBRANCH  15  16
ENDBRANCH  11  15
ENDBRANCH   1  11
TORSDOF 4
ENDMDL
MODEL 7
REMARK VINA RESULT:      -5.7     20.293     21.718
REMARK  Name = 
REMARK  4 active torsions:
REMARK  status: ('A' for Active; 'I' for Inactive)
REMARK    1  A    between atoms: C_4  and  N_5
REMARK    2  A    between atoms: C_4  and  C_16
REMARK    3  A    between atoms: N_5  and  N_6
REMARK    4  A    between atoms: C_7  and  C_9
REMARK                            x       y       z     vdW  Elec       q    Type
REMARK                         _______ _______ _______ _____ _____    ______ ____
ROOT
ATOM      1  N   UNL     1      25.353   4.951  16.708  0.00  0.00    +0.000 NA
ATOM      2  C   UNL     1      25.291   3.995  17.771  0.00  0.00    +0.000 C 
ATOM      3  O   UNL     1      25.723   4.416  18.904  0.00  0.00    +0.000 OA
ENDROOT
BRANCH   2   4
ATOM      4  C   UNL     1      24.805   2.646  17.680  0.00  0.00    +0.000 A 
ATOM      5  C   UNL     1      25.574   1.564  17.309  0.00  0.00    +0.000 A 
ATOM      6  C   UNL     1      25.112   0.281  17.190  0.00  0.00    +0.000 A 
ATOM      7  C   UNL     1      23.779   0.010  17.452  0.00  0.00    +0.000 A 
ATOM      8  C   UNL     1      22.983   1.069  17.826  0.00  0.00    +0.000 A 
ATOM      9  C   UNL     1      23.472   2.353  17.939  0.00  0.00    +0.000 A 
ATOM     10 CL   UNL     1      22.448   3.713  18.431  0.00  0.00    +0.000 Cl
ENDBRANCH   2   4
BRANCH   1  11
ATOM     11  N   UNL     1      25.855   6.220  16.954  0.00  0.00    +0.000 NA
BRANCH  11  15
ATOM     12  C   UNL     1      26.196   7.231  14.430  0.00  0.00    +0.000 C 
ATOM     13  C   UNL     1      27.310   7.217  15.394  0.00  0.00    +0.000 C 
ATOM     14  C   UNL     1      28.623   7.759  14.957  0.00  0.00    +0.000 C 
ATOM     15  C   UNL     1      27.110   6.720  16.610  0.00  0.00    +0.000 C 
BRANCH  15  16
ATOM     16  C   UNL     1      28.208   6.674  17.590  0.00  0.00    +0.000 C 
ATOM     17  C   UNL     1      27.848   7.188  18.949  0.00  0.00    +0.000 C 
ATOM     18  C   UNL     1      28.844   5.321  17.709  0.00  0.00    +0.000 C 
ENDBRANCH  15  16
ENDBRANCH  11  15
ENDBRANCH   1  11
TORSDOF 4
ENDMDL
MODEL 8
REMARK VINA RESULT:      -5.5      3.380      7.130
REMARK  Name = 
REMARK  4 active torsions:
REMARK  status: ('A' for Active; 'I' for Inactive)
REMARK    1  A    between atoms: C_4  and  N_5
REMARK    2  A    between atoms: C_4  and  C_16
REMARK    3  A    between atoms: N_5  and  N_6
REMARK    4  A    between atoms: C_7  and  C_9
REMARK                            x       y       z     vdW  Elec       q    Type
REMARK                         _______ _______ _______ _____ _____    ______ ____
ROOT
ATOM      1  N   UNL     1      18.643  11.291  37.911  0.00  0.00    +0.000 NA
ATOM      2  C   UNL     1      17.557  10.571  37.322  0.00  0.00    +0.000 C 
ATOM      3  O   UNL     1      17.846   9.385  36.926  0.00  0.00    +0.000 OA
ENDROOT
BRANCH   2   4
ATOM      4  C   UNL     1      16.215  11.049  37.138  0.00  0.00    +0.000 A 
ATOM      5  C   UNL     1      15.237  11.017  38.108  0.00  0.00    +0.000 A 
ATOM      6  C   UNL     1      13.947  11.441  37.933  0.00  0.00    +0.000 A 
ATOM      7  C   UNL     1      13.558  11.946  36.704  0.00  0.00    +0.000 A 
ATOM      8  C   UNL     1      14.511  11.992  35.711  0.00  0.00    +0.000 A 
ATOM      9  C   UNL     1      15.804  11.558  35.913  0.00  0.00    +0.000 A 
ATOM     10 CL   UNL     1      17.032  11.630  34.638  0.00  0.00    +0.000 Cl
ENDBRANCH   2   4
BRANCH   1  11
ATOM     11  N   UNL     1      19.889  10.692  38.016  0.00  0.00    +0.000 NA
BRANCH  11  15
ATOM     12  C   UNL     1      21.918   9.714  36.453  0.00  0.00    +0.000 C 
ATOM     13  C   UNL     1      22.138  10.871  37.339  0.00  0.00    +0.000 C 
ATOM     14  C   UNL     1      23.490  11.487  37.365  0.00  0.00    +0.000 C 
ATOM     15  C   UNL     1      21.132  11.320  38.082  0.00  0.00    +0.000 C 
BRANCH  15  16
ATOM     16  C   UNL     1      21.325  12.463  38.991  0.00  0.00    +0.000 C 
ATOM     17  C   UNL     1      20.573  13.697  38.602  0.00  0.00    +0.000 C 
ATOM     18  C   UNL     1      21.054  12.132  40.429  0.00  0.00    +0.000 C 
ENDBRANCH  15  16
ENDBRANCH  11  15
ENDBRANCH   1  11
TORSDOF 4
ENDMDL
MODEL 9
REMARK VINA RESULT:      -5.5     17.608     19.191
REMARK  Name = 
REMARK  4 active torsions:
REMARK  status: ('A' for Active; 'I' for Inactive)
REMARK    1  A    between atoms: C_4  and  N_5
REMARK    2  A    between atoms: C_4  and  C_16
REMARK    3  A    between atoms: N_5  and  N_6
REMARK    4  A    between atoms: C_7  and  C_9
REMARK                            x       y       z     vdW  Elec       q    Type
REMARK                         _______ _______ _______ _____ _____    ______ ____
ROOT
ATOM      1  N   UNL     1      27.964  23.728  25.955  0.00  0.00    +0.000 NA
ATOM      2  C   UNL     1      26.611  23.681  26.414  0.00  0.00    +0.000 C 
ATOM      3  O   UNL     1      25.789  23.095  25.621  0.00  0.00    +0.000 OA
ENDROOT
BRANCH   2   4
ATOM      4  C   UNL     1      26.108  24.220  27.648  0.00  0.00    +0.000 A 
ATOM      5  C   UNL     1      25.279  25.317  27.738  0.00  0.00    +0.000 A 
ATOM      6  C   UNL     1      24.821  25.856  28.910  0.00  0.00    +0.000 A 
ATOM      7  C   UNL     1      25.196  25.286  30.114  0.00  0.00    +0.000 A 
ATOM      8  C   UNL     1      26.024  24.187  30.060  0.00  0.00    +0.000 A 
ATOM      9  C   UNL     1      26.473  23.662  28.867  0.00  0.00    +0.000 A 
ATOM     10 CL   UNL     1      27.529  22.242  28.799  0.00  0.00    +0.000 Cl
ENDBRANCH   2   4
BRANCH   1  11
ATOM     11  N   UNL     1      28.294  23.162  24.732  0.00  0.00    +0.000 NA
BRANCH  11  15
ATOM     12  C   UNL     1      27.031  23.848  22.398  0.00  0.00    +0.000 C 
ATOM     13  C   UNL     1      28.478  24.071  22.567  0.00  0.00    +0.000 C 
ATOM     14  C   UNL     1      29.231  24.671  21.436  0.00  0.00    +0.000 C 
ATOM     15  C   UNL     1      29.058  23.727  23.712  0.00  0.00    +0.000 C 
BRANCH  15  16
ATOM     16  C   UNL     1      30.506  23.920  23.905  0.00  0.00    +0.000 C 
ATOM     17  C   UNL     1      30.877  25.220  24.546  0.00  0.00    +0.000 C 
ATOM     18  C   UNL     1      31.165  22.786  24.631  0.00  0.00    +0.000 C 
ENDBRANCH  15  16
ENDBRANCH  11  15
ENDBRANCH   1  11
TORSDOF 4
ENDMDL
MODEL 10
REMARK VINA RESULT:      -5.4      3.034      7.099
REMARK  Name = 
REMARK  4 active torsions:
REMARK  status: ('A' for Active; 'I' for Inactive)
REMARK    1  A    between atoms: C_4  and  N_5
REMARK    2  A    between atoms: C_4  and  C_16
REMARK    3  A    between atoms: N_5  and  N_6
REMARK    4  A    between atoms: C_7  and  C_9
REMARK                            x       y       z     vdW  Elec       q    Type
REMARK                         _______ _______ _______ _____ _____    ______ ____
ROOT
ATOM      1  N   UNL     1      18.493  10.663  37.232  0.00  0.00    +0.000 NA
ATOM      2  C   UNL     1      17.283  10.295  36.563  0.00  0.00    +0.000 C 
ATOM      3  O   UNL     1      17.295   9.132  36.022  0.00  0.00    +0.000 OA
ENDROOT
BRANCH   2   4
ATOM      4  C   UNL     1      16.094  11.094  36.448  0.00  0.00    +0.000 A 
ATOM      5  C   UNL     1      15.150  11.234  37.442  0.00  0.00    +0.000 A 
ATOM      6  C   UNL     1      14.000  11.967  37.330  0.00  0.00    +0.000 A 
ATOM      7  C   UNL     1      13.729  12.633  36.147  0.00  0.00    +0.000 A 
ATOM      8  C   UNL     1      14.653  12.515  35.132  0.00  0.00    +0.000 A 
ATOM      9  C   UNL     1      15.804  11.770  35.269  0.00  0.00    +0.000 A 
ATOM     10 CL   UNL     1      16.997  11.629  33.967  0.00  0.00    +0.000 Cl
ENDBRANCH   2   4
BRANCH   1  11
ATOM     11  N   UNL     1      19.561   9.779  37.253  0.00  0.00    +0.000 NA
BRANCH  11  15
ATOM     12  C   UNL     1      19.219   8.409  39.602  0.00  0.00    +0.000 C 
ATOM     13  C   UNL     1      20.490   9.094  39.306  0.00  0.00    +0.000 C 
ATOM     14  C   UNL     1      21.575   9.026  40.319  0.00  0.00    +0.000 C 
ATOM     15  C   UNL     1      20.622   9.748  38.158  0.00  0.00    +0.000 C 
BRANCH  15  16
ATOM     16  C   UNL     1      21.873  10.459  37.840  0.00  0.00    +0.000 C 
ATOM     17  C   UNL     1      22.406  10.191  36.468  0.00  0.00    +0.000 C 
ATOM     18  C   UNL     1      21.794  11.938  38.077  0.00  0.00    +0.000 C 
ENDBRANCH  15  16
ENDBRANCH  11  15
ENDBRANCH   1  11
TORSDOF 4
ENDMDL
