MODEL 1
REMARK VINA RESULT:      -6.6      0.000      0.000
REMARK  Name = 
REMARK  2 active torsions:
REMARK  status: ('A' for Active; 'I' for Inactive)
REMARK    1  A    between atoms: C_5  and  C_6
REMARK    2  A    between atoms: C_11  and  N_12
REMARK                            x       y       z     vdW  Elec       q    Type
REMARK                         _______ _______ _______ _____ _____    ______ ____
ROOT
ATOM      1  C   UNL     1      26.099  26.100  24.813  0.00  0.00    +0.000 C 
ATOM      2  C   UNL     1      25.791  24.662  25.459  0.00  0.00    +0.000 C 
ATOM      3  C   UNL     1      25.453  23.871  24.098  0.00  0.00    +0.000 C 
ATOM      4  C   UNL     1      26.710  23.373  23.460  0.00  0.00    +0.000 C 
ATOM      5  C   UNL     1      27.385  24.849  23.269  0.00  0.00    +0.000 C 
ATOM      6  C   UNL     1      28.218  24.888  24.661  0.00  0.00    +0.000 C 
ATOM      7  C   UNL     1      27.343  24.063  25.737  0.00  0.00    +0.000 C 
ENDROOT
BRANCH   7   8
ATOM      8  N   UNL     1      27.644  24.959  26.968  0.00  0.00    +0.000 N 
ATOM      9  C   UNL     1      28.733  25.898  26.871  0.00  0.00    +0.000 C 
ATOM     10  C   UNL     1      26.897  24.866  28.143  0.00  0.00    +0.000 A 
ATOM     11  N   UNL     1      26.220  26.009  28.473  0.00  0.00    +0.000 NA
ATOM     12  C   UNL     1      25.466  26.033  29.583  0.00  0.00    +0.000 A 
ATOM     13  N   UNL     1      25.355  24.962  30.386  0.00  0.00    +0.000 NA
ATOM     14  C   UNL     1      26.005  23.824  30.094  0.00  0.00    +0.000 A 
ATOM     15  N   UNL     1      26.096  22.617  30.680  0.00  0.00    +0.000 NA
ATOM     16  C   UNL     1      26.895  21.833  29.957  0.00  0.00    +0.000 A 
ATOM     17  C   UNL     1      27.358  22.529  28.851  0.00  0.00    +0.000 A 
ATOM     18  C   UNL     1      26.785  23.779  28.956  0.00  0.00    +0.000 A 
ENDBRANCH   7   8
BRANCH   5  19
ATOM     19  C   UNL     1      28.637  24.309  22.370  0.00  0.00    +0.000 C 
ATOM     20  C   UNL     1      29.828  24.294  23.318  0.00  0.00    +0.000 C 
ATOM     21  C   UNL     1      28.777  25.407  21.340  0.00  0.00    +0.000 C 
ATOM     22  O   UNL     1      28.318  23.099  21.853  0.00  0.00    +0.000 OA
ENDBRANCH   5  19
TORSDOF 2
ENDMDL
MODEL 2
REMARK VINA RESULT:      -6.5      1.561      3.107
REMARK  Name = 
REMARK  2 active torsions:
REMARK  status: ('A' for Active; 'I' for Inactive)
REMARK    1  A    between atoms: C_5  and  C_6
REMARK    2  A    between atoms: C_11  and  N_12
REMARK                            x       y       z     vdW  Elec       q    Type
REMARK                         _______ _______ _______ _____ _____    ______ ____
ROOT
ATOM      1  C   UNL     1      29.320  23.043  25.364  0.00  0.00    +0.000 C 
ATOM      2  C   UNL     1      28.986  24.439  26.087  0.00  0.00    +0.000 C 
ATOM      3  C   UNL     1      30.072  25.352  25.328  0.00  0.00    +0.000 C 
ATOM      4  C   UNL     1      29.525  25.837  24.025  0.00  0.00    +0.000 C 
ATOM      5  C   UNL     1      29.288  24.349  23.390  0.00  0.00    +0.000 C 
ATOM      6  C   UNL     1      27.747  24.158  23.859  0.00  0.00    +0.000 C 
ATOM      7  C   UNL     1      27.599  24.936  25.266  0.00  0.00    +0.000 C 
ENDROOT
BRANCH   7   8
ATOM      8  N   UNL     1      26.636  23.930  25.950  0.00  0.00    +0.000 N 
ATOM      9  C   UNL     1      26.072  22.876  25.143  0.00  0.00    +0.000 C 
ATOM     10  C   UNL     1      26.309  24.032  27.303  0.00  0.00    +0.000 A 
ATOM     11  N   UNL     1      26.695  22.957  28.059  0.00  0.00    +0.000 NA
ATOM     12  C   UNL     1      26.435  22.949  29.375  0.00  0.00    +0.000 A 
ATOM     13  N   UNL     1      25.803  23.970  29.978  0.00  0.00    +0.000 NA
ATOM     14  C   UNL     1      25.409  25.039  29.268  0.00  0.00    +0.000 A 
ATOM     15  N   UNL     1      24.773  26.186  29.570  0.00  0.00    +0.000 NA
ATOM     16  C   UNL     1      24.628  26.916  28.465  0.00  0.00    +0.000 A 
ATOM     17  C   UNL     1      25.182  26.245  27.385  0.00  0.00    +0.000 A 
ATOM     18  C   UNL     1      25.668  25.067  27.913  0.00  0.00    +0.000 A 
ENDBRANCH   7   8
BRANCH   5  19
ATOM     19  C   UNL     1      28.914  24.898  21.898  0.00  0.00    +0.000 C 
ATOM     20  C   UNL     1      29.092  26.408  21.975  0.00  0.00    +0.000 C 
ATOM     21  C   UNL     1      27.451  24.529  21.789  0.00  0.00    +0.000 C 
ATOM     22  O   UNL     1      29.711  24.286  20.991  0.00  0.00    +0.000 OA
ENDBRANCH   5  19
TORSDOF 2
ENDMDL
MODEL 3
REMARK VINA RESULT:      -6.1      2.519      3.746
REMARK  Name = 
REMARK  2 active torsions:
REMARK  status: ('A' for Active; 'I' for Inactive)
REMARK    1  A    between atoms: C_5  and  C_6
REMARK    2  A    between atoms: C_11  and  N_12
REMARK                            x       y       z     vdW  Elec       q    Type
REMARK                         _______ _______ _______ _____ _____    ______ ____
ROOT
ATOM      1  C   UNL     1      31.220  25.779  24.694  0.00  0.00    +0.000 C 
ATOM      2  C   UNL     1      29.840  25.648  25.507  0.00  0.00    +0.000 C 
ATOM      3  C   UNL     1      29.012  26.790  24.732  0.00  0.00    +0.000 C 
ATOM      4  C   UNL     1      28.393  26.234  23.490  0.00  0.00    +0.000 C 
ATOM      5  C   UNL     1      29.806  25.793  22.795  0.00  0.00    +0.000 C 
ATOM      6  C   UNL     1      29.850  24.267  23.345  0.00  0.00    +0.000 C 
ATOM      7  C   UNL     1      29.143  24.286  24.796  0.00  0.00    +0.000 C 
ENDROOT
BRANCH   7   8
ATOM      8  N   UNL     1      30.073  23.251  25.484  0.00  0.00    +0.000 N 
ATOM      9  C   UNL     1      30.805  22.335  24.645  0.00  0.00    +0.000 C 
ATOM     10  C   UNL     1      30.203  23.191  26.872  0.00  0.00    +0.000 A 
ATOM     11  N   UNL     1      31.466  23.446  27.332  0.00  0.00    +0.000 NA
ATOM     12  C   UNL     1      31.707  23.419  28.653  0.00  0.00    +0.000 A 
ATOM     13  N   UNL     1      30.738  23.145  29.542  0.00  0.00    +0.000 NA
ATOM     14  C   UNL     1      29.487  22.889  29.127  0.00  0.00    +0.000 A 
ATOM     15  N   UNL     1      28.333  22.588  29.749  0.00  0.00    +0.000 NA
ATOM     16  C   UNL     1      27.370  22.427  28.843  0.00  0.00    +0.000 A 
ATOM     17  C   UNL     1      27.887  22.623  27.571  0.00  0.00    +0.000 A 
ATOM     18  C   UNL     1      29.220  22.913  27.773  0.00  0.00    +0.000 A 
ENDBRANCH   7   8
BRANCH   5  19
ATOM     19  C   UNL     1      29.133  25.406  21.359  0.00  0.00    +0.000 C 
ATOM     20  C   UNL     1      29.408  26.601  20.457  0.00  0.00    +0.000 C 
ATOM     21  C   UNL     1      27.665  25.321  21.716  0.00  0.00    +0.000 C 
ATOM     22  O   UNL     1      29.667  24.241  20.922  0.00  0.00    +0.000 OA
ENDBRANCH   5  19
TORSDOF 2
ENDMDL
MODEL 4
REMARK VINA RESULT:      -5.8     27.954     30.744
REMARK  Name = 
REMARK  2 active torsions:
REMARK  status: ('A' for Active; 'I' for Inactive)
REMARK    1  A    between atoms: C_5  and  C_6
REMARK    2  A    between atoms: C_11  and  N_12
REMARK                            x       y       z     vdW  Elec       q    Type
REMARK                         _______ _______ _______ _____ _____    ______ ____
ROOT
ATOM      1  C   UNL     1      34.433  -7.095  33.278  0.00  0.00    +0.000 C 
ATOM      2  C   UNL     1      35.042  -5.649  32.935  0.00  0.00    +0.000 C 
ATOM      3  C   UNL     1      35.674  -6.005  31.498  0.00  0.00    +0.000 C 
ATOM      4  C   UNL     1      34.639  -5.880  30.428  0.00  0.00    +0.000 C 
ATOM      5  C   UNL     1      33.630  -7.005  31.053  0.00  0.00    +0.000 C 
ATOM      6  C   UNL     1      32.707  -6.002  31.933  0.00  0.00    +0.000 C 
ATOM      7  C   UNL     1      33.675  -4.805  32.422  0.00  0.00    +0.000 C 
ENDROOT
BRANCH   7   8
ATOM      8  N   UNL     1      33.060  -4.617  33.835  0.00  0.00    +0.000 N 
ATOM      9  C   UNL     1      31.821  -5.291  34.129  0.00  0.00    +0.000 C 
ATOM     10  C   UNL     1      33.674  -3.818  34.800  0.00  0.00    +0.000 A 
ATOM     11  N   UNL     1      34.062  -4.493  35.927  0.00  0.00    +0.000 NA
ATOM     12  C   UNL     1      34.666  -3.824  36.922  0.00  0.00    +0.000 A 
ATOM     13  N   UNL     1      34.903  -2.504  36.845  0.00  0.00    +0.000 NA
ATOM     14  C   UNL     1      34.535  -1.810  35.756  0.00  0.00    +0.000 A 
ATOM     15  N   UNL     1      34.627  -0.519  35.388  0.00  0.00    +0.000 NA
ATOM     16  C   UNL     1      34.091  -0.364  34.178  0.00  0.00    +0.000 A 
ATOM     17  C   UNL     1      33.623  -1.584  33.714  0.00  0.00    +0.000 A 
ATOM     18  C   UNL     1      33.913  -2.480  34.722  0.00  0.00    +0.000 A 
ENDBRANCH   7   8
BRANCH   5  19
ATOM     19  C   UNL     1      32.630  -7.020  29.762  0.00  0.00    +0.000 C 
ATOM     20  C   UNL     1      33.171  -5.946  28.829  0.00  0.00    +0.000 C 
ATOM     21  C   UNL     1      31.318  -6.591  30.380  0.00  0.00    +0.000 C 
ATOM     22  O   UNL     1      32.614  -8.265  29.232  0.00  0.00    +0.000 OA
ENDBRANCH   5  19
TORSDOF 2
ENDMDL
MODEL 5
REMARK VINA RESULT:      -5.8     18.118     21.145
REMARK  Name = 
REMARK  2 active torsions:
REMARK  status: ('A' for Active; 'I' for Inactive)
REMARK    1  A    between atoms: C_5  and  C_6
REMARK    2  A    between atoms: C_11  and  N_12
REMARK                            x       y       z     vdW  Elec       q    Type
REMARK                         _______ _______ _______ _____ _____    ______ ____
ROOT
ATOM      1  C   UNL     1      19.985  11.533  38.155  0.00  0.00    +0.000 C 
ATOM      2  C   UNL     1      19.775   9.961  37.905  0.00  0.00    +0.000 C 
ATOM      3  C   UNL     1      20.556   9.849  36.501  0.00  0.00    +0.000 C 
ATOM      4  C   UNL     1      22.021   9.668  36.733  0.00  0.00    +0.000 C 
ATOM      5  C   UNL     1      22.225  11.073  37.544  0.00  0.00    +0.000 C 
ATOM      6  C   UNL     1      22.012  10.491  39.043  0.00  0.00    +0.000 C 
ATOM      7  C   UNL     1      20.945   9.286  38.915  0.00  0.00    +0.000 C 
ENDROOT
BRANCH   7   8
ATOM      8  N   UNL     1      20.186   9.550  40.242  0.00  0.00    +0.000 N 
ATOM      9  C   UNL     1      20.778  10.458  41.192  0.00  0.00    +0.000 C 
ATOM     10  C   UNL     1      18.968   8.930  40.525  0.00  0.00    +0.000 A 
ATOM     11  N   UNL     1      17.917   9.795  40.676  0.00  0.00    +0.000 NA
ATOM     12  C   UNL     1      16.695   9.309  40.948  0.00  0.00    +0.000 A 
ATOM     13  N   UNL     1      16.472   7.990  41.078  0.00  0.00    +0.000 NA
ATOM     14  C   UNL     1      17.479   7.114  40.938  0.00  0.00    +0.000 A 
ATOM     15  N   UNL     1      17.575   5.774  41.008  0.00  0.00    +0.000 NA
ATOM     16  C   UNL     1      18.837   5.408  40.785  0.00  0.00    +0.000 A 
ATOM     17  C   UNL     1      19.616   6.532  40.557  0.00  0.00    +0.000 A 
ATOM     18  C   UNL     1      18.742   7.594  40.657  0.00  0.00    +0.000 A 
ENDBRANCH   7   8
BRANCH   5  19
ATOM     19  C   UNL     1      23.855  10.969  37.583  0.00  0.00    +0.000 C 
ATOM     20  C   UNL     1      24.326  12.317  38.108  0.00  0.00    +0.000 C 
ATOM     21  C   UNL     1      24.192  10.809  36.117  0.00  0.00    +0.000 C 
ATOM     22  O   UNL     1      24.210   9.914  38.353  0.00  0.00    +0.000 OA
ENDBRANCH   5  19
TORSDOF 2
ENDMDL
MODEL 6
REMARK VINA RESULT:      -5.8     32.922     35.209
REMARK  Name = 
REMARK  2 active torsions:
REMARK  status: ('A' for Active; 'I' for Inactive)
REMARK    1  A    between atoms: C_5  and  C_6
REMARK    2  A    between atoms: C_11  and  N_12
REMARK                            x       y       z     vdW  Elec       q    Type
REMARK                         _______ _______ _______ _____ _____    ______ ____
ROOT
ATOM      1  C   UNL     1      15.981 -10.700  24.622  0.00  0.00    +0.000 C 
ATOM      2  C   UNL     1      16.018  -9.095  24.567  0.00  0.00    +0.000 C 
ATOM      3  C   UNL     1      14.545  -8.856  23.962  0.00  0.00    +0.000 C 
ATOM      4  C   UNL     1      13.528  -8.846  25.057  0.00  0.00    +0.000 C 
ATOM      5  C   UNL     1      13.840 -10.365  25.574  0.00  0.00    +0.000 C 
ATOM      6  C   UNL     1      14.932  -9.986  26.713  0.00  0.00    +0.000 C 
ATOM      7  C   UNL     1      15.716  -8.682  26.174  0.00  0.00    +0.000 C 
ENDROOT
BRANCH   7   8
ATOM      8  N   UNL     1      17.123  -9.062  26.706  0.00  0.00    +0.000 N 
ATOM      9  C   UNL     1      17.207 -10.042  27.760  0.00  0.00    +0.000 C 
ATOM     10  C   UNL     1      18.283  -8.477  26.195  0.00  0.00    +0.000 A 
ATOM     11  N   UNL     1      19.143  -9.359  25.597  0.00  0.00    +0.000 NA
ATOM     12  C   UNL     1      20.290  -8.907  25.066  0.00  0.00    +0.000 A 
ATOM     13  N   UNL     1      20.622  -7.605  25.106  0.00  0.00    +0.000 NA
ATOM     14  C   UNL     1      19.804  -6.713  25.685  0.00  0.00    +0.000 A 
ATOM     15  N   UNL     1      19.852  -5.382  25.881  0.00  0.00    +0.000 NA
ATOM     16  C   UNL     1      18.754  -4.990  26.526  0.00  0.00    +0.000 A 
ATOM     17  C   UNL     1      17.940  -6.085  26.774  0.00  0.00    +0.000 A 
ATOM     18  C   UNL     1      18.619  -7.158  26.236  0.00  0.00    +0.000 A 
ENDBRANCH   7   8
BRANCH   5  19
ATOM     19  C   UNL     1      12.574 -10.418  26.605  0.00  0.00    +0.000 C 
ATOM     20  C   UNL     1      12.157  -8.967  26.795  0.00  0.00    +0.000 C 
ATOM     21  C   UNL     1      13.217 -10.967  27.859  0.00  0.00    +0.000 C 
ATOM     22  O   UNL     1      11.612 -11.212  26.080  0.00  0.00    +0.000 OA
ENDBRANCH   5  19
TORSDOF 2
ENDMDL
MODEL 7
REMARK VINA RESULT:      -5.7      3.110      4.584
REMARK  Name = 
REMARK  2 active torsions:
REMARK  status: ('A' for Active; 'I' for Inactive)
REMARK    1  A    between atoms: C_5  and  C_6
REMARK    2  A    between atoms: C_11  and  N_12
REMARK                            x       y       z     vdW  Elec       q    Type
REMARK                         _______ _______ _______ _____ _____    ______ ____
ROOT
ATOM      1  C   UNL     1      30.350  22.288  24.681  0.00  0.00    +0.000 C 
ATOM      2  C   UNL     1      30.609  23.701  25.400  0.00  0.00    +0.000 C 
ATOM      3  C   UNL     1      30.466  24.644  24.104  0.00  0.00    +0.000 C 
ATOM      4  C   UNL     1      29.030  24.975  23.857  0.00  0.00    +0.000 C 
ATOM      5  C   UNL     1      28.544  23.426  23.660  0.00  0.00    +0.000 C 
ATOM      6  C   UNL     1      28.115  23.137  25.198  0.00  0.00    +0.000 C 
ATOM      7  C   UNL     1      29.115  24.007  26.119  0.00  0.00    +0.000 C 
ENDROOT
BRANCH   7   8
ATOM      8  N   UNL     1      29.273  22.977  27.269  0.00  0.00    +0.000 N 
ATOM      9  C   UNL     1      28.285  21.934  27.385  0.00  0.00    +0.000 C 
ATOM     10  C   UNL     1      30.332  23.048  28.176  0.00  0.00    +0.000 A 
ATOM     11  N   UNL     1      31.166  21.963  28.155  0.00  0.00    +0.000 NA
ATOM     12  C   UNL     1      32.221  21.925  28.984  0.00  0.00    +0.000 A 
ATOM     13  N   UNL     1      32.484  22.926  29.841  0.00  0.00    +0.000 NA
ATOM     14  C   UNL     1      31.687  24.005  29.889  0.00  0.00    +0.000 A 
ATOM     15  N   UNL     1      31.681  25.138  30.615  0.00  0.00    +0.000 NA
ATOM     16  C   UNL     1      30.641  25.889  30.256  0.00  0.00    +0.000 A 
ATOM     17  C   UNL     1      29.921  25.246  29.260  0.00  0.00    +0.000 A 
ATOM     18  C   UNL     1      30.597  24.064  29.044  0.00  0.00    +0.000 A 
ENDBRANCH   7   8
BRANCH   5  19
ATOM     19  C   UNL     1      27.037  23.821  23.166  0.00  0.00    +0.000 C 
ATOM     20  C   UNL     1      26.928  25.322  23.387  0.00  0.00    +0.000 C 
ATOM     21  C   UNL     1      26.178  23.063  24.155  0.00  0.00    +0.000 C 
ATOM     22  O   UNL     1      26.880  23.431  21.879  0.00  0.00    +0.000 OA
ENDBRANCH   5  19
TORSDOF 2
ENDMDL
MODEL 8
REMARK VINA RESULT:      -5.7      2.832      6.454
REMARK  Name = 
REMARK  2 active torsions:
REMARK  status: ('A' for Active; 'I' for Inactive)
REMARK    1  A    between atoms: C_5  and  C_6
REMARK    2  A    between atoms: C_11  and  N_12
REMARK                            x       y       z     vdW  Elec       q    Type
REMARK                         _______ _______ _______ _____ _____    ______ ____
ROOT
ATOM      1  C   UNL     1      29.256  25.037  28.053  0.00  0.00    +0.000 C 
ATOM      2  C   UNL     1      28.666  23.833  27.168  0.00  0.00    +0.000 C 
ATOM      3  C   UNL     1      28.620  22.708  28.318  0.00  0.00    +0.000 C 
ATOM      4  C   UNL     1      27.354  22.819  29.104  0.00  0.00    +0.000 C 
ATOM      5  C   UNL     1      27.624  24.346  29.622  0.00  0.00    +0.000 C 
ATOM      6  C   UNL     1      26.841  25.120  28.430  0.00  0.00    +0.000 C 
ATOM      7  C   UNL     1      27.025  24.217  27.105  0.00  0.00    +0.000 C 
ENDROOT
BRANCH   7   8
ATOM      8  N   UNL     1      27.169  25.382  26.090  0.00  0.00    +0.000 N 
ATOM      9  C   UNL     1      26.829  26.712  26.531  0.00  0.00    +0.000 C 
ATOM     10  C   UNL     1      27.609  25.165  24.783  0.00  0.00    +0.000 A 
ATOM     11  N   UNL     1      28.781  25.799  24.469  0.00  0.00    +0.000 NA
ATOM     12  C   UNL     1      29.299  25.658  23.239  0.00  0.00    +0.000 A 
ATOM     13  N   UNL     1      28.698  24.909  22.299  0.00  0.00    +0.000 NA
ATOM     14  C   UNL     1      27.547  24.274  22.571  0.00  0.00    +0.000 A 
ATOM     15  N   UNL     1      26.725  23.476  21.867  0.00  0.00    +0.000 NA
ATOM     16  C   UNL     1      25.698  23.111  22.633  0.00  0.00    +0.000 A 
ATOM     17  C   UNL     1      25.828  23.679  23.891  0.00  0.00    +0.000 A 
ATOM     18  C   UNL     1      26.998  24.406  23.831  0.00  0.00    +0.000 A 
ENDBRANCH   7   8
BRANCH   5  19
ATOM     19  C   UNL     1      26.359  24.362  30.655  0.00  0.00    +0.000 C 
ATOM     20  C   UNL     1      25.332  25.282  30.010  0.00  0.00    +0.000 C 
ATOM     21  C   UNL     1      26.968  25.005  31.882  0.00  0.00    +0.000 C 
ATOM     22  O   UNL     1      25.931  23.093  30.847  0.00  0.00    +0.000 OA
ENDBRANCH   5  19
TORSDOF 2
ENDMDL
MODEL 9
REMARK VINA RESULT:      -5.5      3.451      6.297
REMARK  Name = 
REMARK  2 active torsions:
REMARK  status: ('A' for Active; 'I' for Inactive)
REMARK    1  A    between atoms: C_5  and  C_6
REMARK    2  A    between atoms: C_11  and  N_12
REMARK                            x       y       z     vdW  Elec       q    Type
REMARK                         _______ _______ _______ _____ _____    ______ ____
ROOT
ATOM      1  C   UNL     1      28.657  24.990  30.581  0.00  0.00    +0.000 C 
ATOM      2  C   UNL     1      28.943  24.595  29.051  0.00  0.00    +0.000 C 
ATOM      3  C   UNL     1      30.548  24.715  29.082  0.00  0.00    +0.000 C 
ATOM      4  C   UNL     1      31.156  23.443  29.578  0.00  0.00    +0.000 C 
ATOM      5  C   UNL     1      30.418  23.474  31.036  0.00  0.00    +0.000 C 
ATOM      6  C   UNL     1      29.117  22.589  30.639  0.00  0.00    +0.000 C 
ATOM      7  C   UNL     1      28.801  22.915  29.090  0.00  0.00    +0.000 C 
ENDROOT
BRANCH   7   8
ATOM      8  N   UNL     1      27.253  22.885  29.192  0.00  0.00    +0.000 N 
ATOM      9  C   UNL     1      26.657  22.054  30.208  0.00  0.00    +0.000 C 
ATOM     10  C   UNL     1      26.447  23.631  28.331  0.00  0.00    +0.000 A 
ATOM     11  N   UNL     1      25.678  24.577  28.954  0.00  0.00    +0.000 NA
ATOM     12  C   UNL     1      24.866  25.355  28.223  0.00  0.00    +0.000 A 
ATOM     13  N   UNL     1      24.783  25.233  26.887  0.00  0.00    +0.000 NA
ATOM     14  C   UNL     1      25.522  24.316  26.242  0.00  0.00    +0.000 A 
ATOM     15  N   UNL     1      25.659  23.957  24.953  0.00  0.00    +0.000 NA
ATOM     16  C   UNL     1      26.544  22.966  24.861  0.00  0.00    +0.000 A 
ATOM     17  C   UNL     1      27.020  22.645  26.123  0.00  0.00    +0.000 A 
ATOM     18  C   UNL     1      26.364  23.507  26.977  0.00  0.00    +0.000 A 
ENDBRANCH   7   8
BRANCH   5  19
ATOM     19  C   UNL     1      31.265  22.216  31.642  0.00  0.00    +0.000 C 
ATOM     20  C   UNL     1      30.321  21.539  32.625  0.00  0.00    +0.000 C 
ATOM     21  C   UNL     1      32.391  22.920  32.367  0.00  0.00    +0.000 C 
ATOM     22  O   UNL     1      31.670  21.425  30.620  0.00  0.00    +0.000 OA
ENDBRANCH   5  19
TORSDOF 2
ENDMDL
MODEL 10
REMARK VINA RESULT:      -5.5      1.678      2.010
REMARK  Name = 
REMARK  2 active torsions:
REMARK  status: ('A' for Active; 'I' for Inactive)
REMARK    1  A    between atoms: C_5  and  C_6
REMARK    2  A    between atoms: C_11  and  N_12
REMARK                            x       y       z     vdW  Elec       q    Type
REMARK                         _______ _______ _______ _____ _____    ______ ____
ROOT
ATOM      1  C   UNL     1      25.335  25.237  24.765  0.00  0.00    +0.000 C 
ATOM      2  C   UNL     1      25.635  24.277  26.018  0.00  0.00    +0.000 C 
ATOM      3  C   UNL     1      26.032  22.951  25.196  0.00  0.00    +0.000 C 
ATOM      4  C   UNL     1      27.476  22.988  24.813  0.00  0.00    +0.000 C 
ATOM      5  C   UNL     1      27.369  24.360  23.930  0.00  0.00    +0.000 C 
ATOM      6  C   UNL     1      27.750  25.407  25.109  0.00  0.00    +0.000 C 
ATOM      7  C   UNL     1      27.178  24.776  26.480  0.00  0.00    +0.000 C 
ENDROOT
BRANCH   7   8
ATOM      8  N   UNL     1      26.728  26.106  27.139  0.00  0.00    +0.000 N 
ATOM      9  C   UNL     1      27.256  27.338  26.608  0.00  0.00    +0.000 C 
ATOM     10  C   UNL     1      25.843  26.127  28.218  0.00  0.00    +0.000 A 
ATOM     11  N   UNL     1      24.663  26.774  27.968  0.00  0.00    +0.000 NA
ATOM     12  C   UNL     1      23.735  26.852  28.934  0.00  0.00    +0.000 A 
ATOM     13  N   UNL     1      23.931  26.313  30.149  0.00  0.00    +0.000 NA
ATOM     14  C   UNL     1      25.077  25.673  30.431  0.00  0.00    +0.000 A 
ATOM     15  N   UNL     1      25.562  25.048  31.519  0.00  0.00    +0.000 NA
ATOM     16  C   UNL     1      26.779  24.576  31.253  0.00  0.00    +0.000 A 
ATOM     17  C   UNL     1      27.129  24.891  29.949  0.00  0.00    +0.000 A 
ATOM     18  C   UNL     1      26.044  25.581  29.450  0.00  0.00    +0.000 A 
ENDBRANCH   7   8
BRANCH   5  19
ATOM     19  C   UNL     1      28.887  24.256  23.336  0.00  0.00    +0.000 C 
ATOM     20  C   UNL     1      28.715  24.095  21.833  0.00  0.00    +0.000 C 
ATOM     21  C   UNL     1      29.380  22.973  23.967  0.00  0.00    +0.000 C 
ATOM     22  O   UNL     1      29.580  25.359  23.705  0.00  0.00    +0.000 OA
ENDBRANCH   5  19
TORSDOF 2
ENDMDL
