MODEL 1
REMARK VINA RESULT:      -7.4      0.000      0.000
REMARK  Name = 
REMARK  1 active torsions:
REMARK  status: ('A' for Active; 'I' for Inactive)
REMARK    1  A    between atoms: C_4  and  C_5
REMARK                            x       y       z     vdW  Elec       q    Type
REMARK                         _______ _______ _______ _____ _____    ______ ____
ROOT
ATOM      1  O   UNL     1      15.127  12.396  37.370  0.00  0.00    +0.000 OA
ATOM      2  C   UNL     1      15.676  11.984  36.318  0.00  0.00    +0.000 C 
ATOM      3  N   UNL     1      15.216  12.408  35.035  0.00  0.00    +0.000 NA
ATOM      4  C   UNL     1      15.222  11.258  33.952  0.00  0.00    +0.000 C 
ATOM      5  N   UNL     1      16.792  11.160  33.951  0.00  0.00    +0.000 NA
ATOM      6  C   UNL     1      17.315  10.686  35.193  0.00  0.00    +0.000 A 
ATOM      7  S   UNL     1      18.617   9.619  35.614  0.00  0.00    +0.000 S 
ATOM      8  C   UNL     1      18.467   9.684  37.316  0.00  0.00    +0.000 A 
ATOM      9  C   UNL     1      17.406  10.536  37.498  0.00  0.00    +0.000 A 
ATOM     10  C   UNL     1      16.824  11.043  36.415  0.00  0.00    +0.000 A 
ATOM     11  C   UNL     1      17.108  10.728  38.973  0.00  0.00    +0.000 C 
ATOM     12  C   UNL     1      16.977   9.342  39.588  0.00  0.00    +0.000 C 
ATOM     13  C   UNL     1      18.245   8.558  39.524  0.00  0.00    +0.000 C 
ATOM     14  C   UNL     1      19.176   9.073  38.466  0.00  0.00    +0.000 C 
ENDROOT
BRANCH   4  15
ATOM     15  C   UNL     1      15.104  12.192  32.669  0.00  0.00    +0.000 A 
ATOM     16  C   UNL     1      16.082  11.943  31.760  0.00  0.00    +0.000 A 
ATOM     17  C   UNL     1      16.054  12.725  30.593  0.00  0.00    +0.000 A 
ATOM     18  N   UNL     1      15.084  13.646  30.452  0.00  0.00    +0.000 NA
ATOM     19  C   UNL     1      14.143  13.856  31.370  0.00  0.00    +0.000 A 
ATOM     20  C   UNL     1      14.142  13.100  32.537  0.00  0.00    +0.000 A 
ENDBRANCH   4  15
TORSDOF 1
ENDMDL
MODEL 2
REMARK VINA RESULT:      -6.8     18.711     19.969
REMARK  Name = 
REMARK  1 active torsions:
REMARK  status: ('A' for Active; 'I' for Inactive)
REMARK    1  A    between atoms: C_4  and  C_5
REMARK                            x       y       z     vdW  Elec       q    Type
REMARK                         _______ _______ _______ _____ _____    ______ ____
ROOT
ATOM      1  O   UNL     1      33.517   3.468  32.816  0.00  0.00    +0.000 OA
ATOM      2  C   UNL     1      33.848   3.698  34.005  0.00  0.00    +0.000 C 
ATOM      3  N   UNL     1      34.217   5.012  34.425  0.00  0.00    +0.000 NA
ATOM      4  C   UNL     1      35.425   5.033  35.443  0.00  0.00    +0.000 C 
ATOM      5  N   UNL     1      34.587   4.327  36.572  0.00  0.00    +0.000 NA
ATOM      6  C   UNL     1      34.233   2.985  36.237  0.00  0.00    +0.000 A 
ATOM      7  S   UNL     1      34.137   1.510  37.148  0.00  0.00    +0.000 S 
ATOM      8  C   UNL     1      33.620   0.465  35.896  0.00  0.00    +0.000 A 
ATOM      9  C   UNL     1      33.541   1.302  34.810  0.00  0.00    +0.000 A 
ATOM     10  C   UNL     1      33.853   2.583  34.990  0.00  0.00    +0.000 A 
ATOM     11  C   UNL     1      33.090   0.549  33.573  0.00  0.00    +0.000 C 
ATOM     12  C   UNL     1      34.000  -0.662  33.430  0.00  0.00    +0.000 C 
ATOM     13  C   UNL     1      33.870  -1.622  34.564  0.00  0.00    +0.000 C 
ATOM     14  C   UNL     1      33.291  -0.977  35.788  0.00  0.00    +0.000 C 
ENDROOT
BRANCH   4  15
ATOM     15  C   UNL     1      35.214   6.519  35.970  0.00  0.00    +0.000 A 
ATOM     16  C   UNL     1      36.106   7.388  35.429  0.00  0.00    +0.000 A 
ATOM     17  C   UNL     1      35.993   8.727  35.841  0.00  0.00    +0.000 A 
ATOM     18  N   UNL     1      35.031   9.055  36.722  0.00  0.00    +0.000 NA
ATOM     19  C   UNL     1      34.176   8.169  37.228  0.00  0.00    +0.000 A 
ATOM     20  C   UNL     1      34.262   6.836  36.842  0.00  0.00    +0.000 A 
ENDBRANCH   4  15
TORSDOF 1
ENDMDL
MODEL 3
REMARK VINA RESULT:      -6.4     17.876     20.100
REMARK  Name = 
REMARK  1 active torsions:
REMARK  status: ('A' for Active; 'I' for Inactive)
REMARK    1  A    between atoms: C_4  and  C_5
REMARK                            x       y       z     vdW  Elec       q    Type
REMARK                         _______ _______ _______ _____ _____    ______ ____
ROOT
ATOM      1  O   UNL     1      26.635  23.145  27.659  0.00  0.00    +0.000 OA
ATOM      2  C   UNL     1      27.870  22.918  27.632  0.00  0.00    +0.000 C 
ATOM      3  N   UNL     1      28.598  22.664  28.834  0.00  0.00    +0.000 NA
ATOM      4  C   UNL     1      30.030  23.331  28.857  0.00  0.00    +0.000 C 
ATOM      5  N   UNL     1      30.565  22.405  27.703  0.00  0.00    +0.000 NA
ATOM      6  C   UNL     1      29.915  22.649  26.455  0.00  0.00    +0.000 A 
ATOM      7  S   UNL     1      30.463  22.696  24.809  0.00  0.00    +0.000 S 
ATOM      8  C   UNL     1      28.972  23.044  24.047  0.00  0.00    +0.000 A 
ATOM      9  C   UNL     1      28.097  23.113  25.104  0.00  0.00    +0.000 A 
ATOM     10  C   UNL     1      28.582  22.910  26.326  0.00  0.00    +0.000 A 
ATOM     11  C   UNL     1      26.690  23.420  24.627  0.00  0.00    +0.000 C 
ATOM     12  C   UNL     1      26.777  24.653  23.738  0.00  0.00    +0.000 C 
ATOM     13  C   UNL     1      27.587  24.423  22.507  0.00  0.00    +0.000 C 
ATOM     14  C   UNL     1      28.519  23.256  22.652  0.00  0.00    +0.000 C 
ENDROOT
BRANCH   4  15
ATOM     15  C   UNL     1      30.628  22.479  30.058  0.00  0.00    +0.000 A 
ATOM     16  C   UNL     1      29.796  22.447  31.131  0.00  0.00    +0.000 A 
ATOM     17  C   UNL     1      30.246  21.714  32.242  0.00  0.00    +0.000 A 
ATOM     18  N   UNL     1      31.443  21.103  32.174  0.00  0.00    +0.000 NA
ATOM     19  C   UNL     1      32.227  21.160  31.100  0.00  0.00    +0.000 A 
ATOM     20  C   UNL     1      31.811  21.877  29.985  0.00  0.00    +0.000 A 
ENDBRANCH   4  15
TORSDOF 1
ENDMDL
MODEL 4
REMARK VINA RESULT:      -6.4     19.428     21.049
REMARK  Name = 
REMARK  1 active torsions:
REMARK  status: ('A' for Active; 'I' for Inactive)
REMARK    1  A    between atoms: C_4  and  C_5
REMARK                            x       y       z     vdW  Elec       q    Type
REMARK                         _______ _______ _______ _____ _____    ______ ____
ROOT
ATOM      1  O   UNL     1      34.186   1.118  37.738  0.00  0.00    +0.000 OA
ATOM      2  C   UNL     1      33.925   0.776  36.559  0.00  0.00    +0.000 C 
ATOM      3  N   UNL     1      33.682  -0.591  36.226  0.00  0.00    +0.000 NA
ATOM      4  C   UNL     1      34.310  -1.026  34.844  0.00  0.00    +0.000 C 
ATOM      5  N   UNL     1      33.342  -0.096  34.023  0.00  0.00    +0.000 NA
ATOM      6  C   UNL     1      33.572   1.292  34.268  0.00  0.00    +0.000 A 
ATOM      7  S   UNL     1      33.564   2.703  33.257  0.00  0.00    +0.000 S 
ATOM      8  C   UNL     1      33.934   3.876  34.445  0.00  0.00    +0.000 A 
ATOM      9  C   UNL     1      34.052   3.127  35.590  0.00  0.00    +0.000 A 
ATOM     10  C   UNL     1      33.866   1.813  35.494  0.00  0.00    +0.000 A 
ATOM     11  C   UNL     1      34.386   4.003  36.783  0.00  0.00    +0.000 C 
ATOM     12  C   UNL     1      35.594   4.845  36.396  0.00  0.00    +0.000 C 
ATOM     13  C   UNL     1      35.311   5.779  35.268  0.00  0.00    +0.000 C 
ATOM     14  C   UNL     1      34.124   5.347  34.459  0.00  0.00    +0.000 C 
ENDROOT
BRANCH   4  15
ATOM     15  C   UNL     1      33.471  -2.363  34.655  0.00  0.00    +0.000 A 
ATOM     16  C   UNL     1      33.743  -2.979  33.475  0.00  0.00    +0.000 A 
ATOM     17  C   UNL     1      33.044  -4.172  33.225  0.00  0.00    +0.000 A 
ATOM     18  N   UNL     1      32.172  -4.619  34.147  0.00  0.00    +0.000 NA
ATOM     19  C   UNL     1      31.936  -3.982  35.293  0.00  0.00    +0.000 A 
ATOM     20  C   UNL     1      32.611  -2.799  35.570  0.00  0.00    +0.000 A 
ENDBRANCH   4  15
TORSDOF 1
ENDMDL
MODEL 5
REMARK VINA RESULT:      -6.3     22.253     23.114
REMARK  Name = 
REMARK  1 active torsions:
REMARK  status: ('A' for Active; 'I' for Inactive)
REMARK    1  A    between atoms: C_4  and  C_5
REMARK                            x       y       z     vdW  Elec       q    Type
REMARK                         _______ _______ _______ _____ _____    ______ ____
ROOT
ATOM      1  O   UNL     1      22.506 -10.438  26.548  0.00  0.00    +0.000 OA
ATOM      2  C   UNL     1      22.223  -9.353  25.984  0.00  0.00    +0.000 C 
ATOM      3  N   UNL     1      21.023  -8.649  26.303  0.00  0.00    +0.000 NA
ATOM      4  C   UNL     1      20.321  -7.996  25.048  0.00  0.00    +0.000 C 
ATOM      5  N   UNL     1      21.497  -6.974  24.824  0.00  0.00    +0.000 NA
ATOM      6  C   UNL     1      22.716  -7.613  24.445  0.00  0.00    +0.000 A 
ATOM      7  S   UNL     1      23.981  -7.208  23.327  0.00  0.00    +0.000 S 
ATOM      8  C   UNL     1      24.998  -8.559  23.586  0.00  0.00    +0.000 A 
ATOM      9  C   UNL     1      24.316  -9.280  24.535  0.00  0.00    +0.000 A 
ATOM     10  C   UNL     1      23.156  -8.793  24.969  0.00  0.00    +0.000 A 
ATOM     11  C   UNL     1      25.070 -10.542  24.907  0.00  0.00    +0.000 C 
ATOM     12  C   UNL     1      25.395 -11.269  23.609  0.00  0.00    +0.000 C 
ATOM     13  C   UNL     1      26.310 -10.491  22.724  0.00  0.00    +0.000 C 
ATOM     14  C   UNL     1      26.298  -9.025  23.046  0.00  0.00    +0.000 C 
ENDROOT
BRANCH   4  15
ATOM     15  C   UNL     1      19.372  -7.000  25.845  0.00  0.00    +0.000 A 
ATOM     16  C   UNL     1      18.279  -7.627  26.352  0.00  0.00    +0.000 A 
ATOM     17  C   UNL     1      17.382  -6.820  27.074  0.00  0.00    +0.000 A 
ATOM     18  N   UNL     1      17.658  -5.511  27.215  0.00  0.00    +0.000 NA
ATOM     19  C   UNL     1      18.744  -4.937  26.701  0.00  0.00    +0.000 A 
ATOM     20  C   UNL     1      19.650  -5.707  25.981  0.00  0.00    +0.000 A 
ENDBRANCH   4  15
TORSDOF 1
ENDMDL
MODEL 6
REMARK VINA RESULT:      -6.0     21.920     24.556
REMARK  Name = 
REMARK  1 active torsions:
REMARK  status: ('A' for Active; 'I' for Inactive)
REMARK    1  A    between atoms: C_4  and  C_5
REMARK                            x       y       z     vdW  Elec       q    Type
REMARK                         _______ _______ _______ _____ _____    ______ ____
ROOT
ATOM      1  O   UNL     1      25.418   6.679  14.209  0.00  0.00    +0.000 OA
ATOM      2  C   UNL     1      26.624   6.998  14.062  0.00  0.00    +0.000 C 
ATOM      3  N   UNL     1      27.155   7.292  12.769  0.00  0.00    +0.000 NA
ATOM      4  C   UNL     1      28.615   6.732  12.545  0.00  0.00    +0.000 C 
ATOM      5  N   UNL     1      29.237   7.707  13.613  0.00  0.00    +0.000 NA
ATOM      6  C   UNL     1      28.788   7.428  14.939  0.00  0.00    +0.000 A 
ATOM      7  S   UNL     1      29.564   7.439  16.492  0.00  0.00    +0.000 S 
ATOM      8  C   UNL     1      28.225   6.989  17.456  0.00  0.00    +0.000 A 
ATOM      9  C   UNL     1      27.217   6.845  16.533  0.00  0.00    +0.000 A 
ATOM     10  C   UNL     1      27.510   7.071  15.255  0.00  0.00    +0.000 A 
ATOM     11  C   UNL     1      25.918   6.440  17.203  0.00  0.00    +0.000 C 
ATOM     12  C   UNL     1      26.221   5.226  18.070  0.00  0.00    +0.000 C 
ATOM     13  C   UNL     1      27.176   5.528  19.176  0.00  0.00    +0.000 C 
ATOM     14  C   UNL     1      27.989   6.759  18.901  0.00  0.00    +0.000 C 
ENDROOT
BRANCH   4  15
ATOM     15  C   UNL     1      28.973   7.614  11.271  0.00  0.00    +0.000 A 
ATOM     16  C   UNL     1      30.089   8.365  11.463  0.00  0.00    +0.000 A 
ATOM     17  C   UNL     1      30.480   9.178  10.386  0.00  0.00    +0.000 A 
ATOM     18  N   UNL     1      29.743   9.161   9.260  0.00  0.00    +0.000 NA
ATOM     19  C   UNL     1      28.656   8.407   9.115  0.00  0.00    +0.000 A 
ATOM     20  C   UNL     1      28.242   7.593  10.162  0.00  0.00    +0.000 A 
ENDBRANCH   4  15
TORSDOF 1
ENDMDL
MODEL 7
REMARK VINA RESULT:      -6.0     17.589     18.493
REMARK  Name = 
REMARK  1 active torsions:
REMARK  status: ('A' for Active; 'I' for Inactive)
REMARK    1  A    between atoms: C_4  and  C_5
REMARK                            x       y       z     vdW  Elec       q    Type
REMARK                         _______ _______ _______ _____ _____    ______ ____
ROOT
ATOM      1  O   UNL     1      27.290  23.370  30.105  0.00  0.00    +0.000 OA
ATOM      2  C   UNL     1      27.953  23.158  29.060  0.00  0.00    +0.000 C 
ATOM      3  N   UNL     1      27.340  23.231  27.772  0.00  0.00    +0.000 NA
ATOM      4  C   UNL     1      27.841  22.118  26.771  0.00  0.00    +0.000 C 
ATOM      5  N   UNL     1      29.293  22.720  26.706  0.00  0.00    +0.000 NA
ATOM      6  C   UNL     1      29.984  22.626  27.951  0.00  0.00    +0.000 A 
ATOM      7  S   UNL     1      31.629  22.277  28.384  0.00  0.00    +0.000 S 
ATOM      8  C   UNL     1      31.484  22.408  30.084  0.00  0.00    +0.000 A 
ATOM      9  C   UNL     1      30.157  22.718  30.256  0.00  0.00    +0.000 A 
ATOM     10  C   UNL     1      29.400  22.829  29.167  0.00  0.00    +0.000 A 
ATOM     11  C   UNL     1      29.821  22.879  31.726  0.00  0.00    +0.000 C 
ATOM     12  C   UNL     1      30.323  21.631  32.439  0.00  0.00    +0.000 C 
ATOM     13  C   UNL     1      31.805  21.482  32.371  0.00  0.00    +0.000 C 
ATOM     14  C   UNL     1      32.402  22.265  31.239  0.00  0.00    +0.000 C 
ENDROOT
BRANCH   4  15
ATOM     15  C   UNL     1      27.309  22.797  25.435  0.00  0.00    +0.000 A 
ATOM     16  C   UNL     1      28.321  23.169  24.608  0.00  0.00    +0.000 A 
ATOM     17  C   UNL     1      27.940  23.779  23.401  0.00  0.00    +0.000 A 
ATOM     18  N   UNL     1      26.631  23.951  23.146  0.00  0.00    +0.000 NA
ATOM     19  C   UNL     1      25.671  23.570  23.986  0.00  0.00    +0.000 A 
ATOM     20  C   UNL     1      26.013  22.964  25.189  0.00  0.00    +0.000 A 
ENDBRANCH   4  15
TORSDOF 1
ENDMDL
MODEL 8
REMARK VINA RESULT:      -6.0     20.680     23.850
REMARK  Name = 
REMARK  1 active torsions:
REMARK  status: ('A' for Active; 'I' for Inactive)
REMARK    1  A    between atoms: C_4  and  C_5
REMARK                            x       y       z     vdW  Elec       q    Type
REMARK                         _______ _______ _______ _____ _____    ______ ____
ROOT
ATOM      1  O   UNL     1      29.767  24.531  20.581  0.00  0.00    +0.000 OA
ATOM      2  C   UNL     1      29.072  25.136  21.435  0.00  0.00    +0.000 C 
ATOM      3  N   UNL     1      28.438  24.430  22.502  0.00  0.00    +0.000 NA
ATOM      4  C   UNL     1      26.989  24.962  22.838  0.00  0.00    +0.000 C 
ATOM      5  N   UNL     1      27.533  26.343  23.359  0.00  0.00    +0.000 NA
ATOM      6  C   UNL     1      28.131  27.126  22.325  0.00  0.00    +0.000 A 
ATOM      7  S   UNL     1      28.130  28.822  21.956  0.00  0.00    +0.000 S 
ATOM      8  C   UNL     1      29.118  28.784  20.560  0.00  0.00    +0.000 A 
ATOM      9  C   UNL     1      29.414  27.450  20.429  0.00  0.00    +0.000 A 
ATOM     10  C   UNL     1      28.910  26.611  21.331  0.00  0.00    +0.000 A 
ATOM     11  C   UNL     1      30.300  27.204  19.223  0.00  0.00    +0.000 C 
ATOM     12  C   UNL     1      29.628  27.868  18.030  0.00  0.00    +0.000 C 
ATOM     13  C   UNL     1      29.530  29.350  18.172  0.00  0.00    +0.000 C 
ATOM     14  C   UNL     1      29.637  29.790  19.602  0.00  0.00    +0.000 C 
ENDROOT
BRANCH   4  15
ATOM     15  C   UNL     1      26.852  24.276  24.266  0.00  0.00    +0.000 A 
ATOM     16  C   UNL     1      27.853  23.392  24.511  0.00  0.00    +0.000 A 
ATOM     17  C   UNL     1      27.809  22.737  25.754  0.00  0.00    +0.000 A 
ATOM     18  N   UNL     1      26.805  23.023  26.602  0.00  0.00    +0.000 NA
ATOM     19  C   UNL     1      25.844  23.899  26.321  0.00  0.00    +0.000 A 
ATOM     20  C   UNL     1      25.857  24.563  25.100  0.00  0.00    +0.000 A 
ENDBRANCH   4  15
TORSDOF 1
ENDMDL
MODEL 9
REMARK VINA RESULT:      -5.9     18.131     19.156
REMARK  Name = 
REMARK  1 active torsions:
REMARK  status: ('A' for Active; 'I' for Inactive)
REMARK    1  A    between atoms: C_4  and  C_5
REMARK                            x       y       z     vdW  Elec       q    Type
REMARK                         _______ _______ _______ _____ _____    ______ ____
ROOT
ATOM      1  O   UNL     1      26.637  24.565  23.467  0.00  0.00    +0.000 OA
ATOM      2  C   UNL     1      26.142  24.640  24.619  0.00  0.00    +0.000 C 
ATOM      3  N   UNL     1      24.922  25.345  24.851  0.00  0.00    +0.000 NA
ATOM      4  C   UNL     1      24.917  26.170  26.198  0.00  0.00    +0.000 C 
ATOM      5  N   UNL     1      24.961  24.871  27.085  0.00  0.00    +0.000 NA
ATOM      6  C   UNL     1      26.183  24.147  26.941  0.00  0.00    +0.000 A 
ATOM      7  S   UNL     1      27.201  23.284  28.052  0.00  0.00    +0.000 S 
ATOM      8  C   UNL     1      28.401  22.760  26.952  0.00  0.00    +0.000 A 
ATOM      9  C   UNL     1      27.968  23.277  25.755  0.00  0.00    +0.000 A 
ATOM     10  C   UNL     1      26.839  23.980  25.756  0.00  0.00    +0.000 A 
ATOM     11  C   UNL     1      28.917  22.915  24.629  0.00  0.00    +0.000 C 
ATOM     12  C   UNL     1      30.315  23.320  25.075  0.00  0.00    +0.000 C 
ATOM     13  C   UNL     1      30.786  22.558  26.268  0.00  0.00    +0.000 C 
ATOM     14  C   UNL     1      29.648  21.963  27.044  0.00  0.00    +0.000 C 
ENDROOT
BRANCH   4  15
ATOM     15  C   UNL     1      23.345  26.392  26.290  0.00  0.00    +0.000 A 
ATOM     16  C   UNL     1      22.877  26.238  27.555  0.00  0.00    +0.000 A 
ATOM     17  C   UNL     1      21.494  26.417  27.729  0.00  0.00    +0.000 A 
ATOM     18  N   UNL     1      20.740  26.724  26.657  0.00  0.00    +0.000 NA
ATOM     19  C   UNL     1      21.242  26.867  25.433  0.00  0.00    +0.000 A 
ATOM     20  C   UNL     1      22.606  26.696  25.227  0.00  0.00    +0.000 A 
ENDBRANCH   4  15
TORSDOF 1
ENDMDL
MODEL 10
REMARK VINA RESULT:      -5.9     20.922     22.038
REMARK  Name = 
REMARK  1 active torsions:
REMARK  status: ('A' for Active; 'I' for Inactive)
REMARK    1  A    between atoms: C_4  and  C_5
REMARK                            x       y       z     vdW  Elec       q    Type
REMARK                         _______ _______ _______ _____ _____    ______ ____
ROOT
ATOM      1  O   UNL     1      24.539   2.851  19.200  0.00  0.00    +0.000 OA
ATOM      2  C   UNL     1      24.750   3.480  18.133  0.00  0.00    +0.000 C 
ATOM      3  N   UNL     1      25.754   4.492  18.062  0.00  0.00    +0.000 NA
ATOM      4  C   UNL     1      25.327   5.746  17.202  0.00  0.00    +0.000 C 
ATOM      5  N   UNL     1      25.306   4.919  15.864  0.00  0.00    +0.000 NA
ATOM      6  C   UNL     1      24.282   3.924  15.848  0.00  0.00    +0.000 A 
ATOM      7  S   UNL     1      23.204   3.336  14.621  0.00  0.00    +0.000 S 
ATOM      8  C   UNL     1      22.378   2.156  15.544  0.00  0.00    +0.000 A 
ATOM      9  C   UNL     1      22.971   2.262  16.778  0.00  0.00    +0.000 A 
ATOM     10  C   UNL     1      23.940   3.162  16.926  0.00  0.00    +0.000 A 
ATOM     11  C   UNL     1      22.365   1.277  17.760  0.00  0.00    +0.000 C 
ATOM     12  C   UNL     1      20.856   1.471  17.716  0.00  0.00    +0.000 C 
ATOM     13  C   UNL     1      20.269   1.138  16.386  0.00  0.00    +0.000 C 
ATOM     14  C   UNL     1      21.291   1.181  15.288  0.00  0.00    +0.000 C 
ENDROOT
BRANCH   4  15
ATOM     15  C   UNL     1      26.781   6.359  17.008  0.00  0.00    +0.000 A 
ATOM     16  C   UNL     1      27.010   6.743  15.725  0.00  0.00    +0.000 A 
ATOM     17  C   UNL     1      28.274   7.297  15.461  0.00  0.00    +0.000 A 
ATOM     18  N   UNL     1      29.155   7.411  16.472  0.00  0.00    +0.000 NA
ATOM     19  C   UNL     1      28.888   7.023  17.716  0.00  0.00    +0.000 A 
ATOM     20  C   UNL     1      27.647   6.469  18.010  0.00  0.00    +0.000 A 
ENDBRANCH   4  15
TORSDOF 1
ENDMDL
