MODEL 1
REMARK VINA RESULT:      -8.2      0.000      0.000
REMARK  Name = 
REMARK  7 active torsions:
REMARK  status: ('A' for Active; 'I' for Inactive)
REMARK    1  A    between atoms: O_2  and  C_3
REMARK    2  A    between atoms: C_6  and  C_7
REMARK    3  A    between atoms: C_9  and  C_10
REMARK    4  A    between atoms: N_12  and  C_13
REMARK    5  A    between atoms: C_13  and  C_14
REMARK    6  A    between atoms: C_14  and  C_15
REMARK    7  A    between atoms: C_28  and  O_29
REMARK                            x       y       z     vdW  Elec       q    Type
REMARK                         _______ _______ _______ _____ _____    ______ ____
ROOT
ATOM      1  C   UNL     1      38.468  -0.550  14.060  0.00  0.00    +0.000 A 
ATOM      2  C   UNL     1      38.638   0.816  14.144  0.00  0.00    +0.000 A 
ATOM      3  C   UNL     1      37.769   1.587  14.914  0.00  0.00    +0.000 A 
ATOM      4  C   UNL     1      36.726   1.005  15.605  0.00  0.00    +0.000 A 
ATOM      5  C   UNL     1      35.884   1.795  16.357  0.00  0.00    +0.000 A 
ATOM      6  C   UNL     1      34.857   1.162  17.029  0.00  0.00    +0.000 A 
ATOM      7  C   UNL     1      34.682  -0.204  16.949  0.00  0.00    +0.000 A 
ATOM      8  C   UNL     1      35.543  -0.966  16.187  0.00  0.00    +0.000 A 
ATOM      9  C   UNL     1      36.580  -0.360  15.504  0.00  0.00    +0.000 A 
ATOM     10  N   UNL     1      37.444  -1.085  14.745  0.00  0.00    +0.000 NA
ENDROOT
BRANCH   1  14
ATOM     11  C   UNL     1      41.117  -2.958  11.714  0.00  0.00    +0.000 A 
ATOM     12  C   UNL     1      40.190  -2.134  11.111  0.00  0.00    +0.000 A 
ATOM     13  C   UNL     1      39.331  -1.353  11.881  0.00  0.00    +0.000 A 
ATOM     14  C   UNL     1      39.372  -1.372  13.256  0.00  0.00    +0.000 A 
ATOM     15  C   UNL     1      40.297  -2.194  13.861  0.00  0.00    +0.000 A 
ATOM     16  C   UNL     1      41.161  -2.979  13.091  0.00  0.00    +0.000 A 
BRANCH  11  18
ATOM     17  C   UNL     1      41.624  -4.216   9.669  0.00  0.00    +0.000 C 
ATOM     18  O   UNL     1      41.992  -3.753  10.953  0.00  0.00    +0.000 OA
ENDBRANCH  11  18
BRANCH  15  19
ATOM     19  O   UNL     1      40.327  -2.202  15.245  0.00  0.00    +0.000 OA
ATOM     20  C   UNL     1      39.851  -3.296  16.007  0.00  0.00    +0.000 C 
ENDBRANCH  15  19
ENDBRANCH   1  14
BRANCH   3  21
ATOM     21  C   UNL     1      37.939   3.038  15.011  0.00  0.00    +0.000 C 
ATOM     22  O   UNL     1      37.409   3.772  14.132  0.00  0.00    +0.000 OA
ATOM     23  N   UNL     1      38.684   3.618  16.070  0.00  0.00    +0.000 NA
BRANCH  23  24
ATOM     24  C   UNL     1      38.863   5.051  16.181  0.00  0.00    +0.000 C 
BRANCH  24  25
ATOM     25  C   UNL     1      38.636   5.515  17.613  0.00  0.00    +0.000 C 
BRANCH  25  26
ATOM     26  C   UNL     1      39.941   5.940  18.173  0.00  0.00    +0.000 A 
ATOM     27  C   UNL     1      40.021   6.101  19.541  0.00  0.00    +0.000 A 
ATOM     28  C   UNL     1      41.196   6.493  20.147  0.00  0.00    +0.000 A 
ATOM     29  C   UNL     1      42.288   6.721  19.336  0.00  0.00    +0.000 A 
ATOM     30  C   UNL     1      42.233   6.568  17.968  0.00  0.00    +0.000 A 
ATOM     31  C   UNL     1      41.049   6.174  17.378  0.00  0.00    +0.000 A 
ENDBRANCH  25  26
ENDBRANCH  24  25
ENDBRANCH  23  24
ENDBRANCH   3  21
TORSDOF 7
ENDMDL
MODEL 2
REMARK VINA RESULT:      -8.2      1.205      2.046
REMARK  Name = 
REMARK  7 active torsions:
REMARK  status: ('A' for Active; 'I' for Inactive)
REMARK    1  A    between atoms: O_2  and  C_3
REMARK    2  A    between atoms: C_6  and  C_7
REMARK    3  A    between atoms: C_9  and  C_10
REMARK    4  A    between atoms: N_12  and  C_13
REMARK    5  A    between atoms: C_13  and  C_14
REMARK    6  A    between atoms: C_14  and  C_15
REMARK    7  A    between atoms: C_28  and  O_29
REMARK                            x       y       z     vdW  Elec       q    Type
REMARK                         _______ _______ _______ _____ _____    ______ ____
ROOT
ATOM      1  C   UNL     1      38.880  -0.290  14.487  0.00  0.00    +0.000 A 
ATOM      2  C   UNL     1      38.969   1.081  14.612  0.00  0.00    +0.000 A 
ATOM      3  C   UNL     1      37.961   1.794  15.261  0.00  0.00    +0.000 A 
ATOM      4  C   UNL     1      36.861   1.149  15.788  0.00  0.00    +0.000 A 
ATOM      5  C   UNL     1      35.883   1.883  16.423  0.00  0.00    +0.000 A 
ATOM      6  C   UNL     1      34.804   1.187  16.933  0.00  0.00    +0.000 A 
ATOM      7  C   UNL     1      34.711  -0.184  16.810  0.00  0.00    +0.000 A 
ATOM      8  C   UNL     1      35.708  -0.888  16.169  0.00  0.00    +0.000 A 
ATOM      9  C   UNL     1      36.800  -0.220  15.649  0.00  0.00    +0.000 A 
ATOM     10  N   UNL     1      37.798  -0.888  15.011  0.00  0.00    +0.000 NA
ENDROOT
BRANCH   1  14
ATOM     11  C   UNL     1      41.947  -2.519  12.499  0.00  0.00    +0.000 A 
ATOM     12  C   UNL     1      41.981  -2.333  13.865  0.00  0.00    +0.000 A 
ATOM     13  C   UNL     1      40.980  -1.606  14.505  0.00  0.00    +0.000 A 
ATOM     14  C   UNL     1      39.930  -1.052  13.809  0.00  0.00    +0.000 A 
ATOM     15  C   UNL     1      39.893  -1.236  12.445  0.00  0.00    +0.000 A 
ATOM     16  C   UNL     1      40.896  -1.965  11.800  0.00  0.00    +0.000 A 
BRANCH  11  18
ATOM     17  C   UNL     1      44.182  -3.531  12.466  0.00  0.00    +0.000 C 
ATOM     18  O   UNL     1      42.948  -3.249  11.836  0.00  0.00    +0.000 OA
ENDBRANCH  11  18
BRANCH  15  19
ATOM     19  O   UNL     1      38.831  -0.674  11.759  0.00  0.00    +0.000 OA
ATOM     20  C   UNL     1      39.005   0.357  10.805  0.00  0.00    +0.000 C 
ENDBRANCH  15  19
ENDBRANCH   1  14
BRANCH   3  21
ATOM     21  C   UNL     1      38.043   3.248  15.399  0.00  0.00    +0.000 C 
ATOM     22  O   UNL     1      37.621   3.974  14.457  0.00  0.00    +0.000 OA
ATOM     23  N   UNL     1      38.587   3.842  16.568  0.00  0.00    +0.000 NA
BRANCH  23  24
ATOM     24  C   UNL     1      38.676   5.279  16.723  0.00  0.00    +0.000 C 
BRANCH  24  25
ATOM     25  C   UNL     1      38.682   5.666  18.195  0.00  0.00    +0.000 C 
BRANCH  25  26
ATOM     26  C   UNL     1      40.065   6.057  18.563  0.00  0.00    +0.000 A 
ATOM     27  C   UNL     1      40.983   6.174  17.540  0.00  0.00    +0.000 A 
ATOM     28  C   UNL     1      42.291   6.532  17.791  0.00  0.00    +0.000 A 
ATOM     29  C   UNL     1      42.648   6.769  19.103  0.00  0.00    +0.000 A 
ATOM     30  C   UNL     1      41.749   6.658  20.140  0.00  0.00    +0.000 A 
ATOM     31  C   UNL     1      40.444   6.299  19.871  0.00  0.00    +0.000 A 
ENDBRANCH  25  26
ENDBRANCH  24  25
ENDBRANCH  23  24
ENDBRANCH   3  21
TORSDOF 7
ENDMDL
MODEL 3
REMARK VINA RESULT:      -8.0      3.480      8.694
REMARK  Name = 
REMARK  7 active torsions:
REMARK  status: ('A' for Active; 'I' for Inactive)
REMARK    1  A    between atoms: O_2  and  C_3
REMARK    2  A    between atoms: C_6  and  C_7
REMARK    3  A    between atoms: C_9  and  C_10
REMARK    4  A    between atoms: N_12  and  C_13
REMARK    5  A    between atoms: C_13  and  C_14
REMARK    6  A    between atoms: C_14  and  C_15
REMARK    7  A    between atoms: C_28  and  O_29
REMARK                            x       y       z     vdW  Elec       q    Type
REMARK                         _______ _______ _______ _____ _____    ______ ____
ROOT
ATOM      1  C   UNL     1      38.853   5.617  17.016  0.00  0.00    +0.000 A 
ATOM      2  C   UNL     1      38.411   4.311  16.990  0.00  0.00    +0.000 A 
ATOM      3  C   UNL     1      37.475   3.905  16.039  0.00  0.00    +0.000 A 
ATOM      4  C   UNL     1      36.975   4.794  15.110  0.00  0.00    +0.000 A 
ATOM      5  C   UNL     1      36.051   4.361  14.184  0.00  0.00    +0.000 A 
ATOM      6  C   UNL     1      35.583   5.291  13.277  0.00  0.00    +0.000 A 
ATOM      7  C   UNL     1      36.022   6.599  13.299  0.00  0.00    +0.000 A 
ATOM      8  C   UNL     1      36.947   6.999  14.239  0.00  0.00    +0.000 A 
ATOM      9  C   UNL     1      37.435   6.091  15.160  0.00  0.00    +0.000 A 
ATOM     10  N   UNL     1      38.347   6.457  16.098  0.00  0.00    +0.000 NA
ENDROOT
BRANCH   1  14
ATOM     11  C   UNL     1      41.729   6.908  19.912  0.00  0.00    +0.000 A 
ATOM     12  C   UNL     1      40.421   6.668  20.274  0.00  0.00    +0.000 A 
ATOM     13  C   UNL     1      39.490   6.248  19.326  0.00  0.00    +0.000 A 
ATOM     14  C   UNL     1      39.835   6.058  18.008  0.00  0.00    +0.000 A 
ATOM     15  C   UNL     1      41.141   6.297  17.643  0.00  0.00    +0.000 A 
ATOM     16  C   UNL     1      42.078   6.718  18.592  0.00  0.00    +0.000 A 
BRANCH  11  18
ATOM     17  C   UNL     1      43.441   6.396  21.595  0.00  0.00    +0.000 C 
ATOM     18  O   UNL     1      42.682   7.332  20.855  0.00  0.00    +0.000 OA
ENDBRANCH  11  18
BRANCH  15  19
ATOM     19  O   UNL     1      41.473   6.101  16.314  0.00  0.00    +0.000 OA
ATOM     20  C   UNL     1      42.672   6.599  15.750  0.00  0.00    +0.000 C 
ENDBRANCH  15  19
ENDBRANCH   1  14
BRANCH   3  21
ATOM     21  C   UNL     1      36.998   2.522  16.001  0.00  0.00    +0.000 C 
ATOM     22  O   UNL     1      37.656   1.669  15.344  0.00  0.00    +0.000 OA
ATOM     23  N   UNL     1      35.816   2.137  16.687  0.00  0.00    +0.000 NA
BRANCH  23  24
ATOM     24  C   UNL     1      35.328   0.774  16.660  0.00  0.00    +0.000 C 
BRANCH  24  25
ATOM     25  C   UNL     1      35.436   0.133  18.037  0.00  0.00    +0.000 C 
BRANCH  25  26
ATOM     26  C   UNL     1      36.541  -0.854  18.001  0.00  0.00    +0.000 A 
ATOM     27  C   UNL     1      36.947  -1.307  16.762  0.00  0.00    +0.000 A 
ATOM     28  C   UNL     1      37.967  -2.226  16.636  0.00  0.00    +0.000 A 
ATOM     29  C   UNL     1      38.567  -2.677  17.793  0.00  0.00    +0.000 A 
ATOM     30  C   UNL     1      38.179  -2.241  19.040  0.00  0.00    +0.000 A 
ATOM     31  C   UNL     1      37.157  -1.320  19.148  0.00  0.00    +0.000 A 
ENDBRANCH  25  26
ENDBRANCH  24  25
ENDBRANCH  23  24
ENDBRANCH   3  21
TORSDOF 7
ENDMDL
MODEL 4
REMARK VINA RESULT:      -7.9      3.200      9.162
REMARK  Name = 
REMARK  7 active torsions:
REMARK  status: ('A' for Active; 'I' for Inactive)
REMARK    1  A    between atoms: O_2  and  C_3
REMARK    2  A    between atoms: C_6  and  C_7
REMARK    3  A    between atoms: C_9  and  C_10
REMARK    4  A    between atoms: N_12  and  C_13
REMARK    5  A    between atoms: C_13  and  C_14
REMARK    6  A    between atoms: C_14  and  C_15
REMARK    7  A    between atoms: C_28  and  O_29
REMARK                            x       y       z     vdW  Elec       q    Type
REMARK                         _______ _______ _______ _____ _____    ______ ____
ROOT
ATOM      1  C   UNL     1      38.526   4.888  17.020  0.00  0.00    +0.000 A 
ATOM      2  C   UNL     1      37.483   4.013  17.240  0.00  0.00    +0.000 A 
ATOM      3  C   UNL     1      37.242   2.968  16.347  0.00  0.00    +0.000 A 
ATOM      4  C   UNL     1      38.037   2.788  15.233  0.00  0.00    +0.000 A 
ATOM      5  C   UNL     1      37.772   1.747  14.372  0.00  0.00    +0.000 A 
ATOM      6  C   UNL     1      38.598   1.612  13.272  0.00  0.00    +0.000 A 
ATOM      7  C   UNL     1      39.642   2.485  13.048  0.00  0.00    +0.000 A 
ATOM      8  C   UNL     1      39.879   3.517  13.931  0.00  0.00    +0.000 A 
ATOM      9  C   UNL     1      39.071   3.677  15.040  0.00  0.00    +0.000 A 
ATOM     10  N   UNL     1      39.280   4.685  15.927  0.00  0.00    +0.000 NA
ENDROOT
BRANCH   1  14
ATOM     11  C   UNL     1      39.299   8.112  19.728  0.00  0.00    +0.000 A 
ATOM     12  C   UNL     1      39.760   6.840  19.994  0.00  0.00    +0.000 A 
ATOM     13  C   UNL     1      39.505   5.795  19.108  0.00  0.00    +0.000 A 
ATOM     14  C   UNL     1      38.791   5.989  17.947  0.00  0.00    +0.000 A 
ATOM     15  C   UNL     1      38.329   7.258  17.679  0.00  0.00    +0.000 A 
ATOM     16  C   UNL     1      38.584   8.308  18.567  0.00  0.00    +0.000 A 
BRANCH  11  18
ATOM     17  C   UNL     1      38.505  10.041  21.022  0.00  0.00    +0.000 C 
ATOM     18  O   UNL     1      39.547   9.178  20.611  0.00  0.00    +0.000 OA
ENDBRANCH  11  18
BRANCH  15  19
ATOM     19  O   UNL     1      37.614   7.437  16.509  0.00  0.00    +0.000 OA
ATOM     20  C   UNL     1      37.459   8.706  15.901  0.00  0.00    +0.000 C 
ENDBRANCH  15  19
ENDBRANCH   1  14
BRANCH   3  21
ATOM     21  C   UNL     1      36.138   2.033  16.569  0.00  0.00    +0.000 C 
ATOM     22  O   UNL     1      35.007   2.299  16.077  0.00  0.00    +0.000 OA
ATOM     23  N   UNL     1      36.327   0.845  17.323  0.00  0.00    +0.000 NA
BRANCH  23  24
ATOM     24  C   UNL     1      35.246  -0.091  17.552  0.00  0.00    +0.000 C 
BRANCH  24  25
ATOM     25  C   UNL     1      35.763  -1.523  17.558  0.00  0.00    +0.000 C 
BRANCH  25  26
ATOM     26  C   UNL     1      36.720  -1.673  16.436  0.00  0.00    +0.000 A 
ATOM     27  C   UNL     1      38.063  -1.717  16.751  0.00  0.00    +0.000 A 
ATOM     28  C   UNL     1      39.023  -1.854  15.771  0.00  0.00    +0.000 A 
ATOM     29  C   UNL     1      38.592  -1.945  14.463  0.00  0.00    +0.000 A 
ATOM     30  C   UNL     1      37.258  -1.903  14.124  0.00  0.00    +0.000 A 
ATOM     31  C   UNL     1      36.311  -1.766  15.118  0.00  0.00    +0.000 A 
ENDBRANCH  25  26
ENDBRANCH  24  25
ENDBRANCH  23  24
ENDBRANCH   3  21
TORSDOF 7
ENDMDL
MODEL 5
REMARK VINA RESULT:      -7.9      2.334      8.561
REMARK  Name = 
REMARK  7 active torsions:
REMARK  status: ('A' for Active; 'I' for Inactive)
REMARK    1  A    between atoms: O_2  and  C_3
REMARK    2  A    between atoms: C_6  and  C_7
REMARK    3  A    between atoms: C_9  and  C_10
REMARK    4  A    between atoms: N_12  and  C_13
REMARK    5  A    between atoms: C_13  and  C_14
REMARK    6  A    between atoms: C_14  and  C_15
REMARK    7  A    between atoms: C_28  and  O_29
REMARK                            x       y       z     vdW  Elec       q    Type
REMARK                         _______ _______ _______ _____ _____    ______ ____
ROOT
ATOM      1  C   UNL     1      37.884   3.762  16.691  0.00  0.00    +0.000 A 
ATOM      2  C   UNL     1      38.564   3.170  15.648  0.00  0.00    +0.000 A 
ATOM      3  C   UNL     1      38.154   1.932  15.154  0.00  0.00    +0.000 A 
ATOM      4  C   UNL     1      37.066   1.277  15.695  0.00  0.00    +0.000 A 
ATOM      5  C   UNL     1      36.686   0.055  15.184  0.00  0.00    +0.000 A 
ATOM      6  C   UNL     1      35.590  -0.558  15.761  0.00  0.00    +0.000 A 
ATOM      7  C   UNL     1      34.907   0.031  16.805  0.00  0.00    +0.000 A 
ATOM      8  C   UNL     1      35.314   1.255  17.292  0.00  0.00    +0.000 A 
ATOM      9  C   UNL     1      36.406   1.892  16.735  0.00  0.00    +0.000 A 
ATOM     10  N   UNL     1      36.830   3.099  17.194  0.00  0.00    +0.000 NA
ENDROOT
BRANCH   1  14
ATOM     11  C   UNL     1      39.105   7.564  18.232  0.00  0.00    +0.000 A 
ATOM     12  C   UNL     1      39.363   6.403  18.930  0.00  0.00    +0.000 A 
ATOM     13  C   UNL     1      38.962   5.169  18.423  0.00  0.00    +0.000 A 
ATOM     14  C   UNL     1      38.302   5.061  17.220  0.00  0.00    +0.000 A 
ATOM     15  C   UNL     1      38.044   6.218  16.521  0.00  0.00    +0.000 A 
ATOM     16  C   UNL     1      38.445   7.459  17.027  0.00  0.00    +0.000 A 
BRANCH  11  18
ATOM     17  C   UNL     1      40.208   8.928  19.949  0.00  0.00    +0.000 C 
ATOM     18  O   UNL     1      39.503   8.818  18.729  0.00  0.00    +0.000 OA
ENDBRANCH  11  18
BRANCH  15  19
ATOM     19  O   UNL     1      37.380   6.094  15.313  0.00  0.00    +0.000 OA
ATOM     20  C   UNL     1      36.862   7.210  14.613  0.00  0.00    +0.000 C 
ENDBRANCH  15  19
ENDBRANCH   1  14
BRANCH   3  21
ATOM     21  C   UNL     1      38.867   1.292  14.048  0.00  0.00    +0.000 C 
ATOM     22  O   UNL     1      38.524   1.564  12.864  0.00  0.00    +0.000 OA
ATOM     23  N   UNL     1      39.928   0.381  14.292  0.00  0.00    +0.000 NA
BRANCH  23  24
ATOM     24  C   UNL     1      40.645  -0.262  13.209  0.00  0.00    +0.000 C 
BRANCH  24  25
ATOM     25  C   UNL     1      41.018  -1.690  13.580  0.00  0.00    +0.000 C 
BRANCH  25  26
ATOM     26  C   UNL     1      39.817  -2.347  14.152  0.00  0.00    +0.000 A 
ATOM     27  C   UNL     1      38.781  -2.635  13.287  0.00  0.00    +0.000 A 
ATOM     28  C   UNL     1      37.627  -3.244  13.732  0.00  0.00    +0.000 A 
ATOM     29  C   UNL     1      37.545  -3.555  15.074  0.00  0.00    +0.000 A 
ATOM     30  C   UNL     1      38.566  -3.276  15.956  0.00  0.00    +0.000 A 
ATOM     31  C   UNL     1      39.714  -2.667  15.493  0.00  0.00    +0.000 A 
ENDBRANCH  25  26
ENDBRANCH  24  25
ENDBRANCH  23  24
ENDBRANCH   3  21
TORSDOF 7
ENDMDL
MODEL 6
REMARK VINA RESULT:      -7.7      3.044      5.286
REMARK  Name = 
REMARK  7 active torsions:
REMARK  status: ('A' for Active; 'I' for Inactive)
REMARK    1  A    between atoms: O_2  and  C_3
REMARK    2  A    between atoms: C_6  and  C_7
REMARK    3  A    between atoms: C_9  and  C_10
REMARK    4  A    between atoms: N_12  and  C_13
REMARK    5  A    between atoms: C_13  and  C_14
REMARK    6  A    between atoms: C_14  and  C_15
REMARK    7  A    between atoms: C_28  and  O_29
REMARK                            x       y       z     vdW  Elec       q    Type
REMARK                         _______ _______ _______ _____ _____    ______ ____
ROOT
ATOM      1  C   UNL     1      36.304   2.914  15.534  0.00  0.00    +0.000 A 
ATOM      2  C   UNL     1      37.307   3.571  16.216  0.00  0.00    +0.000 A 
ATOM      3  C   UNL     1      37.636   4.885  15.886  0.00  0.00    +0.000 A 
ATOM      4  C   UNL     1      36.970   5.553  14.879  0.00  0.00    +0.000 A 
ATOM      5  C   UNL     1      37.319   6.851  14.579  0.00  0.00    +0.000 A 
ATOM      6  C   UNL     1      36.621   7.474  13.562  0.00  0.00    +0.000 A 
ATOM      7  C   UNL     1      35.617   6.820  12.877  0.00  0.00    +0.000 A 
ATOM      8  C   UNL     1      35.292   5.521  13.204  0.00  0.00    +0.000 A 
ATOM      9  C   UNL     1      35.973   4.873  14.217  0.00  0.00    +0.000 A 
ATOM     10  N   UNL     1      35.675   3.592  14.560  0.00  0.00    +0.000 NA
ENDROOT
BRANCH   1  14
ATOM     11  C   UNL     1      35.264  -1.123  16.507  0.00  0.00    +0.000 A 
ATOM     12  C   UNL     1      34.631  -0.063  17.122  0.00  0.00    +0.000 A 
ATOM     13  C   UNL     1      34.975   1.249  16.801  0.00  0.00    +0.000 A 
ATOM     14  C   UNL     1      35.947   1.535  15.869  0.00  0.00    +0.000 A 
ATOM     15  C   UNL     1      36.580   0.478  15.253  0.00  0.00    +0.000 A 
ATOM     16  C   UNL     1      36.237  -0.839  15.574  0.00  0.00    +0.000 A 
BRANCH  11  18
ATOM     17  C   UNL     1      35.321  -3.518  15.976  0.00  0.00    +0.000 C 
ATOM     18  O   UNL     1      34.930  -2.453  16.819  0.00  0.00    +0.000 OA
ENDBRANCH  11  18
BRANCH  15  19
ATOM     19  O   UNL     1      37.554   0.782  14.319  0.00  0.00    +0.000 OA
ATOM     20  C   UNL     1      38.920   0.465  14.517  0.00  0.00    +0.000 C 
ENDBRANCH  15  19
ENDBRANCH   1  14
BRANCH   3  21
ATOM     21  C   UNL     1      38.699   5.593  16.602  0.00  0.00    +0.000 C 
ATOM     22  O   UNL     1      39.884   5.496  16.181  0.00  0.00    +0.000 OA
ATOM     23  N   UNL     1      38.411   6.378  17.749  0.00  0.00    +0.000 NA
BRANCH  23  24
ATOM     24  C   UNL     1      39.450   7.085  18.469  0.00  0.00    +0.000 C 
BRANCH  24  25
ATOM     25  C   UNL     1      40.054   6.203  19.552  0.00  0.00    +0.000 C 
BRANCH  25  26
ATOM     26  C   UNL     1      41.523   6.408  19.549  0.00  0.00    +0.000 A 
ATOM     27  C   UNL     1      42.181   6.295  20.756  0.00  0.00    +0.000 A 
ATOM     28  C   UNL     1      43.545   6.470  20.846  0.00  0.00    +0.000 A 
ATOM     29  C   UNL     1      44.229   6.764  19.684  0.00  0.00    +0.000 A 
ATOM     30  C   UNL     1      43.595   6.882  18.468  0.00  0.00    +0.000 A 
ATOM     31  C   UNL     1      42.228   6.703  18.396  0.00  0.00    +0.000 A 
ENDBRANCH  25  26
ENDBRANCH  24  25
ENDBRANCH  23  24
ENDBRANCH   3  21
TORSDOF 7
ENDMDL
MODEL 7
REMARK VINA RESULT:      -7.7      4.198      6.109
REMARK  Name = 
REMARK  7 active torsions:
REMARK  status: ('A' for Active; 'I' for Inactive)
REMARK    1  A    between atoms: O_2  and  C_3
REMARK    2  A    between atoms: C_6  and  C_7
REMARK    3  A    between atoms: C_9  and  C_10
REMARK    4  A    between atoms: N_12  and  C_13
REMARK    5  A    between atoms: C_13  and  C_14
REMARK    6  A    between atoms: C_14  and  C_15
REMARK    7  A    between atoms: C_28  and  O_29
REMARK                            x       y       z     vdW  Elec       q    Type
REMARK                         _______ _______ _______ _____ _____    ______ ____
ROOT
ATOM      1  C   UNL     1      41.771  -1.793  14.030  0.00  0.00    +0.000 A 
ATOM      2  C   UNL     1      40.985  -2.492  14.923  0.00  0.00    +0.000 A 
ATOM      3  C   UNL     1      39.776  -1.956  15.365  0.00  0.00    +0.000 A 
ATOM      4  C   UNL     1      39.342  -0.723  14.923  0.00  0.00    +0.000 A 
ATOM      5  C   UNL     1      38.143  -0.222  15.380  0.00  0.00    +0.000 A 
ATOM      6  C   UNL     1      37.755   1.017  14.905  0.00  0.00    +0.000 A 
ATOM      7  C   UNL     1      38.538   1.720  14.013  0.00  0.00    +0.000 A 
ATOM      8  C   UNL     1      39.732   1.189  13.576  0.00  0.00    +0.000 A 
ATOM      9  C   UNL     1      40.146  -0.048  14.032  0.00  0.00    +0.000 A 
ATOM     10  N   UNL     1      41.320  -0.597  13.619  0.00  0.00    +0.000 NA
ENDROOT
BRANCH   1  14
ATOM     11  C   UNL     1      45.491  -3.397  12.650  0.00  0.00    +0.000 A 
ATOM     12  C   UNL     1      44.303  -3.747  12.045  0.00  0.00    +0.000 A 
ATOM     13  C   UNL     1      43.095  -3.222  12.499  0.00  0.00    +0.000 A 
ATOM     14  C   UNL     1      43.041  -2.343  13.557  0.00  0.00    +0.000 A 
ATOM     15  C   UNL     1      44.226  -1.991  14.163  0.00  0.00    +0.000 A 
ATOM     16  C   UNL     1      45.440  -2.517  13.709  0.00  0.00    +0.000 A 
BRANCH  11  18
ATOM     17  C   UNL     1      46.900  -4.304  10.857  0.00  0.00    +0.000 C 
ATOM     18  O   UNL     1      46.719  -3.918  12.204  0.00  0.00    +0.000 OA
ENDBRANCH  11  18
BRANCH  15  19
ATOM     19  O   UNL     1      44.156  -1.106  15.225  0.00  0.00    +0.000 OA
ATOM     20  C   UNL     1      45.219  -0.231  15.555  0.00  0.00    +0.000 C 
ENDBRANCH  15  19
ENDBRANCH   1  14
BRANCH   3  21
ATOM     21  C   UNL     1      38.934  -2.688  16.313  0.00  0.00    +0.000 C 
ATOM     22  O   UNL     1      38.174  -3.595  15.876  0.00  0.00    +0.000 OA
ATOM     23  N   UNL     1      38.964  -2.388  17.700  0.00  0.00    +0.000 NA
BRANCH  23  24
ATOM     24  C   UNL     1      38.137  -3.102  18.652  0.00  0.00    +0.000 C 
BRANCH  24  25
ATOM     25  C   UNL     1      37.339  -2.131  19.510  0.00  0.00    +0.000 C 
BRANCH  25  26
ATOM     26  C   UNL     1      36.422  -1.377  18.622  0.00  0.00    +0.000 A 
ATOM     27  C   UNL     1      36.413  -0.002  18.741  0.00  0.00    +0.000 A 
ATOM     28  C   UNL     1      35.590   0.778  17.955  0.00  0.00    +0.000 A 
ATOM     29  C   UNL     1      34.776   0.134  17.047  0.00  0.00    +0.000 A 
ATOM     30  C   UNL     1      34.767  -1.237  16.910  0.00  0.00    +0.000 A 
ATOM     31  C   UNL     1      35.597  -2.002  17.704  0.00  0.00    +0.000 A 
ENDBRANCH  25  26
ENDBRANCH  24  25
ENDBRANCH  23  24
ENDBRANCH   3  21
TORSDOF 7
ENDMDL
MODEL 8
REMARK VINA RESULT:      -7.7      2.529      4.342
REMARK  Name = 
REMARK  7 active torsions:
REMARK  status: ('A' for Active; 'I' for Inactive)
REMARK    1  A    between atoms: O_2  and  C_3
REMARK    2  A    between atoms: C_6  and  C_7
REMARK    3  A    between atoms: C_9  and  C_10
REMARK    4  A    between atoms: N_12  and  C_13
REMARK    5  A    between atoms: C_13  and  C_14
REMARK    6  A    between atoms: C_14  and  C_15
REMARK    7  A    between atoms: C_28  and  O_29
REMARK                            x       y       z     vdW  Elec       q    Type
REMARK                         _______ _______ _______ _____ _____    ______ ____
ROOT
ATOM      1  C   UNL     1      38.163  -1.366  14.816  0.00  0.00    +0.000 A 
ATOM      2  C   UNL     1      37.629  -0.136  15.138  0.00  0.00    +0.000 A 
ATOM      3  C   UNL     1      38.295   1.035  14.781  0.00  0.00    +0.000 A 
ATOM      4  C   UNL     1      39.496   0.991  14.102  0.00  0.00    +0.000 A 
ATOM      5  C   UNL     1      40.129   2.167  13.764  0.00  0.00    +0.000 A 
ATOM      6  C   UNL     1      41.328   2.065  13.084  0.00  0.00    +0.000 A 
ATOM      7  C   UNL     1      41.867   0.837  12.760  0.00  0.00    +0.000 A 
ATOM      8  C   UNL     1      41.207  -0.320  13.114  0.00  0.00    +0.000 A 
ATOM      9  C   UNL     1      40.005  -0.251  13.793  0.00  0.00    +0.000 A 
ATOM     10  N   UNL     1      39.332  -1.375  14.155  0.00  0.00    +0.000 NA
ENDROOT
BRANCH   1  14
ATOM     11  C   UNL     1      36.155  -4.988  15.898  0.00  0.00    +0.000 A 
ATOM     12  C   UNL     1      35.905  -4.376  14.687  0.00  0.00    +0.000 A 
ATOM     13  C   UNL     1      36.562  -3.197  14.342  0.00  0.00    +0.000 A 
ATOM     14  C   UNL     1      37.475  -2.604  15.184  0.00  0.00    +0.000 A 
ATOM     15  C   UNL     1      37.727  -3.213  16.393  0.00  0.00    +0.000 A 
ATOM     16  C   UNL     1      37.069  -4.396  16.742  0.00  0.00    +0.000 A 
BRANCH  11  18
ATOM     17  C   UNL     1      34.320  -6.591  15.606  0.00  0.00    +0.000 C 
ATOM     18  O   UNL     1      35.501  -6.178  16.263  0.00  0.00    +0.000 OA
ENDBRANCH  11  18
BRANCH  15  19
ATOM     19  O   UNL     1      38.647  -2.605  17.229  0.00  0.00    +0.000 OA
ATOM     20  C   UNL     1      38.302  -2.123  18.514  0.00  0.00    +0.000 C 
ENDBRANCH  15  19
ENDBRANCH   1  14
BRANCH   3  21
ATOM     21  C   UNL     1      37.739   2.347  15.117  0.00  0.00    +0.000 C 
ATOM     22  O   UNL     1      36.760   2.782  14.450  0.00  0.00    +0.000 OA
ATOM     23  N   UNL     1      38.284   3.123  16.174  0.00  0.00    +0.000 NA
BRANCH  23  24
ATOM     24  C   UNL     1      37.746   4.423  16.520  0.00  0.00    +0.000 C 
BRANCH  24  25
ATOM     25  C   UNL     1      38.667   5.535  16.039  0.00  0.00    +0.000 C 
BRANCH  25  26
ATOM     26  C   UNL     1      39.613   5.858  17.135  0.00  0.00    +0.000 A 
ATOM     27  C   UNL     1      39.119   5.839  18.423  0.00  0.00    +0.000 A 
ATOM     28  C   UNL     1      39.927   6.127  19.502  0.00  0.00    +0.000 A 
ATOM     29  C   UNL     1      41.247   6.435  19.248  0.00  0.00    +0.000 A 
ATOM     30  C   UNL     1      41.763   6.460  17.970  0.00  0.00    +0.000 A 
ATOM     31  C   UNL     1      40.940   6.169  16.902  0.00  0.00    +0.000 A 
ENDBRANCH  25  26
ENDBRANCH  24  25
ENDBRANCH  23  24
ENDBRANCH   3  21
TORSDOF 7
ENDMDL
MODEL 9
REMARK VINA RESULT:      -7.5     24.736     28.840
REMARK  Name = 
REMARK  7 active torsions:
REMARK  status: ('A' for Active; 'I' for Inactive)
REMARK    1  A    between atoms: O_2  and  C_3
REMARK    2  A    between atoms: C_6  and  C_7
REMARK    3  A    between atoms: C_9  and  C_10
REMARK    4  A    between atoms: N_12  and  C_13
REMARK    5  A    between atoms: C_13  and  C_14
REMARK    6  A    between atoms: C_14  and  C_15
REMARK    7  A    between atoms: C_28  and  O_29
REMARK                            x       y       z     vdW  Elec       q    Type
REMARK                         _______ _______ _______ _____ _____    ______ ____
ROOT
ATOM      1  C   UNL     1      10.916  -0.702  25.832  0.00  0.00    +0.000 A 
ATOM      2  C   UNL     1      12.130  -0.762  26.485  0.00  0.00    +0.000 A 
ATOM      3  C   UNL     1      12.714   0.399  26.990  0.00  0.00    +0.000 A 
ATOM      4  C   UNL     1      12.096   1.625  26.849  0.00  0.00    +0.000 A 
ATOM      5  C   UNL     1      12.700   2.753  27.360  0.00  0.00    +0.000 A 
ATOM      6  C   UNL     1      12.039   3.954  27.191  0.00  0.00    +0.000 A 
ATOM      7  C   UNL     1      10.825   4.019  26.539  0.00  0.00    +0.000 A 
ATOM      8  C   UNL     1      10.248   2.871  26.040  0.00  0.00    +0.000 A 
ATOM      9  C   UNL     1      10.886   1.655  26.194  0.00  0.00    +0.000 A 
ATOM     10  N   UNL     1      10.341   0.506  25.712  0.00  0.00    +0.000 NA
ENDROOT
BRANCH   1  14
ATOM     11  C   UNL     1       9.081  -4.240  24.272  0.00  0.00    +0.000 A 
ATOM     12  C   UNL     1       9.975  -3.514  23.513  0.00  0.00    +0.000 A 
ATOM     13  C   UNL     1      10.568  -2.363  24.027  0.00  0.00    +0.000 A 
ATOM     14  C   UNL     1      10.290  -1.911  25.297  0.00  0.00    +0.000 A 
ATOM     15  C   UNL     1       9.398  -2.634  26.057  0.00  0.00    +0.000 A 
ATOM     16  C   UNL     1       8.801  -3.790  25.544  0.00  0.00    +0.000 A 
BRANCH  11  18
ATOM     17  C   UNL     1       8.578  -5.748  22.402  0.00  0.00    +0.000 C 
ATOM     18  O   UNL     1       8.473  -5.404  23.770  0.00  0.00    +0.000 OA
ENDBRANCH  11  18
BRANCH  15  19
ATOM     19  O   UNL     1       9.129  -2.167  27.332  0.00  0.00    +0.000 OA
ATOM     20  C   UNL     1       9.426  -2.920  28.493  0.00  0.00    +0.000 C 
ENDBRANCH  15  19
ENDBRANCH   1  14
BRANCH   3  21
ATOM     21  C   UNL     1      14.001   0.349  27.685  0.00  0.00    +0.000 C 
ATOM     22  O   UNL     1      14.011   0.284  28.945  0.00  0.00    +0.000 OA
ATOM     23  N   UNL     1      15.223   0.373  26.962  0.00  0.00    +0.000 NA
BRANCH  23  24
ATOM     24  C   UNL     1      16.506   0.324  27.633  0.00  0.00    +0.000 C 
BRANCH  24  25
ATOM     25  C   UNL     1      17.519   1.216  26.928  0.00  0.00    +0.000 C 
BRANCH  25  26
ATOM     26  C   UNL     1      18.237   0.394  25.924  0.00  0.00    +0.000 A 
ATOM     27  C   UNL     1      18.810   1.056  24.857  0.00  0.00    +0.000 A 
ATOM     28  C   UNL     1      19.496   0.372  23.877  0.00  0.00    +0.000 A 
ATOM     29  C   UNL     1      19.588  -0.999  23.999  0.00  0.00    +0.000 A 
ATOM     30  C   UNL     1      19.024  -1.682  25.054  0.00  0.00    +0.000 A 
ATOM     31  C   UNL     1      18.342  -0.981  26.027  0.00  0.00    +0.000 A 
ENDBRANCH  25  26
ENDBRANCH  24  25
ENDBRANCH  23  24
ENDBRANCH   3  21
TORSDOF 7
ENDMDL
MODEL 10
REMARK VINA RESULT:      -7.5      2.589      4.215
REMARK  Name = 
REMARK  7 active torsions:
REMARK  status: ('A' for Active; 'I' for Inactive)
REMARK    1  A    between atoms: O_2  and  C_3
REMARK    2  A    between atoms: C_6  and  C_7
REMARK    3  A    between atoms: C_9  and  C_10
REMARK    4  A    between atoms: N_12  and  C_13
REMARK    5  A    between atoms: C_13  and  C_14
REMARK    6  A    between atoms: C_14  and  C_15
REMARK    7  A    between atoms: C_28  and  O_29
REMARK                            x       y       z     vdW  Elec       q    Type
REMARK                         _______ _______ _______ _____ _____    ______ ____
ROOT
ATOM      1  C   UNL     1      38.710   0.017  14.425  0.00  0.00    +0.000 A 
ATOM      2  C   UNL     1      39.291   1.227  14.742  0.00  0.00    +0.000 A 
ATOM      3  C   UNL     1      39.205   2.302  13.858  0.00  0.00    +0.000 A 
ATOM      4  C   UNL     1      38.542   2.179  12.653  0.00  0.00    +0.000 A 
ATOM      5  C   UNL     1      38.476   3.260  11.802  0.00  0.00    +0.000 A 
ATOM      6  C   UNL     1      37.800   3.084  10.610  0.00  0.00    +0.000 A 
ATOM      7  C   UNL     1      37.218   1.875  10.288  0.00  0.00    +0.000 A 
ATOM      8  C   UNL     1      37.303   0.814  11.163  0.00  0.00    +0.000 A 
ATOM      9  C   UNL     1      37.972   0.960  12.363  0.00  0.00    +0.000 A 
ATOM     10  N   UNL     1      38.072  -0.069  13.246  0.00  0.00    +0.000 NA
ENDROOT
BRANCH   1  14
ATOM     11  C   UNL     1      38.943  -3.305  17.114  0.00  0.00    +0.000 A 
ATOM     12  C   UNL     1      39.799  -3.206  16.037  0.00  0.00    +0.000 A 
ATOM     13  C   UNL     1      39.718  -2.122  15.166  0.00  0.00    +0.000 A 
ATOM     14  C   UNL     1      38.792  -1.119  15.343  0.00  0.00    +0.000 A 
ATOM     15  C   UNL     1      37.935  -1.215  16.417  0.00  0.00    +0.000 A 
ATOM     16  C   UNL     1      38.015  -2.302  17.293  0.00  0.00    +0.000 A 
BRANCH  11  18
ATOM     17  C   UNL     1      38.894  -4.198  19.399  0.00  0.00    +0.000 C 
ATOM     18  O   UNL     1      39.011  -4.391  18.004  0.00  0.00    +0.000 OA
ENDBRANCH  11  18
BRANCH  15  19
ATOM     19  O   UNL     1      37.010  -0.199  16.582  0.00  0.00    +0.000 OA
ATOM     20  C   UNL     1      35.622  -0.399  16.387  0.00  0.00    +0.000 C 
ENDBRANCH  15  19
ENDBRANCH   1  14
BRANCH   3  21
ATOM     21  C   UNL     1      39.818   3.591  14.183  0.00  0.00    +0.000 C 
ATOM     22  O   UNL     1      40.826   3.968  13.524  0.00  0.00    +0.000 OA
ATOM     23  N   UNL     1      39.295   4.408  15.218  0.00  0.00    +0.000 NA
BRANCH  23  24
ATOM     24  C   UNL     1      39.888   5.687  15.554  0.00  0.00    +0.000 C 
BRANCH  24  25
ATOM     25  C   UNL     1      39.281   6.246  16.833  0.00  0.00    +0.000 C 
BRANCH  25  26
ATOM     26  C   UNL     1      40.357   6.344  17.849  0.00  0.00    +0.000 A 
ATOM     27  C   UNL     1      39.987   6.245  19.175  0.00  0.00    +0.000 A 
ATOM     28  C   UNL     1      40.921   6.326  20.185  0.00  0.00    +0.000 A 
ATOM     29  C   UNL     1      42.239   6.511  19.824  0.00  0.00    +0.000 A 
ATOM     30  C   UNL     1      42.633   6.613  18.508  0.00  0.00    +0.000 A 
ATOM     31  C   UNL     1      41.685   6.529  17.509  0.00  0.00    +0.000 A 
ENDBRANCH  25  26
ENDBRANCH  24  25
ENDBRANCH  23  24
ENDBRANCH   3  21
TORSDOF 7
ENDMDL
