MODEL 1
REMARK VINA RESULT:      -7.5      0.000      0.000
REMARK  Name = 
REMARK  10 active torsions:
REMARK  status: ('A' for Active; 'I' for Inactive)
REMARK    1  A    between atoms: C_2  and  O_3
REMARK    2  A    between atoms: O_3  and  C_4
REMARK    3  A    between atoms: C_4  and  C_6
REMARK    4  A    between atoms: C_7  and  C_8
REMARK    5  A    between atoms: C_16  and  N_17
REMARK    6  A    between atoms: C_18  and  C_20
REMARK    7  A    between atoms: C_20  and  N_21
REMARK    8  A    between atoms: N_21  and  C_22
REMARK    9  A    between atoms: C_22  and  C_23
REMARK   10  A    between atoms: C_23  and  C_24
REMARK                            x       y       z     vdW  Elec       q    Type
REMARK                         _______ _______ _______ _____ _____    ______ ____
ROOT
ATOM      1  C   UNL     1      37.274  -0.896  15.436  0.00  0.00    +0.000 A 
ATOM      2  C   UNL     1      37.196  -2.035  14.708  0.00  0.00    +0.000 A 
ATOM      3  C   UNL     1      37.833  -2.021  13.485  0.00  0.00    +0.000 A 
ATOM      4  S   UNL     1      38.502  -0.478  13.385  0.00  0.00    +0.000 S 
ATOM      5  C   UNL     1      37.980   0.145  14.875  0.00  0.00    +0.000 A 
ENDROOT
BRANCH   2   6
ATOM      6  C   UNL     1      36.516  -3.308  15.124  0.00  0.00    +0.000 A 
ATOM      7  C   UNL     1      37.133  -4.240  15.900  0.00  0.00    +0.000 A 
ATOM      8  C   UNL     1      36.492  -5.426  16.278  0.00  0.00    +0.000 A 
ATOM      9  C   UNL     1      35.197  -5.661  15.853  0.00  0.00    +0.000 A 
ATOM     10  C   UNL     1      34.575  -4.718  15.067  0.00  0.00    +0.000 A 
ATOM     11  C   UNL     1      35.227  -3.563  14.711  0.00  0.00    +0.000 A 
ENDBRANCH   2   6
BRANCH   5  12
ATOM     12  N   UNL     1      38.207   1.459  15.454  0.00  0.00    +0.000 NA
ATOM     13  C   UNL     1      37.229   2.459  15.180  0.00  0.00    +0.000 C 
ATOM     14  O   UNL     1      36.254   2.125  14.464  0.00  0.00    +0.000 OA
BRANCH  13  15
ATOM     15  C   UNL     1      37.311   3.833  15.690  0.00  0.00    +0.000 C 
BRANCH  15  16
ATOM     16  N   UNL     1      38.388   3.912  16.654  0.00  0.00    +0.000 NA
BRANCH  16  17
ATOM     17  C   UNL     1      38.757   5.307  16.804  0.00  0.00    +0.000 C 
BRANCH  17  18
ATOM     18  C   UNL     1      38.791   5.613  18.288  0.00  0.00    +0.000 C 
BRANCH  18  19
ATOM     19  C   UNL     1      40.192   6.036  18.600  0.00  0.00    +0.000 A 
ATOM     20  C   UNL     1      40.589   6.236  19.915  0.00  0.00    +0.000 A 
ATOM     21  C   UNL     1      41.871   6.622  20.155  0.00  0.00    +0.000 A 
ATOM     22  C   UNL     1      42.749   6.810  19.117  0.00  0.00    +0.000 A 
ATOM     23  C   UNL     1      42.354   6.611  17.800  0.00  0.00    +0.000 A 
ATOM     24  C   UNL     1      41.070   6.224  17.565  0.00  0.00    +0.000 A 
ENDBRANCH  18  19
ENDBRANCH  17  18
ENDBRANCH  16  17
ENDBRANCH  15  16
ENDBRANCH  13  15
ENDBRANCH   5  12
BRANCH   1  25
ATOM     25  C   UNL     1      36.632  -0.722  16.780  0.00  0.00    +0.000 C 
ATOM     26  O   UNL     1      35.393  -0.536  16.887  0.00  0.00    +0.000 OA
BRANCH  25  27
ATOM     27  O   UNL     1      37.341  -0.754  17.960  0.00  0.00    +0.000 OA
BRANCH  27  29
ATOM     28  C   UNL     1      38.410  -2.618  18.919  0.00  0.00    +0.000 C 
ATOM     29  C   UNL     1      37.119  -1.828  18.869  0.00  0.00    +0.000 C 
ENDBRANCH  27  29
ENDBRANCH  25  27
ENDBRANCH   1  25
TORSDOF 10
ENDMDL
MODEL 2
REMARK VINA RESULT:      -7.5      1.033      1.872
REMARK  Name = 
REMARK  10 active torsions:
REMARK  status: ('A' for Active; 'I' for Inactive)
REMARK    1  A    between atoms: C_2  and  O_3
REMARK    2  A    between atoms: O_3  and  C_4
REMARK    3  A    between atoms: C_4  and  C_6
REMARK    4  A    between atoms: C_7  and  C_8
REMARK    5  A    between atoms: C_16  and  N_17
REMARK    6  A    between atoms: C_18  and  C_20
REMARK    7  A    between atoms: C_20  and  N_21
REMARK    8  A    between atoms: N_21  and  C_22
REMARK    9  A    between atoms: C_22  and  C_23
REMARK   10  A    between atoms: C_23  and  C_24
REMARK                            x       y       z     vdW  Elec       q    Type
REMARK                         _______ _______ _______ _____ _____    ______ ____
ROOT
ATOM      1  C   UNL     1      38.035  -1.046  15.203  0.00  0.00    +0.000 A 
ATOM      2  C   UNL     1      37.728  -2.170  14.513  0.00  0.00    +0.000 A 
ATOM      3  C   UNL     1      38.226  -2.253  13.230  0.00  0.00    +0.000 A 
ATOM      4  S   UNL     1      39.079  -0.814  13.024  0.00  0.00    +0.000 S 
ATOM      5  C   UNL     1      38.809  -0.114  14.547  0.00  0.00    +0.000 A 
ENDROOT
BRANCH   2   6
ATOM      6  C   UNL     1      36.934  -3.336  15.028  0.00  0.00    +0.000 A 
ATOM      7  C   UNL     1      35.657  -3.578  14.625  0.00  0.00    +0.000 A 
ATOM      8  C   UNL     1      34.923  -4.666  15.116  0.00  0.00    +0.000 A 
ATOM      9  C   UNL     1      35.508  -5.518  16.034  0.00  0.00    +0.000 A 
ATOM     10  C   UNL     1      36.800  -5.271  16.440  0.00  0.00    +0.000 A 
ATOM     11  C   UNL     1      37.497  -4.198  15.943  0.00  0.00    +0.000 A 
ENDBRANCH   2   6
BRANCH   5  12
ATOM     12  N   UNL     1      39.269   1.162  15.068  0.00  0.00    +0.000 NA
ATOM     13  C   UNL     1      38.482   2.307  14.752  0.00  0.00    +0.000 C 
ATOM     14  O   UNL     1      37.457   2.121  14.051  0.00  0.00    +0.000 OA
BRANCH  13  15
ATOM     15  C   UNL     1      38.810   3.665  15.202  0.00  0.00    +0.000 C 
BRANCH  15  16
ATOM     16  N   UNL     1      38.440   3.800  16.595  0.00  0.00    +0.000 NA
BRANCH  16  17
ATOM     17  C   UNL     1      38.632   5.185  16.980  0.00  0.00    +0.000 C 
BRANCH  17  18
ATOM     18  C   UNL     1      38.881   5.214  18.475  0.00  0.00    +0.000 C 
BRANCH  18  19
ATOM     19  C   UNL     1      40.207   5.881  18.669  0.00  0.00    +0.000 A 
ATOM     20  C   UNL     1      41.050   6.095  17.588  0.00  0.00    +0.000 A 
ATOM     21  C   UNL     1      42.247   6.702  17.808  0.00  0.00    +0.000 A 
ATOM     22  C   UNL     1      42.609   7.094  19.073  0.00  0.00    +0.000 A 
ATOM     23  C   UNL     1      41.767   6.881  20.156  0.00  0.00    +0.000 A 
ATOM     24  C   UNL     1      40.570   6.272  19.932  0.00  0.00    +0.000 A 
ENDBRANCH  18  19
ENDBRANCH  17  18
ENDBRANCH  16  17
ENDBRANCH  15  16
ENDBRANCH  13  15
ENDBRANCH   5  12
BRANCH   1  25
ATOM     25  C   UNL     1      37.570  -0.775  16.603  0.00  0.00    +0.000 C 
ATOM     26  O   UNL     1      38.146  -1.300  17.590  0.00  0.00    +0.000 OA
BRANCH  25  27
ATOM     27  O   UNL     1      36.506   0.050  16.893  0.00  0.00    +0.000 OA
BRANCH  27  29
ATOM     28  C   UNL     1      34.511  -1.147  17.241  0.00  0.00    +0.000 C 
ATOM     29  C   UNL     1      35.242  -0.218  16.294  0.00  0.00    +0.000 C 
ENDBRANCH  27  29
ENDBRANCH  25  27
ENDBRANCH   1  25
TORSDOF 10
ENDMDL
MODEL 3
REMARK VINA RESULT:      -7.4      1.731      2.513
REMARK  Name = 
REMARK  10 active torsions:
REMARK  status: ('A' for Active; 'I' for Inactive)
REMARK    1  A    between atoms: C_2  and  O_3
REMARK    2  A    between atoms: O_3  and  C_4
REMARK    3  A    between atoms: C_4  and  C_6
REMARK    4  A    between atoms: C_7  and  C_8
REMARK    5  A    between atoms: C_16  and  N_17
REMARK    6  A    between atoms: C_18  and  C_20
REMARK    7  A    between atoms: C_20  and  N_21
REMARK    8  A    between atoms: N_21  and  C_22
REMARK    9  A    between atoms: C_22  and  C_23
REMARK   10  A    between atoms: C_23  and  C_24
REMARK                            x       y       z     vdW  Elec       q    Type
REMARK                         _______ _______ _______ _____ _____    ______ ____
ROOT
ATOM      1  C   UNL     1      36.617  -0.404  16.076  0.00  0.00    +0.000 A 
ATOM      2  C   UNL     1      35.643  -1.269  16.447  0.00  0.00    +0.000 A 
ATOM      3  C   UNL     1      34.560  -0.721  17.101  0.00  0.00    +0.000 A 
ATOM      4  S   UNL     1      34.912   0.924  17.179  0.00  0.00    +0.000 S 
ATOM      5  C   UNL     1      36.416   0.921  16.393  0.00  0.00    +0.000 A 
ENDROOT
BRANCH   2   6
ATOM      6  C   UNL     1      35.621  -2.746  16.180  0.00  0.00    +0.000 A 
ATOM      7  C   UNL     1      36.492  -3.604  16.778  0.00  0.00    +0.000 A 
ATOM      8  C   UNL     1      36.467  -4.980  16.517  0.00  0.00    +0.000 A 
ATOM      9  C   UNL     1      35.534  -5.484  15.630  0.00  0.00    +0.000 A 
ATOM     10  C   UNL     1      34.655  -4.615  15.025  0.00  0.00    +0.000 A 
ATOM     11  C   UNL     1      34.701  -3.270  15.299  0.00  0.00    +0.000 A 
ENDBRANCH   2   6
BRANCH   5  12
ATOM     12  N   UNL     1      37.307   2.034  16.105  0.00  0.00    +0.000 NA
ATOM     13  C   UNL     1      37.065   2.756  14.901  0.00  0.00    +0.000 C 
ATOM     14  O   UNL     1      36.105   2.373  14.187  0.00  0.00    +0.000 OA
BRANCH  13  15
ATOM     15  C   UNL     1      37.872   3.902  14.468  0.00  0.00    +0.000 C 
BRANCH  15  16
ATOM     16  N   UNL     1      39.141   3.872  15.163  0.00  0.00    +0.000 NA
BRANCH  16  17
ATOM     17  C   UNL     1      39.447   5.220  15.601  0.00  0.00    +0.000 C 
BRANCH  17  18
ATOM     18  C   UNL     1      38.815   5.411  16.966  0.00  0.00    +0.000 C 
BRANCH  18  19
ATOM     19  C   UNL     1      39.910   5.867  17.878  0.00  0.00    +0.000 A 
ATOM     20  C   UNL     1      39.686   5.979  19.243  0.00  0.00    +0.000 A 
ATOM     21  C   UNL     1      40.706   6.398  20.038  0.00  0.00    +0.000 A 
ATOM     22  C   UNL     1      41.931   6.703  19.497  0.00  0.00    +0.000 A 
ATOM     23  C   UNL     1      42.158   6.591  18.132  0.00  0.00    +0.000 A 
ATOM     24  C   UNL     1      41.134   6.171  17.341  0.00  0.00    +0.000 A 
ENDBRANCH  18  19
ENDBRANCH  17  18
ENDBRANCH  16  17
ENDBRANCH  15  16
ENDBRANCH  13  15
ENDBRANCH   5  12
BRANCH   1  25
ATOM     25  C   UNL     1      37.874  -0.819  15.370  0.00  0.00    +0.000 C 
ATOM     26  O   UNL     1      38.932  -1.045  16.010  0.00  0.00    +0.000 OA
BRANCH  25  27
ATOM     27  O   UNL     1      37.949  -0.976  14.004  0.00  0.00    +0.000 OA
BRANCH  27  29
ATOM     28  C   UNL     1      37.966  -3.247  13.388  0.00  0.00    +0.000 C 
ATOM     29  C   UNL     1      38.801  -1.986  13.472  0.00  0.00    +0.000 C 
ENDBRANCH  27  29
ENDBRANCH  25  27
ENDBRANCH   1  25
TORSDOF 10
ENDMDL
MODEL 4
REMARK VINA RESULT:      -7.4      1.022      1.733
REMARK  Name = 
REMARK  10 active torsions:
REMARK  status: ('A' for Active; 'I' for Inactive)
REMARK    1  A    between atoms: C_2  and  O_3
REMARK    2  A    between atoms: O_3  and  C_4
REMARK    3  A    between atoms: C_4  and  C_6
REMARK    4  A    between atoms: C_7  and  C_8
REMARK    5  A    between atoms: C_16  and  N_17
REMARK    6  A    between atoms: C_18  and  C_20
REMARK    7  A    between atoms: C_20  and  N_21
REMARK    8  A    between atoms: N_21  and  C_22
REMARK    9  A    between atoms: C_22  and  C_23
REMARK   10  A    between atoms: C_23  and  C_24
REMARK                            x       y       z     vdW  Elec       q    Type
REMARK                         _______ _______ _______ _____ _____    ______ ____
ROOT
ATOM      1  C   UNL     1      36.928  -0.595  15.089  0.00  0.00    +0.000 A 
ATOM      2  C   UNL     1      37.363  -1.802  14.656  0.00  0.00    +0.000 A 
ATOM      3  C   UNL     1      37.923  -1.831  13.397  0.00  0.00    +0.000 A 
ATOM      4  S   UNL     1      37.834  -0.235  12.867  0.00  0.00    +0.000 S 
ATOM      5  C   UNL     1      37.094   0.465  14.225  0.00  0.00    +0.000 A 
ENDROOT
BRANCH   2   6
ATOM      6  C   UNL     1      37.323  -3.088  15.431  0.00  0.00    +0.000 A 
ATOM      7  C   UNL     1      36.256  -3.931  15.382  0.00  0.00    +0.000 A 
ATOM      8  C   UNL     1      36.226  -5.125  16.113  0.00  0.00    +0.000 A 
ATOM      9  C   UNL     1      37.308  -5.460  16.906  0.00  0.00    +0.000 A 
ATOM     10  C   UNL     1      38.386  -4.606  16.954  0.00  0.00    +0.000 A 
ATOM     11  C   UNL     1      38.389  -3.441  16.227  0.00  0.00    +0.000 A 
ENDBRANCH   2   6
BRANCH   5  12
ATOM     12  N   UNL     1      36.713   1.849  14.456  0.00  0.00    +0.000 NA
ATOM     13  C   UNL     1      37.697   2.697  15.041  0.00  0.00    +0.000 C 
ATOM     14  O   UNL     1      38.810   2.182  15.311  0.00  0.00    +0.000 OA
BRANCH  13  15
ATOM     15  C   UNL     1      37.470   4.117  15.336  0.00  0.00    +0.000 C 
BRANCH  15  16
ATOM     16  N   UNL     1      37.758   4.357  16.734  0.00  0.00    +0.000 NA
BRANCH  16  17
ATOM     17  C   UNL     1      38.279   5.705  16.861  0.00  0.00    +0.000 C 
BRANCH  17  18
ATOM     18  C   UNL     1      39.745   5.667  16.477  0.00  0.00    +0.000 C 
BRANCH  18  19
ATOM     19  C   UNL     1      40.513   6.047  17.705  0.00  0.00    +0.000 A 
ATOM     20  C   UNL     1      41.851   6.405  17.613  0.00  0.00    +0.000 A 
ATOM     21  C   UNL     1      42.513   6.741  18.752  0.00  0.00    +0.000 A 
ATOM     22  C   UNL     1      41.869   6.726  19.964  0.00  0.00    +0.000 A 
ATOM     23  C   UNL     1      40.530   6.369  20.058  0.00  0.00    +0.000 A 
ATOM     24  C   UNL     1      39.871   6.032  18.916  0.00  0.00    +0.000 A 
ENDBRANCH  18  19
ENDBRANCH  17  18
ENDBRANCH  16  17
ENDBRANCH  15  16
ENDBRANCH  13  15
ENDBRANCH   5  12
BRANCH   1  25
ATOM     25  C   UNL     1      36.279  -0.373  16.423  0.00  0.00    +0.000 C 
ATOM     26  O   UNL     1      35.033  -0.475  16.563  0.00  0.00    +0.000 OA
BRANCH  25  27
ATOM     27  O   UNL     1      36.990  -0.052  17.559  0.00  0.00    +0.000 OA
BRANCH  27  29
ATOM     28  C   UNL     1      37.116  -1.677  19.254  0.00  0.00    +0.000 C 
ATOM     29  C   UNL     1      36.445  -0.387  18.831  0.00  0.00    +0.000 C 
ENDBRANCH  27  29
ENDBRANCH  25  27
ENDBRANCH   1  25
TORSDOF 10
ENDMDL
MODEL 5
REMARK VINA RESULT:      -7.2      1.914      2.895
REMARK  Name = 
REMARK  10 active torsions:
REMARK  status: ('A' for Active; 'I' for Inactive)
REMARK    1  A    between atoms: C_2  and  O_3
REMARK    2  A    between atoms: O_3  and  C_4
REMARK    3  A    between atoms: C_4  and  C_6
REMARK    4  A    between atoms: C_7  and  C_8
REMARK    5  A    between atoms: C_16  and  N_17
REMARK    6  A    between atoms: C_18  and  C_20
REMARK    7  A    between atoms: C_20  and  N_21
REMARK    8  A    between atoms: N_21  and  C_22
REMARK    9  A    between atoms: C_22  and  C_23
REMARK   10  A    between atoms: C_23  and  C_24
REMARK                            x       y       z     vdW  Elec       q    Type
REMARK                         _______ _______ _______ _____ _____    ______ ____
ROOT
ATOM      1  C   UNL     1      36.645   0.325  15.503  0.00  0.00    +0.000 A 
ATOM      2  C   UNL     1      35.925  -0.599  16.183  0.00  0.00    +0.000 A 
ATOM      3  C   UNL     1      34.854  -0.122  16.909  0.00  0.00    +0.000 A 
ATOM      4  S   UNL     1      34.875   1.540  16.636  0.00  0.00    +0.000 S 
ATOM      5  C   UNL     1      36.227   1.633  15.613  0.00  0.00    +0.000 A 
ENDROOT
BRANCH   2   6
ATOM      6  C   UNL     1      36.164  -2.081  16.188  0.00  0.00    +0.000 A 
ATOM      7  C   UNL     1      37.162  -2.652  16.915  0.00  0.00    +0.000 A 
ATOM      8  C   UNL     1      37.381  -4.036  16.908  0.00  0.00    +0.000 A 
ATOM      9  C   UNL     1      36.562  -4.846  16.143  0.00  0.00    +0.000 A 
ATOM     10  C   UNL     1      35.554  -4.266  15.407  0.00  0.00    +0.000 A 
ATOM     11  C   UNL     1      35.362  -2.907  15.432  0.00  0.00    +0.000 A 
ENDBRANCH   2   6
BRANCH   5  12
ATOM     12  N   UNL     1      36.827   2.798  14.984  0.00  0.00    +0.000 NA
ATOM     13  C   UNL     1      37.677   3.602  15.798  0.00  0.00    +0.000 C 
ATOM     14  O   UNL     1      37.837   3.240  16.989  0.00  0.00    +0.000 OA
BRANCH  13  15
ATOM     15  C   UNL     1      38.358   4.808  15.313  0.00  0.00    +0.000 C 
BRANCH  15  16
ATOM     16  N   UNL     1      37.746   5.969  15.924  0.00  0.00    +0.000 NA
BRANCH  16  17
ATOM     17  C   UNL     1      38.789   6.736  16.579  0.00  0.00    +0.000 C 
BRANCH  17  18
ATOM     18  C   UNL     1      38.730   6.416  18.059  0.00  0.00    +0.000 C 
BRANCH  18  19
ATOM     19  C   UNL     1      40.140   6.463  18.558  0.00  0.00    +0.000 A 
ATOM     20  C   UNL     1      41.198   6.561  17.664  0.00  0.00    +0.000 A 
ATOM     21  C   UNL     1      42.464   6.599  18.158  0.00  0.00    +0.000 A 
ATOM     22  C   UNL     1      42.687   6.542  19.511  0.00  0.00    +0.000 A 
ATOM     23  C   UNL     1      41.631   6.443  20.407  0.00  0.00    +0.000 A 
ATOM     24  C   UNL     1      40.365   6.405  19.908  0.00  0.00    +0.000 A 
ENDBRANCH  18  19
ENDBRANCH  17  18
ENDBRANCH  16  17
ENDBRANCH  15  16
ENDBRANCH  13  15
ENDBRANCH   5  12
BRANCH   1  25
ATOM     25  C   UNL     1      37.849  -0.005  14.674  0.00  0.00    +0.000 C 
ATOM     26  O   UNL     1      39.009   0.267  15.078  0.00  0.00    +0.000 OA
BRANCH  25  27
ATOM     27  O   UNL     1      37.767  -0.616  13.442  0.00  0.00    +0.000 OA
BRANCH  27  29
ATOM     28  C   UNL     1      38.377  -2.880  13.260  0.00  0.00    +0.000 C 
ATOM     29  C   UNL     1      38.835  -1.457  13.016  0.00  0.00    +0.000 C 
ENDBRANCH  27  29
ENDBRANCH  25  27
ENDBRANCH   1  25
TORSDOF 10
ENDMDL
MODEL 6
REMARK VINA RESULT:      -7.1      1.777      2.843
REMARK  Name = 
REMARK  10 active torsions:
REMARK  status: ('A' for Active; 'I' for Inactive)
REMARK    1  A    between atoms: C_2  and  O_3
REMARK    2  A    between atoms: O_3  and  C_4
REMARK    3  A    between atoms: C_4  and  C_6
REMARK    4  A    between atoms: C_7  and  C_8
REMARK    5  A    between atoms: C_16  and  N_17
REMARK    6  A    between atoms: C_18  and  C_20
REMARK    7  A    between atoms: C_20  and  N_21
REMARK    8  A    between atoms: N_21  and  C_22
REMARK    9  A    between atoms: C_22  and  C_23
REMARK   10  A    between atoms: C_23  and  C_24
REMARK                            x       y       z     vdW  Elec       q    Type
REMARK                         _______ _______ _______ _____ _____    ______ ____
ROOT
ATOM      1  C   UNL     1      37.193  -0.203  14.581  0.00  0.00    +0.000 A 
ATOM      2  C   UNL     1      37.471  -1.460  14.163  0.00  0.00    +0.000 A 
ATOM      3  C   UNL     1      38.090  -1.571  12.936  0.00  0.00    +0.000 A 
ATOM      4  S   UNL     1      38.265   0.022  12.415  0.00  0.00    +0.000 S 
ATOM      5  C   UNL     1      37.560   0.821  13.736  0.00  0.00    +0.000 A 
ENDROOT
BRANCH   2   6
ATOM      6  C   UNL     1      37.201  -2.727  14.923  0.00  0.00    +0.000 A 
ATOM      7  C   UNL     1      36.068  -3.457  14.737  0.00  0.00    +0.000 A 
ATOM      8  C   UNL     1      35.823  -4.634  15.456  0.00  0.00    +0.000 A 
ATOM      9  C   UNL     1      36.756  -5.069  16.379  0.00  0.00    +0.000 A 
ATOM     10  C   UNL     1      37.901  -4.329  16.566  0.00  0.00    +0.000 A 
ATOM     11  C   UNL     1      38.116  -3.179  15.848  0.00  0.00    +0.000 A 
ENDBRANCH   2   6
BRANCH   5  12
ATOM     12  N   UNL     1      37.372   2.246  13.957  0.00  0.00    +0.000 NA
ATOM     13  C   UNL     1      38.357   2.910  14.745  0.00  0.00    +0.000 C 
ATOM     14  O   UNL     1      39.304   2.212  15.184  0.00  0.00    +0.000 OA
BRANCH  13  15
ATOM     15  C   UNL     1      38.313   4.343  15.058  0.00  0.00    +0.000 C 
BRANCH  15  16
ATOM     16  N   UNL     1      39.305   4.632  16.071  0.00  0.00    +0.000 NA
BRANCH  16  17
ATOM     17  C   UNL     1      38.612   5.069  17.268  0.00  0.00    +0.000 C 
BRANCH  17  18
ATOM     18  C   UNL     1      39.656   5.587  18.237  0.00  0.00    +0.000 C 
BRANCH  18  19
ATOM     19  C   UNL     1      39.023   6.730  18.968  0.00  0.00    +0.000 A 
ATOM     20  C   UNL     1      39.533   7.152  20.188  0.00  0.00    +0.000 A 
ATOM     21  C   UNL     1      38.928   8.192  20.821  0.00  0.00    +0.000 A 
ATOM     22  C   UNL     1      37.837   8.809  20.262  0.00  0.00    +0.000 A 
ATOM     23  C   UNL     1      37.324   8.389  19.041  0.00  0.00    +0.000 A 
ATOM     24  C   UNL     1      37.933   7.347  18.411  0.00  0.00    +0.000 A 
ENDBRANCH  18  19
ENDBRANCH  17  18
ENDBRANCH  16  17
ENDBRANCH  15  16
ENDBRANCH  13  15
ENDBRANCH   5  12
BRANCH   1  25
ATOM     25  C   UNL     1      36.510   0.111  15.879  0.00  0.00    +0.000 C 
ATOM     26  O   UNL     1      37.116  -0.003  16.975  0.00  0.00    +0.000 OA
BRANCH  25  27
ATOM     27  O   UNL     1      35.203   0.538  15.954  0.00  0.00    +0.000 OA
BRANCH  27  29
ATOM     28  C   UNL     1      34.567   2.798  15.816  0.00  0.00    +0.000 C 
ATOM     29  C   UNL     1      34.891   1.665  16.767  0.00  0.00    +0.000 C 
ENDBRANCH  27  29
ENDBRANCH  25  27
ENDBRANCH   1  25
TORSDOF 10
ENDMDL
MODEL 7
REMARK VINA RESULT:      -6.8      2.413      3.145
REMARK  Name = 
REMARK  10 active torsions:
REMARK  status: ('A' for Active; 'I' for Inactive)
REMARK    1  A    between atoms: C_2  and  O_3
REMARK    2  A    between atoms: O_3  and  C_4
REMARK    3  A    between atoms: C_4  and  C_6
REMARK    4  A    between atoms: C_7  and  C_8
REMARK    5  A    between atoms: C_16  and  N_17
REMARK    6  A    between atoms: C_18  and  C_20
REMARK    7  A    between atoms: C_20  and  N_21
REMARK    8  A    between atoms: N_21  and  C_22
REMARK    9  A    between atoms: C_22  and  C_23
REMARK   10  A    between atoms: C_23  and  C_24
REMARK                            x       y       z     vdW  Elec       q    Type
REMARK                         _______ _______ _______ _____ _____    ______ ____
ROOT
ATOM      1  C   UNL     1      36.645   0.220  15.693  0.00  0.00    +0.000 A 
ATOM      2  C   UNL     1      35.879  -0.775  16.200  0.00  0.00    +0.000 A 
ATOM      3  C   UNL     1      34.751  -0.384  16.890  0.00  0.00    +0.000 A 
ATOM      4  S   UNL     1      34.784   1.299  16.818  0.00  0.00    +0.000 S 
ATOM      5  C   UNL     1      36.212   1.507  15.924  0.00  0.00    +0.000 A 
ENDROOT
BRANCH   2   6
ATOM      6  C   UNL     1      36.126  -2.248  16.047  0.00  0.00    +0.000 A 
ATOM      7  C   UNL     1      36.820  -2.967  16.970  0.00  0.00    +0.000 A 
ATOM      8  C   UNL     1      37.050  -4.340  16.815  0.00  0.00    +0.000 A 
ATOM      9  C   UNL     1      36.559  -4.986  15.695  0.00  0.00    +0.000 A 
ATOM     10  C   UNL     1      35.858  -4.257  14.762  0.00  0.00    +0.000 A 
ATOM     11  C   UNL     1      35.647  -2.912  14.939  0.00  0.00    +0.000 A 
ENDBRANCH   2   6
BRANCH   5  12
ATOM     12  N   UNL     1      36.854   2.737  15.487  0.00  0.00    +0.000 NA
ATOM     13  C   UNL     1      37.479   3.528  16.494  0.00  0.00    +0.000 C 
ATOM     14  O   UNL     1      37.425   3.101  17.674  0.00  0.00    +0.000 OA
BRANCH  13  15
ATOM     15  C   UNL     1      38.169   4.794  16.218  0.00  0.00    +0.000 C 
BRANCH  15  16
ATOM     16  N   UNL     1      39.123   5.049  17.275  0.00  0.00    +0.000 NA
BRANCH  16  17
ATOM     17  C   UNL     1      38.729   6.269  17.953  0.00  0.00    +0.000 C 
BRANCH  17  18
ATOM     18  C   UNL     1      39.552   6.374  19.221  0.00  0.00    +0.000 C 
BRANCH  18  19
ATOM     19  C   UNL     1      39.285   7.733  19.787  0.00  0.00    +0.000 A 
ATOM     20  C   UNL     1      40.328   8.510  20.272  0.00  0.00    +0.000 A 
ATOM     21  C   UNL     1      40.043   9.738  20.780  0.00  0.00    +0.000 A 
ATOM     22  C   UNL     1      38.749  10.197  20.811  0.00  0.00    +0.000 A 
ATOM     23  C   UNL     1      37.703   9.422  20.327  0.00  0.00    +0.000 A 
ATOM     24  C   UNL     1      37.994   8.193  19.819  0.00  0.00    +0.000 A 
ENDBRANCH  18  19
ENDBRANCH  17  18
ENDBRANCH  16  17
ENDBRANCH  15  16
ENDBRANCH  13  15
ENDBRANCH   5  12
BRANCH   1  25
ATOM     25  C   UNL     1      37.913  -0.013  14.928  0.00  0.00    +0.000 C 
ATOM     26  O   UNL     1      37.934   0.050  13.673  0.00  0.00    +0.000 OA
BRANCH  25  27
ATOM     27  O   UNL     1      39.114  -0.303  15.538  0.00  0.00    +0.000 OA
BRANCH  27  29
ATOM     28  C   UNL     1      39.987  -2.476  15.318  0.00  0.00    +0.000 C 
ATOM     29  C   UNL     1      40.090  -1.050  14.819  0.00  0.00    +0.000 C 
ENDBRANCH  27  29
ENDBRANCH  25  27
ENDBRANCH   1  25
TORSDOF 10
ENDMDL
MODEL 8
REMARK VINA RESULT:      -6.7      2.748      8.257
REMARK  Name = 
REMARK  10 active torsions:
REMARK  status: ('A' for Active; 'I' for Inactive)
REMARK    1  A    between atoms: C_2  and  O_3
REMARK    2  A    between atoms: O_3  and  C_4
REMARK    3  A    between atoms: C_4  and  C_6
REMARK    4  A    between atoms: C_7  and  C_8
REMARK    5  A    between atoms: C_16  and  N_17
REMARK    6  A    between atoms: C_18  and  C_20
REMARK    7  A    between atoms: C_20  and  N_21
REMARK    8  A    between atoms: N_21  and  C_22
REMARK    9  A    between atoms: C_22  and  C_23
REMARK   10  A    between atoms: C_23  and  C_24
REMARK                            x       y       z     vdW  Elec       q    Type
REMARK                         _______ _______ _______ _____ _____    ______ ____
ROOT
ATOM      1  C   UNL     1      38.897   4.471  15.662  0.00  0.00    +0.000 A 
ATOM      2  C   UNL     1      39.660   5.458  16.187  0.00  0.00    +0.000 A 
ATOM      3  C   UNL     1      40.744   5.856  15.434  0.00  0.00    +0.000 A 
ATOM      4  S   UNL     1      40.676   4.881  14.062  0.00  0.00    +0.000 S 
ATOM      5  C   UNL     1      39.288   3.977  14.437  0.00  0.00    +0.000 A 
ENDROOT
BRANCH   2   6
ATOM      6  C   UNL     1      39.413   6.174  17.484  0.00  0.00    +0.000 A 
ATOM      7  C   UNL     1      40.132   5.909  18.608  0.00  0.00    +0.000 A 
ATOM      8  C   UNL     1      39.889   6.578  19.814  0.00  0.00    +0.000 A 
ATOM      9  C   UNL     1      38.893   7.536  19.868  0.00  0.00    +0.000 A 
ATOM     10  C   UNL     1      38.166   7.802  18.730  0.00  0.00    +0.000 A 
ATOM     11  C   UNL     1      38.425   7.131  17.560  0.00  0.00    +0.000 A 
ENDBRANCH   2   6
BRANCH   5  12
ATOM     12  N   UNL     1      38.640   2.925  13.671  0.00  0.00    +0.000 NA
ATOM     13  C   UNL     1      39.065   1.588  13.927  0.00  0.00    +0.000 C 
ATOM     14  O   UNL     1      39.963   1.428  14.790  0.00  0.00    +0.000 OA
BRANCH  13  15
ATOM     15  C   UNL     1      38.510   0.417  13.239  0.00  0.00    +0.000 C 
BRANCH  15  16
ATOM     16  N   UNL     1      39.052  -0.782  13.843  0.00  0.00    +0.000 NA
BRANCH  16  17
ATOM     17  C   UNL     1      38.014  -1.384  14.658  0.00  0.00    +0.000 C 
BRANCH  17  18
ATOM     18  C   UNL     1      38.689  -2.030  15.852  0.00  0.00    +0.000 C 
BRANCH  18  19
ATOM     19  C   UNL     1      37.895  -1.628  17.055  0.00  0.00    +0.000 A 
ATOM     20  C   UNL     1      38.185  -2.166  18.301  0.00  0.00    +0.000 A 
ATOM     21  C   UNL     1      37.438  -1.776  19.368  0.00  0.00    +0.000 A 
ATOM     22  C   UNL     1      36.420  -0.868  19.212  0.00  0.00    +0.000 A 
ATOM     23  C   UNL     1      36.128  -0.328  17.967  0.00  0.00    +0.000 A 
ATOM     24  C   UNL     1      36.878  -0.722  16.901  0.00  0.00    +0.000 A 
ENDBRANCH  18  19
ENDBRANCH  17  18
ENDBRANCH  16  17
ENDBRANCH  15  16
ENDBRANCH  13  15
ENDBRANCH   5  12
BRANCH   1  25
ATOM     25  C   UNL     1      37.689   3.900  16.343  0.00  0.00    +0.000 C 
ATOM     26  O   UNL     1      37.775   3.375  17.483  0.00  0.00    +0.000 OA
BRANCH  25  27
ATOM     27  O   UNL     1      36.433   3.914  15.779  0.00  0.00    +0.000 OA
BRANCH  27  29
ATOM     28  C   UNL     1      34.211   3.228  15.423  0.00  0.00    +0.000 C 
ATOM     29  C   UNL     1      35.505   2.894  16.135  0.00  0.00    +0.000 C 
ENDBRANCH  27  29
ENDBRANCH  25  27
ENDBRANCH   1  25
TORSDOF 10
ENDMDL
MODEL 9
REMARK VINA RESULT:      -6.7      2.774      4.783
REMARK  Name = 
REMARK  10 active torsions:
REMARK  status: ('A' for Active; 'I' for Inactive)
REMARK    1  A    between atoms: C_2  and  O_3
REMARK    2  A    between atoms: O_3  and  C_4
REMARK    3  A    between atoms: C_4  and  C_6
REMARK    4  A    between atoms: C_7  and  C_8
REMARK    5  A    between atoms: C_16  and  N_17
REMARK    6  A    between atoms: C_18  and  C_20
REMARK    7  A    between atoms: C_20  and  N_21
REMARK    8  A    between atoms: N_21  and  C_22
REMARK    9  A    between atoms: C_22  and  C_23
REMARK   10  A    between atoms: C_23  and  C_24
REMARK                            x       y       z     vdW  Elec       q    Type
REMARK                         _______ _______ _______ _____ _____    ______ ____
ROOT
ATOM      1  C   UNL     1      39.169  -1.167  15.386  0.00  0.00    +0.000 A 
ATOM      2  C   UNL     1      39.901  -2.281  15.143  0.00  0.00    +0.000 A 
ATOM      3  C   UNL     1      39.685  -3.348  15.988  0.00  0.00    +0.000 A 
ATOM      4  S   UNL     1      38.510  -2.795  17.061  0.00  0.00    +0.000 S 
ATOM      5  C   UNL     1      38.293  -1.227  16.448  0.00  0.00    +0.000 A 
ENDROOT
BRANCH   2   6
ATOM      6  C   UNL     1      40.887  -2.465  14.025  0.00  0.00    +0.000 A 
ATOM      7  C   UNL     1      42.209  -2.179  14.171  0.00  0.00    +0.000 A 
ATOM      8  C   UNL     1      43.120  -2.350  13.121  0.00  0.00    +0.000 A 
ATOM      9  C   UNL     1      42.668  -2.821  11.902  0.00  0.00    +0.000 A 
ATOM     10  C   UNL     1      41.330  -3.109  11.757  0.00  0.00    +0.000 A 
ATOM     11  C   UNL     1      40.458  -2.932  12.803  0.00  0.00    +0.000 A 
ENDBRANCH   2   6
BRANCH   5  12
ATOM     12  N   UNL     1      37.404  -0.173  16.908  0.00  0.00    +0.000 NA
ATOM     13  C   UNL     1      36.065  -0.205  16.422  0.00  0.00    +0.000 C 
ATOM     14  O   UNL     1      35.762  -1.137  15.638  0.00  0.00    +0.000 OA
BRANCH  13  15
ATOM     15  C   UNL     1      35.046   0.785  16.792  0.00  0.00    +0.000 C 
BRANCH  15  16
ATOM     16  N   UNL     1      35.274   1.998  16.036  0.00  0.00    +0.000 NA
BRANCH  16  17
ATOM     17  C   UNL     1      36.322   2.751  16.699  0.00  0.00    +0.000 C 
BRANCH  17  18
ATOM     18  C   UNL     1      37.146   3.429  15.623  0.00  0.00    +0.000 C 
BRANCH  18  19
ATOM     19  C   UNL     1      38.165   4.263  16.335  0.00  0.00    +0.000 A 
ATOM     20  C   UNL     1      39.195   4.869  15.628  0.00  0.00    +0.000 A 
ATOM     21  C   UNL     1      40.101   5.616  16.313  0.00  0.00    +0.000 A 
ATOM     22  C   UNL     1      39.997   5.766  17.674  0.00  0.00    +0.000 A 
ATOM     23  C   UNL     1      38.968   5.160  18.383  0.00  0.00    +0.000 A 
ATOM     24  C   UNL     1      38.063   4.413  17.694  0.00  0.00    +0.000 A 
ENDBRANCH  18  19
ENDBRANCH  17  18
ENDBRANCH  16  17
ENDBRANCH  15  16
ENDBRANCH  13  15
ENDBRANCH   5  12
BRANCH   1  25
ATOM     25  C   UNL     1      39.279   0.094  14.583  0.00  0.00    +0.000 C 
ATOM     26  O   UNL     1      39.735   1.149  15.092  0.00  0.00    +0.000 OA
BRANCH  25  27
ATOM     27  O   UNL     1      38.899   0.177  13.261  0.00  0.00    +0.000 OA
BRANCH  27  29
ATOM     28  C   UNL     1      36.710   0.678  12.560  0.00  0.00    +0.000 C 
ATOM     29  C   UNL     1      37.683  -0.444  12.853  0.00  0.00    +0.000 C 
ENDBRANCH  27  29
ENDBRANCH  25  27
ENDBRANCH   1  25
TORSDOF 10
ENDMDL
MODEL 10
REMARK VINA RESULT:      -6.6      1.486      2.501
REMARK  Name = 
REMARK  10 active torsions:
REMARK  status: ('A' for Active; 'I' for Inactive)
REMARK    1  A    between atoms: C_2  and  O_3
REMARK    2  A    between atoms: O_3  and  C_4
REMARK    3  A    between atoms: C_4  and  C_6
REMARK    4  A    between atoms: C_7  and  C_8
REMARK    5  A    between atoms: C_16  and  N_17
REMARK    6  A    between atoms: C_18  and  C_20
REMARK    7  A    between atoms: C_20  and  N_21
REMARK    8  A    between atoms: N_21  and  C_22
REMARK    9  A    between atoms: C_22  and  C_23
REMARK   10  A    between atoms: C_23  and  C_24
REMARK                            x       y       z     vdW  Elec       q    Type
REMARK                         _______ _______ _______ _____ _____    ______ ____
ROOT
ATOM      1  C   UNL     1      37.956   0.289  15.338  0.00  0.00    +0.000 A 
ATOM      2  C   UNL     1      38.322  -0.903  14.811  0.00  0.00    +0.000 A 
ATOM      3  C   UNL     1      39.429  -0.892  13.990  0.00  0.00    +0.000 A 
ATOM      4  S   UNL     1      39.917   0.720  13.974  0.00  0.00    +0.000 S 
ATOM      5  C   UNL     1      38.731   1.376  14.997  0.00  0.00    +0.000 A 
ENDROOT
BRANCH   2   6
ATOM      6  C   UNL     1      37.658  -2.226  15.066  0.00  0.00    +0.000 A 
ATOM      7  C   UNL     1      38.062  -3.060  16.063  0.00  0.00    +0.000 A 
ATOM      8  C   UNL     1      37.439  -4.294  16.289  0.00  0.00    +0.000 A 
ATOM      9  C   UNL     1      36.385  -4.678  15.481  0.00  0.00    +0.000 A 
ATOM     10  C   UNL     1      35.979  -3.834  14.473  0.00  0.00    +0.000 A 
ATOM     11  C   UNL     1      36.607  -2.629  14.273  0.00  0.00    +0.000 A 
ENDBRANCH   2   6
BRANCH   5  12
ATOM     12  N   UNL     1      38.547   2.751  15.430  0.00  0.00    +0.000 NA
ATOM     13  C   UNL     1      37.817   3.608  14.555  0.00  0.00    +0.000 C 
ATOM     14  O   UNL     1      37.394   3.108  13.484  0.00  0.00    +0.000 OA
BRANCH  13  15
ATOM     15  C   UNL     1      37.545   5.021  14.847  0.00  0.00    +0.000 C 
BRANCH  15  16
ATOM     16  N   UNL     1      38.662   5.818  14.386  0.00  0.00    +0.000 NA
BRANCH  16  17
ATOM     17  C   UNL     1      39.016   6.749  15.442  0.00  0.00    +0.000 C 
BRANCH  17  18
ATOM     18  C   UNL     1      38.550   6.149  16.754  0.00  0.00    +0.000 C 
BRANCH  18  19
ATOM     19  C   UNL     1      39.702   6.265  17.702  0.00  0.00    +0.000 A 
ATOM     20  C   UNL     1      40.996   6.415  17.222  0.00  0.00    +0.000 A 
ATOM     21  C   UNL     1      42.014   6.514  18.117  0.00  0.00    +0.000 A 
ATOM     22  C   UNL     1      41.765   6.466  19.466  0.00  0.00    +0.000 A 
ATOM     23  C   UNL     1      40.471   6.316  19.950  0.00  0.00    +0.000 A 
ATOM     24  C   UNL     1      39.455   6.217  19.050  0.00  0.00    +0.000 A 
ENDBRANCH  18  19
ENDBRANCH  17  18
ENDBRANCH  16  17
ENDBRANCH  15  16
ENDBRANCH  13  15
ENDBRANCH   5  12
BRANCH   1  25
ATOM     25  C   UNL     1      36.772   0.473  16.239  0.00  0.00    +0.000 C 
ATOM     26  O   UNL     1      36.836   0.184  17.462  0.00  0.00    +0.000 OA
BRANCH  25  27
ATOM     27  O   UNL     1      35.562   0.962  15.798  0.00  0.00    +0.000 OA
BRANCH  27  29
ATOM     28  C   UNL     1      34.411   2.990  15.490  0.00  0.00    +0.000 C 
ATOM     29  C   UNL     1      34.938   2.017  16.523  0.00  0.00    +0.000 C 
ENDBRANCH  27  29
ENDBRANCH  25  27
ENDBRANCH   1  25
TORSDOF 10
ENDMDL
