MODEL 1
REMARK VINA RESULT:      -7.4      0.000      0.000
REMARK  Name = 
REMARK  3 active torsions:
REMARK  status: ('A' for Active; 'I' for Inactive)
REMARK    1  A    between atoms: C_2  and  C_4
REMARK    2  A    between atoms: N_6  and  N_7
REMARK    3  A    between atoms: C_8  and  C_9
REMARK                            x       y       z     vdW  Elec       q    Type
REMARK                         _______ _______ _______ _____ _____    ______ ____
ROOT
ATOM      1  C   UNL     1      15.693  11.273  34.886  0.00  0.00    +0.000 A 
ATOM      2  C   UNL     1      14.831  12.227  34.442  0.00  0.00    +0.000 A 
ATOM      3  C   UNL     1      14.877  12.594  33.096  0.00  0.00    +0.000 A 
ATOM      4  C   UNL     1      14.036  13.553  32.571  0.00  0.00    +0.000 A 
ATOM      5  C   UNL     1      14.078  13.920  31.235  0.00  0.00    +0.000 A 
ATOM      6  C   UNL     1      14.998  13.306  30.379  0.00  0.00    +0.000 A 
ATOM      7  C   UNL     1      15.832  12.359  30.888  0.00  0.00    +0.000 A 
ATOM      8  C   UNL     1      15.772  12.008  32.224  0.00  0.00    +0.000 A 
ATOM      9  N   UNL     1      16.596  11.081  32.699  0.00  0.00    +0.000 NA
ATOM     10  C   UNL     1      16.594  10.690  33.991  0.00  0.00    +0.000 A 
ATOM     11 CL   UNL     1      17.725   9.456  34.512  0.00  0.00    +0.000 Cl
ENDROOT
BRANCH   1  13
ATOM     12  N   UNL     1      16.647  11.183  37.107  0.00  0.00    +0.000 NA
ATOM     13  C   UNL     1      15.762  10.789  36.260  0.00  0.00    +0.000 C 
BRANCH  12  16
ATOM     14  C   UNL     1      17.585   9.681  38.846  0.00  0.00    +0.000 C 
ATOM     15  O   UNL     1      18.354   9.181  38.002  0.00  0.00    +0.000 OA
ATOM     16  N   UNL     1      16.698  10.708  38.426  0.00  0.00    +0.000 NA
BRANCH  14  18
ATOM     17  C   UNL     1      17.915   7.819  40.467  0.00  0.00    +0.000 C 
ATOM     18  C   UNL     1      17.532   9.275  40.271  0.00  0.00    +0.000 C 
ATOM     19  C   UNL     1      16.200   9.510  40.900  0.00  0.00    +0.000 C 
ENDBRANCH  14  18
ENDBRANCH  12  16
ENDBRANCH   1  13
TORSDOF 3
ENDMDL
MODEL 2
REMARK VINA RESULT:      -7.2      1.770      2.303
REMARK  Name = 
REMARK  3 active torsions:
REMARK  status: ('A' for Active; 'I' for Inactive)
REMARK    1  A    between atoms: C_2  and  C_4
REMARK    2  A    between atoms: N_6  and  N_7
REMARK    3  A    between atoms: C_8  and  C_9
REMARK                            x       y       z     vdW  Elec       q    Type
REMARK                         _______ _______ _______ _____ _____    ______ ____
ROOT
ATOM      1  C   UNL     1      16.016  11.145  34.636  0.00  0.00    +0.000 A 
ATOM      2  C   UNL     1      16.135  11.135  33.281  0.00  0.00    +0.000 A 
ATOM      3  C   UNL     1      15.392  12.055  32.539  0.00  0.00    +0.000 A 
ATOM      4  C   UNL     1      15.458  12.107  31.162  0.00  0.00    +0.000 A 
ATOM      5  C   UNL     1      14.723  13.019  30.422  0.00  0.00    +0.000 A 
ATOM      6  C   UNL     1      13.882  13.922  31.079  0.00  0.00    +0.000 A 
ATOM      7  C   UNL     1      13.810  13.879  32.436  0.00  0.00    +0.000 A 
ATOM      8  C   UNL     1      14.553  12.961  33.155  0.00  0.00    +0.000 A 
ATOM      9  N   UNL     1      14.467  12.936  34.480  0.00  0.00    +0.000 NA
ATOM     10  C   UNL     1      15.162  12.068  35.245  0.00  0.00    +0.000 A 
ATOM     11 CL   UNL     1      14.974  12.123  36.987  0.00  0.00    +0.000 Cl
ENDROOT
BRANCH   1  13
ATOM     12  N   UNL     1      17.834  10.554  36.118  0.00  0.00    +0.000 NA
ATOM     13  C   UNL     1      16.727  10.247  35.540  0.00  0.00    +0.000 C 
BRANCH  12  16
ATOM     14  C   UNL     1      18.126   9.490  38.341  0.00  0.00    +0.000 C 
ATOM     15  O   UNL     1      17.153  10.134  38.780  0.00  0.00    +0.000 OA
ATOM     16  N   UNL     1      18.504   9.677  36.985  0.00  0.00    +0.000 NA
BRANCH  14  18
ATOM     17  C   UNL     1      18.128   7.952  40.300  0.00  0.00    +0.000 C 
ATOM     18  C   UNL     1      18.923   8.532  39.145  0.00  0.00    +0.000 C 
ATOM     19  C   UNL     1      20.186   9.120  39.679  0.00  0.00    +0.000 C 
ENDBRANCH  14  18
ENDBRANCH  12  16
ENDBRANCH   1  13
TORSDOF 3
ENDMDL
MODEL 3
REMARK VINA RESULT:      -6.5     20.724     23.767
REMARK  Name = 
REMARK  3 active torsions:
REMARK  status: ('A' for Active; 'I' for Inactive)
REMARK    1  A    between atoms: C_2  and  C_4
REMARK    2  A    between atoms: N_6  and  N_7
REMARK    3  A    between atoms: C_8  and  C_9
REMARK                            x       y       z     vdW  Elec       q    Type
REMARK                         _______ _______ _______ _____ _____    ______ ____
ROOT
ATOM      1  C   UNL     1      28.880  23.657  22.977  0.00  0.00    +0.000 A 
ATOM      2  C   UNL     1      29.929  23.401  23.804  0.00  0.00    +0.000 A 
ATOM      3  C   UNL     1      29.664  22.955  25.100  0.00  0.00    +0.000 A 
ATOM      4  C   UNL     1      30.674  22.673  25.997  0.00  0.00    +0.000 A 
ATOM      5  C   UNL     1      30.415  22.230  27.284  0.00  0.00    +0.000 A 
ATOM      6  C   UNL     1      29.091  22.057  27.701  0.00  0.00    +0.000 A 
ATOM      7  C   UNL     1      28.088  22.332  26.824  0.00  0.00    +0.000 A 
ATOM      8  C   UNL     1      28.370  22.773  25.544  0.00  0.00    +0.000 A 
ATOM      9  N   UNL     1      27.376  23.036  24.705  0.00  0.00    +0.000 NA
ATOM     10  C   UNL     1      27.576  23.469  23.442  0.00  0.00    +0.000 A 
ATOM     11 CL   UNL     1      26.190  23.785  22.416  0.00  0.00    +0.000 Cl
ENDROOT
BRANCH   1  13
ATOM     12  N   UNL     1      29.713  25.143  21.260  0.00  0.00    +0.000 NA
ATOM     13  C   UNL     1      29.001  24.128  21.601  0.00  0.00    +0.000 C 
BRANCH  12  16
ATOM     14  C   UNL     1      29.828  26.954  19.566  0.00  0.00    +0.000 C 
ATOM     15  O   UNL     1      29.737  27.808  20.470  0.00  0.00    +0.000 OA
ATOM     16  N   UNL     1      29.819  25.581  19.931  0.00  0.00    +0.000 NA
BRANCH  14  18
ATOM     17  C   UNL     1      31.379  27.562  17.715  0.00  0.00    +0.000 C 
ATOM     18  C   UNL     1      29.945  27.275  18.123  0.00  0.00    +0.000 C 
ATOM     19  C   UNL     1      29.088  28.422  17.704  0.00  0.00    +0.000 C 
ENDBRANCH  14  18
ENDBRANCH  12  16
ENDBRANCH   1  13
TORSDOF 3
ENDMDL
MODEL 4
REMARK VINA RESULT:      -6.3     21.698     23.162
REMARK  Name = 
REMARK  3 active torsions:
REMARK  status: ('A' for Active; 'I' for Inactive)
REMARK    1  A    between atoms: C_2  and  C_4
REMARK    2  A    between atoms: N_6  and  N_7
REMARK    3  A    between atoms: C_8  and  C_9
REMARK                            x       y       z     vdW  Elec       q    Type
REMARK                         _______ _______ _______ _____ _____    ______ ____
ROOT
ATOM      1  C   UNL     1      22.148  -7.388  24.467  0.00  0.00    +0.000 A 
ATOM      2  C   UNL     1      21.513  -6.239  24.822  0.00  0.00    +0.000 A 
ATOM      3  C   UNL     1      20.377  -6.326  25.629  0.00  0.00    +0.000 A 
ATOM      4  C   UNL     1      19.678  -5.206  26.031  0.00  0.00    +0.000 A 
ATOM      5  C   UNL     1      18.551  -5.289  26.832  0.00  0.00    +0.000 A 
ATOM      6  C   UNL     1      18.094  -6.541  27.255  0.00  0.00    +0.000 A 
ATOM      7  C   UNL     1      18.776  -7.651  26.864  0.00  0.00    +0.000 A 
ATOM      8  C   UNL     1      19.899  -7.545  26.064  0.00  0.00    +0.000 A 
ATOM      9  N   UNL     1      20.549  -8.642  25.694  0.00  0.00    +0.000 NA
ATOM     10  C   UNL     1      21.652  -8.615  24.915  0.00  0.00    +0.000 A 
ATOM     11 CL   UNL     1      22.434 -10.124  24.487  0.00  0.00    +0.000 Cl
ENDROOT
BRANCH   1  13
ATOM     12  N   UNL     1      24.523  -7.180  24.061  0.00  0.00    +0.000 NA
ATOM     13  C   UNL     1      23.342  -7.454  23.631  0.00  0.00    +0.000 C 
BRANCH  12  16
ATOM     14  C   UNL     1      26.543  -8.363  23.234  0.00  0.00    +0.000 C 
ATOM     15  O   UNL     1      26.292  -9.323  23.988  0.00  0.00    +0.000 OA
ATOM     16  N   UNL     1      25.661  -7.249  23.243  0.00  0.00    +0.000 NA
BRANCH  14  18
ATOM     17  C   UNL     1      28.934  -8.976  22.909  0.00  0.00    +0.000 C 
ATOM     18  C   UNL     1      27.708  -8.302  22.320  0.00  0.00    +0.000 C 
ATOM     19  C   UNL     1      28.071  -6.911  21.920  0.00  0.00    +0.000 C 
ENDBRANCH  14  18
ENDBRANCH  12  16
ENDBRANCH   1  13
TORSDOF 3
ENDMDL
MODEL 5
REMARK VINA RESULT:      -6.3     23.015     25.517
REMARK  Name = 
REMARK  3 active torsions:
REMARK  status: ('A' for Active; 'I' for Inactive)
REMARK    1  A    between atoms: C_2  and  C_4
REMARK    2  A    between atoms: N_6  and  N_7
REMARK    3  A    between atoms: C_8  and  C_9
REMARK                            x       y       z     vdW  Elec       q    Type
REMARK                         _______ _______ _______ _____ _____    ______ ____
ROOT
ATOM      1  C   UNL     1      29.329  27.064  19.544  0.00  0.00    +0.000 A 
ATOM      2  C   UNL     1      30.055  26.860  18.412  0.00  0.00    +0.000 A 
ATOM      3  C   UNL     1      29.800  27.666  17.301  0.00  0.00    +0.000 A 
ATOM      4  C   UNL     1      30.494  27.521  16.118  0.00  0.00    +0.000 A 
ATOM      5  C   UNL     1      30.244  28.319  15.013  0.00  0.00    +0.000 A 
ATOM      6  C   UNL     1      29.258  29.308  15.085  0.00  0.00    +0.000 A 
ATOM      7  C   UNL     1      28.568  29.459  16.248  0.00  0.00    +0.000 A 
ATOM      8  C   UNL     1      28.834  28.652  17.338  0.00  0.00    +0.000 A 
ATOM      9  N   UNL     1      28.148  28.816  18.463  0.00  0.00    +0.000 NA
ATOM     10  C   UNL     1      28.354  28.065  19.565  0.00  0.00    +0.000 A 
ATOM     11 CL   UNL     1      27.391  28.368  20.999  0.00  0.00    +0.000 Cl
ENDROOT
BRANCH   1  13
ATOM     12  N   UNL     1      29.588  25.020  20.812  0.00  0.00    +0.000 NA
ATOM     13  C   UNL     1      29.483  26.302  20.779  0.00  0.00    +0.000 C 
BRANCH  12  16
ATOM     14  C   UNL     1      28.704  23.503  22.567  0.00  0.00    +0.000 C 
ATOM     15  O   UNL     1      27.616  23.434  21.962  0.00  0.00    +0.000 OA
ATOM     16  N   UNL     1      29.737  24.304  22.010  0.00  0.00    +0.000 NA
BRANCH  14  18
ATOM     17  C   UNL     1      28.032  23.187  24.944  0.00  0.00    +0.000 C 
ATOM     18  C   UNL     1      28.998  22.800  23.839  0.00  0.00    +0.000 C 
ATOM     19  C   UNL     1      30.392  23.018  24.323  0.00  0.00    +0.000 C 
ENDBRANCH  14  18
ENDBRANCH  12  16
ENDBRANCH   1  13
TORSDOF 3
ENDMDL
MODEL 6
REMARK VINA RESULT:      -6.2     18.827     20.035
REMARK  Name = 
REMARK  3 active torsions:
REMARK  status: ('A' for Active; 'I' for Inactive)
REMARK    1  A    between atoms: C_2  and  C_4
REMARK    2  A    between atoms: N_6  and  N_7
REMARK    3  A    between atoms: C_8  and  C_9
REMARK                            x       y       z     vdW  Elec       q    Type
REMARK                         _______ _______ _______ _____ _____    ______ ____
ROOT
ATOM      1  C   UNL     1      29.990  22.991  25.629  0.00  0.00    +0.000 A 
ATOM      2  C   UNL     1      28.635  22.906  25.550  0.00  0.00    +0.000 A 
ATOM      3  C   UNL     1      28.016  23.214  24.338  0.00  0.00    +0.000 A 
ATOM      4  C   UNL     1      26.647  23.152  24.179  0.00  0.00    +0.000 A 
ATOM      5  C   UNL     1      26.029  23.456  22.977  0.00  0.00    +0.000 A 
ATOM      6  C   UNL     1      26.805  23.840  21.879  0.00  0.00    +0.000 A 
ATOM      7  C   UNL     1      28.156  23.904  22.025  0.00  0.00    +0.000 A 
ATOM      8  C   UNL     1      28.752  23.596  23.234  0.00  0.00    +0.000 A 
ATOM      9  N   UNL     1      30.072  23.666  23.355  0.00  0.00    +0.000 NA
ATOM     10  C   UNL     1      30.721  23.380  24.503  0.00  0.00    +0.000 A 
ATOM     11 CL   UNL     1      32.469  23.505  24.552  0.00  0.00    +0.000 Cl
ENDROOT
BRANCH   1  13
ATOM     12  N   UNL     1      30.271  22.662  28.008  0.00  0.00    +0.000 NA
ATOM     13  C   UNL     1      30.774  22.702  26.825  0.00  0.00    +0.000 C 
BRANCH  12  16
ATOM     14  C   UNL     1      30.498  22.360  30.462  0.00  0.00    +0.000 C 
ATOM     15  O   UNL     1      29.284  22.601  30.606  0.00  0.00    +0.000 OA
ATOM     16  N   UNL     1      31.039  22.381  29.148  0.00  0.00    +0.000 NA
BRANCH  14  18
ATOM     17  C   UNL     1      32.567  21.150  31.137  0.00  0.00    +0.000 C 
ATOM     18  C   UNL     1      31.425  22.049  31.576  0.00  0.00    +0.000 C 
ATOM     19  C   UNL     1      30.747  21.424  32.749  0.00  0.00    +0.000 C 
ENDBRANCH  14  18
ENDBRANCH  12  16
ENDBRANCH   1  13
TORSDOF 3
ENDMDL
MODEL 7
REMARK VINA RESULT:      -6.1     19.636     22.042
REMARK  Name = 
REMARK  3 active torsions:
REMARK  status: ('A' for Active; 'I' for Inactive)
REMARK    1  A    between atoms: C_2  and  C_4
REMARK    2  A    between atoms: N_6  and  N_7
REMARK    3  A    between atoms: C_8  and  C_9
REMARK                            x       y       z     vdW  Elec       q    Type
REMARK                         _______ _______ _______ _____ _____    ______ ____
ROOT
ATOM      1  C   UNL     1      33.678  -1.437  34.893  0.00  0.00    +0.000 A 
ATOM      2  C   UNL     1      33.677  -2.025  33.666  0.00  0.00    +0.000 A 
ATOM      3  C   UNL     1      33.578  -3.415  33.592  0.00  0.00    +0.000 A 
ATOM      4  C   UNL     1      33.571  -4.085  32.386  0.00  0.00    +0.000 A 
ATOM      5  C   UNL     1      33.472  -5.465  32.308  0.00  0.00    +0.000 A 
ATOM      6  C   UNL     1      33.376  -6.217  33.483  0.00  0.00    +0.000 A 
ATOM      7  C   UNL     1      33.382  -5.566  34.678  0.00  0.00    +0.000 A 
ATOM      8  C   UNL     1      33.481  -4.188  34.732  0.00  0.00    +0.000 A 
ATOM      9  N   UNL     1      33.486  -3.574  35.909  0.00  0.00    +0.000 NA
ATOM     10  C   UNL     1      33.580  -2.233  36.037  0.00  0.00    +0.000 A 
ATOM     11 CL   UNL     1      33.576  -1.525  37.641  0.00  0.00    +0.000 Cl
ENDROOT
BRANCH   1  13
ATOM     12  N   UNL     1      33.445   0.884  34.252  0.00  0.00    +0.000 NA
ATOM     13  C   UNL     1      33.776  -0.000  35.126  0.00  0.00    +0.000 C 
BRANCH  12  16
ATOM     14  C   UNL     1      33.744   3.217  33.462  0.00  0.00    +0.000 C 
ATOM     15  O   UNL     1      33.833   2.811  32.287  0.00  0.00    +0.000 OA
ATOM     16  N   UNL     1      33.544   2.262  34.494  0.00  0.00    +0.000 NA
BRANCH  14  18
ATOM     17  C   UNL     1      34.620   4.832  35.143  0.00  0.00    +0.000 C 
ATOM     18  C   UNL     1      33.831   4.643  33.860  0.00  0.00    +0.000 C 
ATOM     19  C   UNL     1      32.497   5.293  34.018  0.00  0.00    +0.000 C 
ENDBRANCH  14  18
ENDBRANCH  12  16
ENDBRANCH   1  13
TORSDOF 3
ENDMDL
MODEL 8
REMARK VINA RESULT:      -6.1     19.728     21.328
REMARK  Name = 
REMARK  3 active torsions:
REMARK  status: ('A' for Active; 'I' for Inactive)
REMARK    1  A    between atoms: C_2  and  C_4
REMARK    2  A    between atoms: N_6  and  N_7
REMARK    3  A    between atoms: C_8  and  C_9
REMARK                            x       y       z     vdW  Elec       q    Type
REMARK                         _______ _______ _______ _____ _____    ______ ____
ROOT
ATOM      1  C   UNL     1      33.392   0.674  34.751  0.00  0.00    +0.000 A 
ATOM      2  C   UNL     1      33.416   1.826  34.028  0.00  0.00    +0.000 A 
ATOM      3  C   UNL     1      33.756   3.014  34.677  0.00  0.00    +0.000 A 
ATOM      4  C   UNL     1      33.803   4.222  34.012  0.00  0.00    +0.000 A 
ATOM      5  C   UNL     1      34.140   5.404  34.653  0.00  0.00    +0.000 A 
ATOM      6  C   UNL     1      34.445   5.387  36.017  0.00  0.00    +0.000 A 
ATOM      7  C   UNL     1      34.402   4.200  36.682  0.00  0.00    +0.000 A 
ATOM      8  C   UNL     1      34.063   3.033  36.022  0.00  0.00    +0.000 A 
ATOM      9  N   UNL     1      34.027   1.886  36.690  0.00  0.00    +0.000 NA
ATOM     10  C   UNL     1      33.704   0.710  36.112  0.00  0.00    +0.000 A 
ATOM     11 CL   UNL     1      33.688  -0.746  37.088  0.00  0.00    +0.000 Cl
ENDROOT
BRANCH   1  13
ATOM     12  N   UNL     1      33.914  -1.414  33.648  0.00  0.00    +0.000 NA
ATOM     13  C   UNL     1      33.056  -0.639  34.212  0.00  0.00    +0.000 C 
BRANCH  12  16
ATOM     14  C   UNL     1      33.824  -3.888  33.831  0.00  0.00    +0.000 C 
ATOM     15  O   UNL     1      34.371  -3.828  34.949  0.00  0.00    +0.000 OA
ATOM     16  N   UNL     1      33.574  -2.675  33.135  0.00  0.00    +0.000 NA
BRANCH  14  18
ATOM     17  C   UNL     1      33.488  -5.056  31.657  0.00  0.00    +0.000 C 
ATOM     18  C   UNL     1      33.413  -5.150  33.170  0.00  0.00    +0.000 C 
ATOM     19  C   UNL     1      32.042  -5.596  33.555  0.00  0.00    +0.000 C 
ENDBRANCH  14  18
ENDBRANCH  12  16
ENDBRANCH   1  13
TORSDOF 3
ENDMDL
MODEL 9
REMARK VINA RESULT:      -6.0      3.699      5.414
REMARK  Name = 
REMARK  3 active torsions:
REMARK  status: ('A' for Active; 'I' for Inactive)
REMARK    1  A    between atoms: C_2  and  C_4
REMARK    2  A    between atoms: N_6  and  N_7
REMARK    3  A    between atoms: C_8  and  C_9
REMARK                            x       y       z     vdW  Elec       q    Type
REMARK                         _______ _______ _______ _____ _____    ______ ____
ROOT
ATOM      1  C   UNL     1      16.963  10.826  36.639  0.00  0.00    +0.000 A 
ATOM      2  C   UNL     1      16.260  10.605  37.783  0.00  0.00    +0.000 A 
ATOM      3  C   UNL     1      14.896  10.905  37.795  0.00  0.00    +0.000 A 
ATOM      4  C   UNL     1      14.115  10.709  38.916  0.00  0.00    +0.000 A 
ATOM      5  C   UNL     1      12.762  11.004  38.932  0.00  0.00    +0.000 A 
ATOM      6  C   UNL     1      12.153  11.519  37.783  0.00  0.00    +0.000 A 
ATOM      7  C   UNL     1      12.914  11.715  36.673  0.00  0.00    +0.000 A 
ATOM      8  C   UNL     1      14.264  11.413  36.679  0.00  0.00    +0.000 A 
ATOM      9  N   UNL     1      14.988  11.613  35.584  0.00  0.00    +0.000 NA
ATOM     10  C   UNL     1      16.309  11.342  35.518  0.00  0.00    +0.000 A 
ATOM     11 CL   UNL     1      17.170  11.643  34.021  0.00  0.00    +0.000 Cl
ENDROOT
BRANCH   1  13
ATOM     12  N   UNL     1      19.206  10.455  37.464  0.00  0.00    +0.000 NA
ATOM     13  C   UNL     1      18.389  10.563  36.477  0.00  0.00    +0.000 C 
BRANCH  12  16
ATOM     14  C   UNL     1      21.587  11.138  37.628  0.00  0.00    +0.000 C 
ATOM     15  O   UNL     1      21.241  12.237  38.102  0.00  0.00    +0.000 OA
ATOM     16  N   UNL     1      20.575  10.200  37.290  0.00  0.00    +0.000 NA
BRANCH  14  18
ATOM     17  C   UNL     1      23.971  11.855  37.710  0.00  0.00    +0.000 C 
ATOM     18  C   UNL     1      22.995  10.737  37.390  0.00  0.00    +0.000 C 
ATOM     19  C   UNL     1      23.245  10.266  35.997  0.00  0.00    +0.000 C 
ENDBRANCH  14  18
ENDBRANCH  12  16
ENDBRANCH   1  13
TORSDOF 3
ENDMDL
MODEL 10
REMARK VINA RESULT:      -6.0      2.980      4.630
REMARK  Name = 
REMARK  3 active torsions:
REMARK  status: ('A' for Active; 'I' for Inactive)
REMARK    1  A    between atoms: C_2  and  C_4
REMARK    2  A    between atoms: N_6  and  N_7
REMARK    3  A    between atoms: C_8  and  C_9
REMARK                            x       y       z     vdW  Elec       q    Type
REMARK                         _______ _______ _______ _____ _____    ______ ____
ROOT
ATOM      1  C   UNL     1      17.598   9.898  38.351  0.00  0.00    +0.000 A 
ATOM      2  C   UNL     1      16.325  10.315  38.584  0.00  0.00    +0.000 A 
ATOM      3  C   UNL     1      15.688  11.089  37.612  0.00  0.00    +0.000 A 
ATOM      4  C   UNL     1      14.398  11.550  37.774  0.00  0.00    +0.000 A 
ATOM      5  C   UNL     1      13.763  12.318  36.811  0.00  0.00    +0.000 A 
ATOM      6  C   UNL     1      14.440  12.644  35.631  0.00  0.00    +0.000 A 
ATOM      7  C   UNL     1      15.712  12.194  35.462  0.00  0.00    +0.000 A 
ATOM      8  C   UNL     1      16.326  11.429  36.436  0.00  0.00    +0.000 A 
ATOM      9  N   UNL     1      17.569  11.000  36.250  0.00  0.00    +0.000 NA
ATOM     10  C   UNL     1      18.231  10.250  37.156  0.00  0.00    +0.000 A 
ATOM     11 CL   UNL     1      19.871   9.737  36.809  0.00  0.00    +0.000 Cl
ENDROOT
BRANCH   1  13
ATOM     12  N   UNL     1      18.382   7.800  39.266  0.00  0.00    +0.000 NA
ATOM     13  C   UNL     1      18.388   9.086  39.272  0.00  0.00    +0.000 C 
BRANCH  12  16
ATOM     14  C   UNL     1      18.587   6.056  41.021  0.00  0.00    +0.000 C 
ATOM     15  O   UNL     1      17.356   5.869  40.981  0.00  0.00    +0.000 OA
ATOM     16  N   UNL     1      19.149   7.035  40.158  0.00  0.00    +0.000 NA
BRANCH  14  18
ATOM     17  C   UNL     1      19.844   3.937  41.384  0.00  0.00    +0.000 C 
ATOM     18  C   UNL     1      19.516   5.322  41.913  0.00  0.00    +0.000 C 
ATOM     19  C   UNL     1      19.010   5.193  43.311  0.00  0.00    +0.000 C 
ENDBRANCH  14  18
ENDBRANCH  12  16
ENDBRANCH   1  13
TORSDOF 3
ENDMDL
