REMARK  Name = 
REMARK  3 active torsions:
REMARK  status: ('A' for Active; 'I' for Inactive)
REMARK    1  A    between atoms: C_2  and  N_3
REMARK    2  A    between atoms: N_3  and  N_4
REMARK    3  A    between atoms: C_5  and  C_7
REMARK                            x       y       z     vdW  Elec       q    Type
REMARK                         _______ _______ _______ _____ _____    ______ ____
ROOT
ATOM      1  C   UNL     1      -0.546   0.591   0.056  0.00  0.00    +0.000 A 
ATOM      2  C   UNL     1      -1.378  -0.366   0.626  0.00  0.00    +0.000 A 
ATOM      3  C   UNL     1      -2.709  -0.445   0.283  0.00  0.00    +0.000 A 
ATOM      4  C   UNL     1      -3.553  -1.402   0.831  0.00  0.00    +0.000 A 
ATOM      5  C   UNL     1      -4.885  -1.504   0.490  0.00  0.00    +0.000 A 
ATOM      6  C   UNL     1      -5.349  -0.577  -0.451  0.00  0.00    +0.000 A 
ATOM      7  C   UNL     1      -4.511   0.378  -0.999  0.00  0.00    +0.000 A 
ATOM      8  C   UNL     1      -3.185   0.457  -0.641  0.00  0.00    +0.000 A 
ATOM      9  C   UNL     1      -2.345   1.421  -1.212  0.00  0.00    +0.000 A 
ATOM     10  C   UNL     1      -1.013   1.499  -0.868  0.00  0.00    +0.000 A 
ATOM     11  O   UNL     1      -0.201   2.462  -1.444  0.00  0.00    +0.000 OA
ENDROOT
BRANCH   1  13
ATOM     12  N   UNL     1       1.348  -0.350   1.382  0.00  0.00    +0.000 NA
ATOM     13  C   UNL     1       0.870   0.606   0.411  0.00  0.00    +0.000 C 
ATOM     14  O   UNL     1       1.676   1.422  -0.108  0.00  0.00    +0.000 OA
BRANCH  12  15
ATOM     15  N   UNL     1       2.751  -0.316   1.681  0.00  0.00    +0.000 NA
BRANCH  15  17
ATOM     16  C   UNL     1       3.243  -2.429   0.499  0.00  0.00    +0.000 C 
ATOM     17  C   UNL     1       3.621  -1.033   0.793  0.00  0.00    +0.000 C 
ATOM     18  C   UNL     1       4.679  -0.506   0.259  0.00  0.00    +0.000 C 
ATOM     19  C   UNL     1       5.883  -0.575  -0.619  0.00  0.00    +0.000 C 
ATOM     20  C   UNL     1       5.602   0.666   0.084  0.00  0.00    +0.000 C 
ENDBRANCH  15  17
ENDBRANCH  12  15
ENDBRANCH   1  13
TORSDOF 3
