REMARK  Name = 
REMARK  4 active torsions:
REMARK  status: ('A' for Active; 'I' for Inactive)
REMARK    1  A    between atoms: C_2  and  C_3
REMARK    2  A    between atoms: C_3  and  C_4
REMARK    3  A    between atoms: C_4  and  O_5
REMARK    4  A    between atoms: O_5  and  C_6
REMARK                            x       y       z     vdW  Elec       q    Type
REMARK                         _______ _______ _______ _____ _____    ______ ____
ROOT
ATOM      1  C   UNL     1       2.158   0.164  -0.026  0.00  0.00    +0.000 A 
ATOM      2  C   UNL     1       1.762   0.462  -1.309  0.00  0.00    +0.000 A 
ATOM      3  C   UNL     1       0.454   0.589  -1.711  0.00  0.00    +0.000 A 
ATOM      4  C   UNL     1      -0.553   0.402  -0.747  0.00  0.00    +0.000 A 
ATOM      5  C   UNL     1      -0.181   0.104   0.539  0.00  0.00    +0.000 A 
ATOM      6  C   UNL     1       1.165  -0.017   0.909  0.00  0.00    +0.000 A 
ATOM      7  C   UNL     1      -1.398  -0.039   1.327  0.00  0.00    +0.000 C 
ATOM      8  O   UNL     1      -1.491  -0.314   2.570  0.00  0.00    +0.000 OA
ATOM      9  C   UNL     1      -2.521   0.193   0.434  0.00  0.00    +0.000 A 
ATOM     10  C   UNL     1      -3.911   0.185   0.644  0.00  0.00    +0.000 A 
ATOM     11  C   UNL     1      -4.772   0.442  -0.401  0.00  0.00    +0.000 A 
ATOM     12  O   UNL     1      -6.165   0.440  -0.217  0.00  0.00    +0.000 OA
ATOM     13  C   UNL     1      -4.220   0.703  -1.637  0.00  0.00    +0.000 A 
ATOM     14  C   UNL     1      -2.859   0.713  -1.852  0.00  0.00    +0.000 A 
ATOM     15  C   UNL     1      -1.992   0.454  -0.801  0.00  0.00    +0.000 A 
ENDROOT
BRANCH   1  16
ATOM     16  O   UNL     1       3.521   0.057   0.285  0.00  0.00    +0.000 OA
BRANCH  16  17
ATOM     17  C   UNL     1       4.004  -0.240   1.553  0.00  0.00    +0.000 C 
BRANCH  17  18
ATOM     18  C   UNL     1       5.514  -0.269   1.493  0.00  0.00    +0.000 C 
BRANCH  18  20
ATOM     19  C   UNL     1       5.506  -2.704   0.900  0.00  0.00    +0.000 C 
ATOM     20  C   UNL     1       5.980  -1.326   0.510  0.00  0.00    +0.000 C 
ENDBRANCH  18  20
ENDBRANCH  17  18
ENDBRANCH  16  17
ENDBRANCH   1  16
TORSDOF 4
