REMARK  Name = 
REMARK  5 active torsions:
REMARK  status: ('A' for Active; 'I' for Inactive)
REMARK    1  A    between atoms: C_2  and  O_3
REMARK    2  A    between atoms: O_3  and  C_4
REMARK    3  A    between atoms: C_7  and  C_8
REMARK    4  A    between atoms: C_8  and  C_9
REMARK    5  A    between atoms: C_12  and  S_13
REMARK                            x       y       z     vdW  Elec       q    Type
REMARK                         _______ _______ _______ _____ _____    ______ ____
ROOT
ATOM      1  C   UNL     1      -0.233   1.329  -1.557  0.00  0.00    +0.000 C 
ENDROOT
BRANCH   1   2
ATOM      2  C   UNL     1      -1.428   0.808  -0.847  0.00  0.00    +0.000 A 
ATOM      3  C   UNL     1      -2.336  -0.070  -1.411  0.00  0.00    +0.000 A 
ATOM      4  N   UNL     1      -3.408  -0.514  -0.723  0.00  0.00    +0.000 NA
ATOM      5  C   UNL     1      -3.594  -0.089   0.541  0.00  0.00    +0.000 A 
ATOM      6  N   UNL     1      -2.720   0.763   1.100  0.00  0.00    +0.000 NA
ATOM      7  C   UNL     1      -1.640   1.230   0.451  0.00  0.00    +0.000 A 
ATOM      8  N   UNL     1      -0.722   2.143   1.074  0.00  0.00    +0.000 NA
BRANCH   5   9
ATOM      9  S   UNL     1      -5.020  -0.663   1.487  0.00  0.00    +0.000 S 
ATOM     10  C   UNL     1      -6.004  -1.792   0.460  0.00  0.00    +0.000 C 
ENDBRANCH   5   9
ENDBRANCH   1   2
BRANCH   1  14
ATOM     11  C   UNL     1       3.330  -0.659  -0.308  0.00  0.00    +0.000 A 
ATOM     12  C   UNL     1       2.914   0.450   0.374  0.00  0.00    +0.000 A 
ATOM     13  C   UNL     1       1.761   1.094  -0.029  0.00  0.00    +0.000 A 
ATOM     14  C   UNL     1       1.008   0.661  -1.097  0.00  0.00    +0.000 A 
ATOM     15  C   UNL     1       1.442  -0.458  -1.774  0.00  0.00    +0.000 A 
ATOM     16  C   UNL     1       2.610  -1.123  -1.379  0.00  0.00    +0.000 A 
BRANCH  11  17
ATOM     17  O   UNL     1       4.491  -1.333   0.072  0.00  0.00    +0.000 OA
BRANCH  17  19
ATOM     18  C   UNL     1       4.299  -0.919   2.379  0.00  0.00    +0.000 C 
ATOM     19  C   UNL     1       5.250  -0.861   1.186  0.00  0.00    +0.000 C 
ENDBRANCH  17  19
ENDBRANCH  11  17
ENDBRANCH   1  14
TORSDOF 5
