REMARK  Name = 
REMARK  3 active torsions:
REMARK  status: ('A' for Active; 'I' for Inactive)
REMARK    1  A    between atoms: C_2  and  C_14
REMARK    2  A    between atoms: N_3  and  C_4
REMARK    3  A    between atoms: C_17  and  N_18
REMARK                            x       y       z     vdW  Elec       q    Type
REMARK                         _______ _______ _______ _____ _____    ______ ____
ROOT
ATOM      1  O   UNL     1      -0.325  -2.011   0.056  0.00  0.00    +0.000 OA
ATOM      2  C   UNL     1       0.126  -0.874   0.327  0.00  0.00    +0.000 C 
ATOM      3  N   UNL     1      -0.805   0.119   0.715  0.00  0.00    +0.000 NA
ENDROOT
BRANCH   3   4
ATOM      4  C   UNL     1      -2.220  -0.063   0.829  0.00  0.00    +0.000 C 
ATOM      5  C   UNL     1      -2.889   1.294   0.679  0.00  0.00    +0.000 C 
ATOM      6  C   UNL     1      -4.388   1.165   0.970  0.00  0.00    +0.000 C 
ATOM      7  C   UNL     1      -4.973   0.095   0.073  0.00  0.00    +0.000 C 
ATOM      8  C   UNL     1      -4.798   0.593  -1.361  0.00  0.00    +0.000 C 
ATOM      9  C   UNL     1      -3.325   0.752  -1.673  0.00  0.00    +0.000 C 
ATOM     10  C   UNL     1      -2.657   1.753  -0.755  0.00  0.00    +0.000 C 
ATOM     11  C   UNL     1      -2.688  -0.630  -1.575  0.00  0.00    +0.000 C 
ATOM     12  C   UNL     1      -2.808  -1.065  -0.125  0.00  0.00    +0.000 C 
ATOM     13  C   UNL     1      -4.265  -1.229   0.276  0.00  0.00    +0.000 C 
ENDBRANCH   3   4
BRANCH   2  14
ATOM     14  C   UNL     1       1.542  -0.550   0.257  0.00  0.00    +0.000 A 
ATOM     15  C   UNL     1       2.133  -0.010  -0.863  0.00  0.00    +0.000 A 
ATOM     16  C   UNL     1       3.478   0.298  -0.916  0.00  0.00    +0.000 A 
ATOM     17  C   UNL     1       4.313   0.081   0.157  0.00  0.00    +0.000 A 
ATOM     18  C   UNL     1       3.731  -0.460   1.283  0.00  0.00    +0.000 A 
ATOM     19  C   UNL     1       2.382  -0.770   1.342  0.00  0.00    +0.000 A 
BRANCH  17  20
ATOM     20  N   UNL     1       5.712   0.399   0.109  0.00  0.00    +0.000 N 
ATOM     21  O   UNL     1       6.420   0.183   1.110  0.00  0.00    +0.000 OA
ATOM     22  O   UNL     1       6.305   0.928  -0.990  0.00  0.00    +0.000 OA
ENDBRANCH  17  20
ENDBRANCH   2  14
TORSDOF 3
