REMARK  Name = 
REMARK  6 active torsions:
REMARK  status: ('A' for Active; 'I' for Inactive)
REMARK    1  A    between atoms: O_2  and  C_3
REMARK    2  A    between atoms: N_5  and  C_6
REMARK    3  A    between atoms: C_6  and  C_7
REMARK    4  A    between atoms: C_6  and  C_17
REMARK    5  A    between atoms: C_7  and  C_8
REMARK    6  A    between atoms: C_17  and  O_19
REMARK                            x       y       z     vdW  Elec       q    Type
REMARK                         _______ _______ _______ _____ _____    ______ ____
ROOT
ATOM      1  C   UNL     1      -0.818   0.004  -0.017  0.00  0.00    +0.000 C 
ENDROOT
BRANCH   1   4
ATOM      2  C   UNL     1      -2.415   1.907  -0.194  0.00  0.00    +0.000 C 
ATOM      3  O   UNL     1      -2.025   2.076  -1.253  0.00  0.00    +0.000 OA
ATOM      4  N   UNL     1      -1.922   0.820   0.725  0.00  0.00    +0.000 NA
BRANCH   2   6
ATOM      5  C   UNL     1      -3.982   3.781  -0.392  0.00  0.00    +0.000 C 
ATOM      6  O   UNL     1      -3.467   2.737   0.394  0.00  0.00    +0.000 OA
ENDBRANCH   2   6
ENDBRANCH   1   4
BRANCH   1   7
ATOM      7  C   UNL     1      -1.901  -1.173  -0.451  0.00  0.00    +0.000 C 
ATOM      8  O   UNL     1      -2.312  -1.075  -1.631  0.00  0.00    +0.000 OA
BRANCH   7   9
ATOM      9  O   UNL     1      -2.223  -2.099   0.511  0.00  0.00    +0.000 OA
ATOM     10  C   UNL     1      -3.171  -3.087   0.074  0.00  0.00    +0.000 C 
ENDBRANCH   7   9
ENDBRANCH   1   7
BRANCH   1  11
ATOM     11  C   UNL     1      -0.156  -0.803   1.210  0.00  0.00    +0.000 C 
BRANCH  11  12
ATOM     12  C   UNL     1       1.047  -1.275   0.366  0.00  0.00    +0.000 A 
ATOM     13  C   UNL     1       1.381  -2.270  -0.420  0.00  0.00    +0.000 A 
ATOM     14  N   UNL     1       2.594  -2.022  -1.016  0.00  0.00    +0.000 NA
ATOM     15  C   UNL     1       3.067  -0.810  -0.592  0.00  0.00    +0.000 A 
ATOM     16  C   UNL     1       4.201  -0.071  -0.854  0.00  0.00    +0.000 A 
ATOM     17  C   UNL     1       4.346   1.175  -0.214  0.00  0.00    +0.000 A 
ATOM     18  C   UNL     1       3.356   1.635   0.670  0.00  0.00    +0.000 A 
ATOM     19  C   UNL     1       2.262   0.881   0.900  0.00  0.00    +0.000 A 
ATOM     20  C   UNL     1       2.138  -0.332   0.261  0.00  0.00    +0.000 A 
ENDBRANCH  11  12
ENDBRANCH   1  11
TORSDOF 6
