REMARK  Name = 
REMARK  3 active torsions:
REMARK  status: ('A' for Active; 'I' for Inactive)
REMARK    1  A    between atoms: C_5  and  C_6
REMARK    2  A    between atoms: N_8  and  C_9
REMARK    3  A    between atoms: C_18  and  N_19
REMARK                            x       y       z     vdW  Elec       q    Type
REMARK                         _______ _______ _______ _____ _____    ______ ____
ROOT
ATOM      1  C   UNL     1       0.368  -0.135   0.236  0.00  0.00    +0.000 C 
ATOM      2  O   UNL     1       0.551  -0.763   1.322  0.00  0.00    +0.000 OA
ATOM      3  N   UNL     1       1.490   0.330  -0.465  0.00  0.00    +0.000 NA
ENDROOT
BRANCH   3   4
ATOM      4  C   UNL     1       2.833   0.150  -0.049  0.00  0.00    +0.000 A 
ATOM      5  C   UNL     1       3.480   1.062   0.755  0.00  0.00    +0.000 A 
ATOM      6  C   UNL     1       2.710   2.262   1.183  0.00  0.00    +0.000 C 
ATOM      7  C   UNL     1       4.802   0.872   1.156  0.00  0.00    +0.000 A 
ATOM      8  C   UNL     1       5.506  -0.242   0.755  0.00  0.00    +0.000 A 
ATOM      9  C   UNL     1       4.864  -1.156  -0.049  0.00  0.00    +0.000 A 
ATOM     10  C   UNL     1       3.548  -0.959  -0.443  0.00  0.00    +0.000 A 
ATOM     11  C   UNL     1       2.935  -1.992  -1.308  0.00  0.00    +0.000 C 
ENDBRANCH   3   4
BRANCH   1  16
ATOM     12  C   UNL     1      -4.899   0.789  -1.768  0.00  0.00    +0.000 C 
ATOM     13  C   UNL     1      -3.504   0.552  -1.252  0.00  0.00    +0.000 A 
ATOM     14  C   UNL     1      -2.416   1.023  -1.965  0.00  0.00    +0.000 A 
ATOM     15  C   UNL     1      -1.164   0.777  -1.445  0.00  0.00    +0.000 A 
ATOM     16  C   UNL     1      -0.982   0.092  -0.262  0.00  0.00    +0.000 A 
ATOM     17  C   UNL     1      -2.090  -0.361   0.421  0.00  0.00    +0.000 A 
ATOM     18  C   UNL     1      -3.372  -0.134  -0.070  0.00  0.00    +0.000 A 
BRANCH  18  19
ATOM     19  N   UNL     1      -4.511  -0.598   0.628  0.00  0.00    +0.000 N 
ATOM     20  O   UNL     1      -4.423  -1.601   1.363  0.00  0.00    +0.000 OA
ATOM     21  O   UNL     1      -5.727   0.032   0.518  0.00  0.00    +0.000 OA
ENDBRANCH  18  19
ENDBRANCH   1  16
TORSDOF 3
