REMARK  Name = 
REMARK  3 active torsions:
REMARK  status: ('A' for Active; 'I' for Inactive)
REMARK    1  A    between atoms: C_2  and  C_4
REMARK    2  A    between atoms: N_6  and  N_7
REMARK    3  A    between atoms: C_8  and  C_9
REMARK                            x       y       z     vdW  Elec       q    Type
REMARK                         _______ _______ _______ _____ _____    ______ ____
ROOT
ATOM      1  C   UNL     1      -0.555   0.542   0.425  0.00  0.00    +0.000 A 
ATOM      2  C   UNL     1      -1.297  -0.464  -0.111  0.00  0.00    +0.000 A 
ATOM      3  C   UNL     1      -2.676  -0.284  -0.233  0.00  0.00    +0.000 A 
ATOM      4  C   UNL     1      -3.496  -1.257  -0.766  0.00  0.00    +0.000 A 
ATOM      5  C   UNL     1      -4.865  -1.082  -0.889  0.00  0.00    +0.000 A 
ATOM      6  C   UNL     1      -5.449   0.115  -0.463  0.00  0.00    +0.000 A 
ATOM      7  C   UNL     1      -4.649   1.081   0.064  0.00  0.00    +0.000 A 
ATOM      8  C   UNL     1      -3.285   0.885   0.177  0.00  0.00    +0.000 A 
ATOM      9  N   UNL     1      -2.523   1.841   0.695  0.00  0.00    +0.000 NA
ATOM     10  C   UNL     1      -1.186   1.719   0.836  0.00  0.00    +0.000 A 
ATOM     11 CL   UNL     1      -0.275   3.045   1.532  0.00  0.00    +0.000 Cl
ENDROOT
BRANCH   1  13
ATOM     12  N   UNL     1       1.618  -0.512   0.289  0.00  0.00    +0.000 NA
ATOM     13  C   UNL     1       0.891   0.498   0.615  0.00  0.00    +0.000 C 
BRANCH  12  16
ATOM     14  C   UNL     1       3.902  -1.169  -0.427  0.00  0.00    +0.000 C 
ATOM     15  O   UNL     1       3.428  -1.726  -1.436  0.00  0.00    +0.000 OA
ATOM     16  N   UNL     1       3.008  -0.537   0.478  0.00  0.00    +0.000 NA
BRANCH  14  18
ATOM     17  C   UNL     1       5.867   0.305  -0.017  0.00  0.00    +0.000 C 
ATOM     18  C   UNL     1       5.348  -1.119  -0.103  0.00  0.00    +0.000 C 
ATOM     19  C   UNL     1       6.194  -1.880  -1.068  0.00  0.00    +0.000 C 
ENDBRANCH  14  18
ENDBRANCH  12  16
ENDBRANCH   1  13
TORSDOF 3
