REMARK  Name = 
REMARK  2 active torsions:
REMARK  status: ('A' for Active; 'I' for Inactive)
REMARK    1  A    between atoms: C_2  and  C_4
REMARK    2  A    between atoms: C_10  and  C_11
REMARK                            x       y       z     vdW  Elec       q    Type
REMARK                         _______ _______ _______ _____ _____    ______ ____
ROOT
ATOM      1  C   UNL     1      -2.535   0.540  -1.022  0.00  0.00    +0.000 C 
ATOM      2  C   UNL     1      -3.401  -0.642  -0.314  0.00  0.00    +0.000 C 
ATOM      3  C   UNL     1      -3.022  -0.731   1.117  0.00  0.00    +0.000 C 
ATOM      4  C   UNL     1      -1.845  -1.916   1.003  0.00  0.00    +0.000 C 
ATOM      5  C   UNL     1      -1.325  -1.634   2.538  0.00  0.00    +0.000 C 
ATOM      6  C   UNL     1      -0.783  -0.913   0.334  0.00  0.00    +0.000 C 
ATOM      7  C   UNL     1       0.434  -1.307   0.626  0.00  0.00    +0.000 C 
ATOM      8  C   UNL     1      -1.123   0.169  -0.440  0.00  0.00    +0.000 C 
ATOM      9  O   UNL     1      -0.289   1.038  -0.798  0.00  0.00    +0.000 OA
ENDROOT
BRANCH   7  10
ATOM     10  C   UNL     1       1.702  -0.767   0.282  0.00  0.00    +0.000 A 
ATOM     11  C   UNL     1       2.043   0.576   0.409  0.00  0.00    +0.000 A 
ATOM     12  C   UNL     1       3.276   1.052   0.041  0.00  0.00    +0.000 A 
ATOM     13  C   UNL     1       4.242   0.201  -0.479  0.00  0.00    +0.000 A 
ATOM     14  N   UNL     1       5.527   0.637  -0.878  0.00  0.00    +0.000 NA
ATOM     15  C   UNL     1       3.942  -1.148  -0.623  0.00  0.00    +0.000 A 
ATOM     16  C   UNL     1       2.676  -1.592  -0.236  0.00  0.00    +0.000 A 
ENDBRANCH   7  10
BRANCH   1  18
ATOM     17  C   UNL     1      -4.380   1.808   0.086  0.00  0.00    +0.000 C 
ATOM     18  C   UNL     1      -2.871   1.679   0.119  0.00  0.00    +0.000 C 
ATOM     19  C   UNL     1      -2.269   2.950  -0.488  0.00  0.00    +0.000 C 
ENDBRANCH   1  18
TORSDOF 2
