REMARK  Name = 
REMARK  2 active torsions:
REMARK  status: ('A' for Active; 'I' for Inactive)
REMARK    1  A    between atoms: C_6  and  C_7
REMARK    2  A    between atoms: C_11  and  C_12
REMARK                            x       y       z     vdW  Elec       q    Type
REMARK                         _______ _______ _______ _____ _____    ______ ____
ROOT
ATOM      1  C   UNL     1       0.089   2.429  -0.038  0.00  0.00    +0.000 C 
ATOM      2  C   UNL     1      -0.938   1.397   0.296  0.00  0.00    +0.000 C 
ATOM      3  C   UNL     1      -2.104   1.544  -0.112  0.00  0.00    +0.000 C 
ATOM      4  C   UNL     1      -3.284   0.515   0.179  0.00  0.00    +0.000 C 
ATOM      5  C   UNL     1      -3.803   0.435  -1.360  0.00  0.00    +0.000 C 
ATOM      6  C   UNL     1      -2.324  -0.797   0.048  0.00  0.00    +0.000 C 
ATOM      7  C   UNL     1      -1.565  -0.703  -1.087  0.00  0.00    +0.000 C 
ATOM      8  O   UNL     1      -0.304  -0.282  -1.241  0.00  0.00    +0.000 OA
ATOM      9  C   UNL     1       0.273  -0.833   0.013  0.00  0.00    +0.000 C 
ATOM     10  C   UNL     1      -0.315   0.262   1.147  0.00  0.00    +0.000 C 
ATOM     11  C   UNL     1      -1.733  -0.552   1.511  0.00  0.00    +0.000 C 
ATOM     12  C   UNL     1      -1.105  -2.028   1.709  0.00  0.00    +0.000 C 
ENDROOT
BRANCH   9  13
ATOM     13  C   UNL     1       1.685  -0.189  -0.134  0.00  0.00    +0.000 A 
ATOM     14  C   UNL     1       2.297  -0.292  -1.361  0.00  0.00    +0.000 A 
ATOM     15  C   UNL     1       3.577   0.270  -1.562  0.00  0.00    +0.000 A 
ATOM     16  C   UNL     1       4.220   0.921  -0.537  0.00  0.00    +0.000 A 
ATOM     17  O   UNL     1       5.469   1.495  -0.653  0.00  0.00    +0.000 OA
ATOM     18  C   UNL     1       3.601   1.018   0.682  0.00  0.00    +0.000 A 
ATOM     19  C   UNL     1       2.352   0.455   0.831  0.00  0.00    +0.000 A 
ENDBRANCH   9  13
BRANCH   6  20
ATOM     20  C   UNL     1      -3.319  -1.907   0.178  0.00  0.00    +0.000 C 
ATOM     21  O   UNL     1      -2.769  -3.158   0.102  0.00  0.00    +0.000 OA
ENDBRANCH   6  20
TORSDOF 2
