REMARK  Name = 
REMARK  2 active torsions:
REMARK  status: ('A' for Active; 'I' for Inactive)
REMARK    1  A    between atoms: O_2  and  C_3
REMARK    2  A    between atoms: C_7  and  C_8
REMARK                            x       y       z     vdW  Elec       q    Type
REMARK                         _______ _______ _______ _____ _____    ______ ____
ROOT
ATOM      1  C   UNL     1      -0.531  -0.756  -1.025  0.00  0.00    +0.000 C 
ATOM      2  N   UNL     1      -0.798   0.369  -1.950  0.00  0.00    +0.000 NA
ATOM      3  C   UNL     1       0.104   1.317  -2.402  0.00  0.00    +0.000 C 
ATOM      4  O   UNL     1      -0.334   2.226  -3.199  0.00  0.00    +0.000 OA
ATOM      5  N   UNL     1       1.472   1.296  -2.005  0.00  0.00    +0.000 NA
ATOM      6  C   UNL     1       1.787   0.229  -1.122  0.00  0.00    +0.000 C 
ATOM      7  C   UNL     1       1.000  -0.679  -0.662  0.00  0.00    +0.000 C 
ATOM      8  C   UNL     1       1.495  -1.725   0.237  0.00  0.00    +0.000 C 
ATOM      9  O   UNL     1       0.984  -2.829  -0.003  0.00  0.00    +0.000 OA
ATOM     10  C   UNL     1       2.478  -1.339   1.246  0.00  0.00    +0.000 C 
ATOM     11  C   UNL     1       3.356  -0.194   0.801  0.00  0.00    +0.000 C 
ATOM     12  C   UNL     1       3.044   1.101   1.517  0.00  0.00    +0.000 C 
ATOM     13  C   UNL     1       4.785  -0.594   1.085  0.00  0.00    +0.000 C 
ATOM     14  C   UNL     1       3.239   0.088  -0.660  0.00  0.00    +0.000 C 
ENDROOT
BRANCH   1  19
ATOM     15  C   UNL     1      -3.361   0.640   1.065  0.00  0.00    +0.000 A 
ATOM     16  C   UNL     1      -2.848   0.583   2.341  0.00  0.00    +0.000 A 
ATOM     17  C   UNL     1      -1.582   0.099   2.573  0.00  0.00    +0.000 A 
ATOM     18  C   UNL     1      -0.784  -0.347   1.536  0.00  0.00    +0.000 A 
ATOM     19  C   UNL     1      -1.254  -0.300   0.321  0.00  0.00    +0.000 A 
ATOM     20  C   UNL     1      -2.505   0.174   0.051  0.00  0.00    +0.000 A 
BRANCH  15  22
ATOM     21  C   UNL     1      -5.111   1.158  -0.541  0.00  0.00    +0.000 C 
ATOM     22  O   UNL     1      -4.636   1.123   0.795  0.00  0.00    +0.000 OA
ENDBRANCH  15  22
ENDBRANCH   1  19
TORSDOF 2
