REMARK  Name = 
REMARK  4 active torsions:
REMARK  status: ('A' for Active; 'I' for Inactive)
REMARK    1  A    between atoms: O_2  and  C_3
REMARK    2  A    between atoms: C_5  and  S_6
REMARK    3  A    between atoms: S_6  and  C_7
REMARK    4  A    between atoms: C_14  and  O_15
REMARK                            x       y       z     vdW  Elec       q    Type
REMARK                         _______ _______ _______ _____ _____    ______ ____
ROOT
ATOM      1  C   UNL     1      -2.765  -0.961   0.318  0.00  0.00    +0.000 A 
ATOM      2  C   UNL     1      -1.681  -0.793  -0.505  0.00  0.00    +0.000 A 
ATOM      3  C   UNL     1      -0.961   0.385  -0.534  0.00  0.00    +0.000 A 
ATOM      4  C   UNL     1      -1.389   1.389   0.313  0.00  0.00    +0.000 A 
ATOM      5  C   UNL     1      -2.479   1.230   1.145  0.00  0.00    +0.000 A 
ATOM      6  C   UNL     1      -3.188   0.047   1.162  0.00  0.00    +0.000 A 
ATOM      7  N   UNL     1      -4.313  -0.163   1.999  0.00  0.00    +0.000 NA
ENDROOT
BRANCH   1   9
ATOM      8  C   UNL     1      -3.100  -3.233  -0.508  0.00  0.00    +0.000 C 
ATOM      9  O   UNL     1      -3.467  -2.162   0.320  0.00  0.00    +0.000 OA
ENDBRANCH   1   9
BRANCH   4  10
ATOM     10  O   UNL     1      -0.716   2.589   0.335  0.00  0.00    +0.000 OA
ATOM     11  C   UNL     1      -1.096   3.651   1.169  0.00  0.00    +0.000 C 
ENDBRANCH   4  10
BRANCH   3  12
ATOM     12  S   UNL     1       0.451   0.595  -1.610  0.00  0.00    +0.000 S 
BRANCH  12  13
ATOM     13  C   UNL     1       1.965   0.096  -0.824  0.00  0.00    +0.000 A 
ATOM     14  C   UNL     1       2.696   1.020  -0.106  0.00  0.00    +0.000 A 
ATOM     15  C   UNL     1       3.887   0.666   0.524  0.00  0.00    +0.000 A 
ATOM     16  C   UNL     1       4.369  -0.624   0.447  0.00  0.00    +0.000 A 
ATOM     17  C   UNL     1       5.660  -1.002   1.131  0.00  0.00    +0.000 C 
ATOM     18  C   UNL     1       3.649  -1.553  -0.266  0.00  0.00    +0.000 A 
ATOM     19  C   UNL     1       2.479  -1.177  -0.876  0.00  0.00    +0.000 A 
ENDBRANCH  12  13
ENDBRANCH   3  12
TORSDOF 4
