REMARK  Name = 
REMARK  2 active torsions:
REMARK  status: ('A' for Active; 'I' for Inactive)
REMARK    1  A    between atoms: O_2  and  C_3
REMARK    2  A    between atoms: C_6  and  C_7
REMARK                            x       y       z     vdW  Elec       q    Type
REMARK                         _______ _______ _______ _____ _____    ______ ____
ROOT
ATOM      1  C   UNL     1       0.887  -1.535   0.672  0.00  0.00    +0.000 C 
ATOM      2  C   UNL     1      -0.280  -0.908   0.548  0.00  0.00    +0.000 C 
ATOM      3  O   UNL     1      -0.490   0.347   0.005  0.00  0.00    +0.000 OA
ATOM      4  C   UNL     1      -1.825   0.701   0.029  0.00  0.00    +0.000 A 
ATOM      5  C   UNL     1      -2.528   1.837  -0.391  0.00  0.00    +0.000 A 
ATOM      6  C   UNL     1      -3.893   1.949  -0.253  0.00  0.00    +0.000 A 
ATOM      7  O   UNL     1      -4.587   3.092  -0.678  0.00  0.00    +0.000 OA
ATOM      8  C   UNL     1      -4.568   0.895   0.321  0.00  0.00    +0.000 A 
ATOM      9  C   UNL     1      -3.893  -0.231   0.740  0.00  0.00    +0.000 A 
ATOM     10  C   UNL     1      -4.596  -1.390   1.366  0.00  0.00    +0.000 C 
ATOM     11  C   UNL     1      -2.515  -0.345   0.601  0.00  0.00    +0.000 A 
ATOM     12  C   UNL     1      -1.582  -1.413   0.959  0.00  0.00    +0.000 C 
ATOM     13  O   UNL     1      -1.848  -2.529   1.504  0.00  0.00    +0.000 OA
ENDROOT
BRANCH   1  17
ATOM     14  C   UNL     1       4.432   0.352  -0.742  0.00  0.00    +0.000 A 
ATOM     15  C   UNL     1       3.445   1.117  -0.147  0.00  0.00    +0.000 A 
ATOM     16  C   UNL     1       2.287   0.496   0.314  0.00  0.00    +0.000 A 
ATOM     17  C   UNL     1       2.089  -0.862   0.198  0.00  0.00    +0.000 A 
ATOM     18  C   UNL     1       3.066  -1.624  -0.392  0.00  0.00    +0.000 A 
ATOM     19  C   UNL     1       4.208  -0.999  -0.845  0.00  0.00    +0.000 A 
BRANCH  14  21
ATOM     20  C   UNL     1       6.577   0.101  -1.815  0.00  0.00    +0.000 C 
ATOM     21  O   UNL     1       5.613   0.949  -1.218  0.00  0.00    +0.000 OA
ENDBRANCH  14  21
ENDBRANCH   1  17
TORSDOF 2
