REMARK  Name = 
REMARK  4 active torsions:
REMARK  status: ('A' for Active; 'I' for Inactive)
REMARK    1  A    between atoms: C_2  and  C_3
REMARK    2  A    between atoms: C_3  and  C_10
REMARK    3  A    between atoms: C_4  and  C_5
REMARK    4  A    between atoms: N_12  and  C_13
REMARK                            x       y       z     vdW  Elec       q    Type
REMARK                         _______ _______ _______ _____ _____    ______ ____
ROOT
ATOM      1  C   UNL     1       0.273   0.180   0.766  0.00  0.00    +0.000 C 
ATOM      2  O   UNL     1       0.713   1.264   1.265  0.00  0.00    +0.000 OA
ATOM      3  N   UNL     1       1.190  -0.846   0.394  0.00  0.00    +0.000 NA
ENDROOT
BRANCH   3   4
ATOM      4  C   UNL     1       2.615  -0.657   0.589  0.00  0.00    +0.000 C 
ATOM      5  C   UNL     1       3.277  -0.946  -0.747  0.00  0.00    +0.000 C 
ATOM      6  C   UNL     1       4.740  -1.369  -0.555  0.00  0.00    +0.000 C 
ATOM      7  C   UNL     1       5.561  -0.115  -0.724  0.00  0.00    +0.000 C 
ATOM      8  C   UNL     1       5.268   0.767   0.487  0.00  0.00    +0.000 C 
ATOM      9  C   UNL     1       3.921   1.467   0.248  0.00  0.00    +0.000 C 
ATOM     10  C   UNL     1       2.832   0.770   1.029  0.00  0.00    +0.000 C 
ENDBRANCH   3   4
BRANCH   1  11
ATOM     11  C   UNL     1      -1.145  -0.037   0.563  0.00  0.00    +0.000 C 
ATOM     12  C   UNL     1      -2.006   0.904   0.901  0.00  0.00    +0.000 C 
BRANCH  12  13
ATOM     13  C   UNL     1      -3.433   0.612   0.667  0.00  0.00    +0.000 A 
ATOM     14  C   UNL     1      -4.363   1.506   0.241  0.00  0.00    +0.000 A 
ATOM     15  C   UNL     1      -5.614   1.078   0.076  0.00  0.00    +0.000 A 
ATOM     16  C   UNL     1      -5.873  -0.233   0.349  0.00  0.00    +0.000 A 
ATOM     17  S   UNL     1      -4.346  -0.818   0.827  0.00  0.00    +0.000 S 
ENDBRANCH  12  13
BRANCH  11  19
ATOM     18  N   UNL     1      -1.995  -2.267  -0.472  0.00  0.00    +0.000 NA
ATOM     19  C   UNL     1      -1.616  -1.262  -0.000  0.00  0.00    +0.000 C 
ENDBRANCH  11  19
ENDBRANCH   1  11
TORSDOF 4
