REMARK  Name = 
REMARK  2 active torsions:
REMARK  status: ('A' for Active; 'I' for Inactive)
REMARK    1  A    between atoms: C_11  and  C_12
REMARK    2  A    between atoms: N_14  and  C_15
REMARK                            x       y       z     vdW  Elec       q    Type
REMARK                         _______ _______ _______ _____ _____    ______ ____
ROOT
ATOM      1  C   UNL     1      -0.132  -1.579  -2.411  0.00  0.00    +0.000 C 
ATOM      2  C   UNL     1      -1.094  -0.821  -1.539  0.00  0.00    +0.000 A 
ATOM      3  O   UNL     1      -2.344  -0.547  -1.789  0.00  0.00    +0.000 OA
ATOM      4  C   UNL     1      -2.851   0.131  -0.787  0.00  0.00    +0.000 A 
ATOM      5  C   UNL     1      -4.129   0.661  -0.556  0.00  0.00    +0.000 A 
ATOM      6  C   UNL     1      -4.363   1.341   0.622  0.00  0.00    +0.000 A 
ATOM      7  C   UNL     1      -3.376   1.509   1.566  0.00  0.00    +0.000 A 
ATOM      8  O   UNL     1      -3.662   2.205   2.742  0.00  0.00    +0.000 OA
ATOM      9  C   UNL     1      -2.107   0.995   1.360  0.00  0.00    +0.000 A 
ATOM     10  C   UNL     1      -1.889   0.316   0.174  0.00  0.00    +0.000 A 
ATOM     11  C   UNL     1      -0.743  -0.297  -0.301  0.00  0.00    +0.000 A 
ENDROOT
BRANCH  11  12
ATOM     12  C   UNL     1       0.557  -0.391   0.332  0.00  0.00    +0.000 C 
ATOM     13  O   UNL     1       0.728   0.127   1.450  0.00  0.00    +0.000 OA
ATOM     14  N   UNL     1       1.593  -1.065  -0.336  0.00  0.00    +0.000 NA
BRANCH  14  15
ATOM     15  C   UNL     1       2.900  -1.172   0.272  0.00  0.00    +0.000 C 
ATOM     16  C   UNL     1       3.898  -1.884  -0.568  0.00  0.00    +0.000 C 
ATOM     17  C   UNL     1       4.929  -1.008  -1.207  0.00  0.00    +0.000 C 
ATOM     18  C   UNL     1       4.531   0.432  -1.261  0.00  0.00    +0.000 C 
ATOM     19  C   UNL     1       4.188   0.978   0.085  0.00  0.00    +0.000 C 
ATOM     20  C   UNL     1       3.366   0.069   0.930  0.00  0.00    +0.000 C 
ENDBRANCH  14  15
ENDBRANCH  11  12
TORSDOF 2
