REMARK  Name = 
REMARK  2 active torsions:
REMARK  status: ('A' for Active; 'I' for Inactive)
REMARK    1  A    between atoms: C_2  and  C_4
REMARK    2  A    between atoms: C_4  and  N_5
REMARK                            x       y       z     vdW  Elec       q    Type
REMARK                         _______ _______ _______ _____ _____    ______ ____
ROOT
ATOM      1  N   UNL     1       2.359  -1.385  -0.127  0.00  0.00    +0.000 NA
ATOM      2  C   UNL     1       1.516  -0.240  -0.192  0.00  0.00    +0.000 A 
ATOM      3  N   UNL     1       2.004   0.971  -0.516  0.00  0.00    +0.000 NA
ATOM      4  C   UNL     1       1.247   2.081  -0.590  0.00  0.00    +0.000 A 
ATOM      5  N   UNL     1      -0.070   1.978  -0.326  0.00  0.00    +0.000 NA
ATOM      6  C   UNL     1      -0.614   0.793   0.004  0.00  0.00    +0.000 A 
ATOM      7  C   UNL     1       0.170  -0.357   0.081  0.00  0.00    +0.000 A 
ATOM      8  N   UNL     1      -0.638  -1.371   0.427  0.00  0.00    +0.000 NA
ATOM      9  C   UNL     1      -1.893  -0.943   0.578  0.00  0.00    +0.000 A 
ATOM     10  C   UNL     1      -3.088  -1.554   0.917  0.00  0.00    +0.000 A 
ATOM     11  C   UNL     1      -4.270  -0.846   1.000  0.00  0.00    +0.000 A 
ATOM     12  C   UNL     1      -4.296   0.509   0.743  0.00  0.00    +0.000 A 
ATOM     13  F   UNL     1      -5.462   1.200   0.826  0.00  0.00    +0.000 F 
ATOM     14  C   UNL     1      -3.105   1.115   0.405  0.00  0.00    +0.000 A 
ATOM     15  C   UNL     1      -1.908   0.431   0.315  0.00  0.00    +0.000 A 
ENDROOT
BRANCH   1  16
ATOM     16  C   UNL     1       3.775  -1.250  -0.416  0.00  0.00    +0.000 C 
BRANCH  16  18
ATOM     17  C   UNL     1       5.827  -0.049   0.373  0.00  0.00    +0.000 C 
ATOM     18  C   UNL     1       4.363  -0.274   0.570  0.00  0.00    +0.000 C 
ATOM     19  C   UNL     1       4.082  -0.810   1.959  0.00  0.00    +0.000 C 
ENDBRANCH  16  18
ENDBRANCH   1  16
TORSDOF 2
