REMARK  Name = 
REMARK  3 active torsions:
REMARK  status: ('A' for Active; 'I' for Inactive)
REMARK    1  A    between atoms: C_5  and  C_6
REMARK    2  A    between atoms: C_6  and  N_7
REMARK    3  A    between atoms: C_11  and  C_12
REMARK                            x       y       z     vdW  Elec       q    Type
REMARK                         _______ _______ _______ _____ _____    ______ ____
ROOT
ATOM      1  N   UNL     1      -0.080  -0.058   0.298  0.00  0.00    +0.000 N 
ATOM      2  C   UNL     1       0.298   0.747   1.356  0.00  0.00    +0.000 C 
ATOM      3  O   UNL     1       0.213   2.029   1.368  0.00  0.00    +0.000 OA
ATOM      4  N   UNL     1       0.775  -0.057   2.380  0.00  0.00    +0.000 NA
ATOM      5  C   UNL     1       1.288  -1.394   1.751  0.00  0.00    +0.000 C 
ATOM      6  C   UNL     1       0.135  -1.377   0.593  0.00  0.00    +0.000 C 
ATOM      7  O   UNL     1      -0.320  -2.462   0.203  0.00  0.00    +0.000 OA
ENDROOT
BRANCH   5   8
ATOM      8  C   UNL     1       2.399  -0.750   0.852  0.00  0.00    +0.000 A 
ATOM      9  C   UNL     1       3.200   0.184   1.434  0.00  0.00    +0.000 A 
ATOM     10  C   UNL     1       4.194   0.744   0.645  0.00  0.00    +0.000 A 
ATOM     11  C   UNL     1       4.347   0.359  -0.669  0.00  0.00    +0.000 A 
ATOM     12  F   UNL     1       5.312   0.902  -1.440  0.00  0.00    +0.000 F 
ATOM     13  C   UNL     1       3.527  -0.597  -1.269  0.00  0.00    +0.000 A 
ATOM     14  C   UNL     1       2.546  -1.134  -0.448  0.00  0.00    +0.000 A 
ENDBRANCH   5   8
BRANCH   1  15
ATOM     15  C   UNL     1      -0.650   0.347  -1.017  0.00  0.00    +0.000 C 
BRANCH  15  20
ATOM     16  C   UNL     1      -6.331   0.376  -0.551  0.00  0.00    +0.000 C 
ATOM     17  C   UNL     1      -4.840   0.338  -0.682  0.00  0.00    +0.000 A 
ATOM     18  C   UNL     1      -4.143   1.481  -0.405  0.00  0.00    +0.000 A 
ATOM     19  C   UNL     1      -2.769   1.524  -0.503  0.00  0.00    +0.000 A 
ATOM     20  C   UNL     1      -2.129   0.381  -0.888  0.00  0.00    +0.000 A 
ATOM     21  C   UNL     1      -2.800  -0.795  -1.177  0.00  0.00    +0.000 A 
ATOM     22  C   UNL     1      -4.174  -0.787  -1.064  0.00  0.00    +0.000 A 
ENDBRANCH  15  20
ENDBRANCH   1  15
TORSDOF 3
