REMARK  Name = 
REMARK  3 active torsions:
REMARK  status: ('A' for Active; 'I' for Inactive)
REMARK    1  A    between atoms: C_7  and  C_8
REMARK    2  A    between atoms: C_15  and  N_16
REMARK    3  A    between atoms: N_16  and  C_17
REMARK                            x       y       z     vdW  Elec       q    Type
REMARK                         _______ _______ _______ _____ _____    ______ ____
ROOT
ATOM      1  C   UNL     1       5.402   0.652  -1.004  0.00  0.00    +0.000 C 
ATOM      2  C   UNL     1       4.094  -0.002  -0.733  0.00  0.00    +0.000 A 
ATOM      3  C   UNL     1       4.027  -1.372  -0.684  0.00  0.00    +0.000 A 
ATOM      4  C   UNL     1       2.833  -2.001  -0.437  0.00  0.00    +0.000 A 
ATOM      5  C   UNL     1       1.666  -1.249  -0.231  0.00  0.00    +0.000 A 
ATOM      6  N   UNL     1       0.407  -1.622   0.023  0.00  0.00    +0.000 NA
ATOM      7  C   UNL     1      -0.353  -0.519   0.141  0.00  0.00    +0.000 A 
ATOM      8  C   UNL     1       0.481   0.550  -0.051  0.00  0.00    +0.000 A 
ATOM      9  N   UNL     1       1.749   0.072  -0.282  0.00  0.00    +0.000 N 
ATOM     10  C   UNL     1       2.934   0.705  -0.528  0.00  0.00    +0.000 A 
ENDROOT
BRANCH   7  11
ATOM     11  C   UNL     1      -1.798  -0.560   0.447  0.00  0.00    +0.000 A 
ATOM     12  C   UNL     1      -2.545   0.542   0.644  0.00  0.00    +0.000 A 
ATOM     13  C   UNL     1      -3.876   0.447   0.954  0.00  0.00    +0.000 A 
ATOM     14  C   UNL     1      -4.528  -0.772   1.083  0.00  0.00    +0.000 A 
ATOM     15  C   UNL     1      -3.728  -1.879   0.874  0.00  0.00    +0.000 A 
ATOM     16  C   UNL     1      -2.400  -1.786   0.564  0.00  0.00    +0.000 A 
ATOM     17  O   UNL     1      -1.676  -2.949   0.371  0.00  0.00    +0.000 OA
ENDBRANCH   7  11
BRANCH   8  18
ATOM     18  N   UNL     1       0.224   1.903  -0.092  0.00  0.00    +0.000 NA
BRANCH  18  19
ATOM     19  C   UNL     1      -0.830   2.784  -0.079  0.00  0.00    +0.000 C 
ATOM     20  C   UNL     1      -1.632   2.888  -1.379  0.00  0.00    +0.000 C 
ATOM     21  C   UNL     1      -0.452   4.168   0.399  0.00  0.00    +0.000 C 
ENDBRANCH  18  19
ENDBRANCH   8  18
TORSDOF 3
