REMARK  Name = 
REMARK  2 active torsions:
REMARK  status: ('A' for Active; 'I' for Inactive)
REMARK    1  A    between atoms: N_11  and  C_12
REMARK    2  A    between atoms: C_12  and  C_13
REMARK                            x       y       z     vdW  Elec       q    Type
REMARK                         _______ _______ _______ _____ _____    ______ ____
ROOT
ATOM      1  C   UNL     1       3.232   1.210  -1.521  0.00  0.00    +0.000 C 
ATOM      2  C   UNL     1       3.442   1.115   0.089  0.00  0.00    +0.000 C 
ATOM      3  C   UNL     1       4.239  -0.321  -0.004  0.00  0.00    +0.000 C 
ATOM      4  C   UNL     1       3.623  -1.308   0.877  0.00  0.00    +0.000 C 
ATOM      5  C   UNL     1       2.965  -0.825   2.107  0.00  0.00    +0.000 C 
ATOM      6  C   UNL     1       1.879   0.220   1.825  0.00  0.00    +0.000 C 
ATOM      7  C   UNL     1       1.997   0.484   0.380  0.00  0.00    +0.000 C 
ATOM      8  N   UNL     1       1.889  -0.719  -0.440  0.00  0.00    +0.000 NA
ATOM      9  C   UNL     1       0.492  -0.873  -0.676  0.00  0.00    +0.000 C 
ATOM     10  O   UNL     1      -0.104  -1.980  -0.965  0.00  0.00    +0.000 OA
ATOM     11  N   UNL     1      -0.116   0.368  -0.553  0.00  0.00    +0.000 N 
ATOM     12  C   UNL     1       0.950   1.335  -0.211  0.00  0.00    +0.000 C 
ATOM     13  O   UNL     1       0.901   2.544  -0.417  0.00  0.00    +0.000 OA
ENDROOT
BRANCH  11  14
ATOM     14  C   UNL     1      -1.446   0.822  -1.029  0.00  0.00    +0.000 C 
BRANCH  14  15
ATOM     15  C   UNL     1      -2.456   0.091  -0.171  0.00  0.00    +0.000 A 
ATOM     16  C   UNL     1      -2.488  -1.278  -0.426  0.00  0.00    +0.000 A 
ATOM     17  C   UNL     1      -3.414  -2.095   0.074  0.00  0.00    +0.000 A 
ATOM     18  C   UNL     1      -4.412  -1.516   0.891  0.00  0.00    +0.000 A 
ATOM     19  C   UNL     1      -4.410  -0.187   1.163  0.00  0.00    +0.000 A 
ATOM     20  C   UNL     1      -3.382   0.586   0.600  0.00  0.00    +0.000 A 
ATOM     21 CL   UNL     1      -3.381   2.325   0.959  0.00  0.00    +0.000 Cl
ENDBRANCH  14  15
ENDBRANCH  11  14
TORSDOF 2
