REMARK  Name = 
REMARK  2 active torsions:
REMARK  status: ('A' for Active; 'I' for Inactive)
REMARK    1  A    between atoms: C_2  and  C_5
REMARK    2  A    between atoms: C_7  and  C_8
REMARK                            x       y       z     vdW  Elec       q    Type
REMARK                         _______ _______ _______ _____ _____    ______ ____
ROOT
ATOM      1  C   UNL     1       2.925  -0.010   0.049  0.00  0.00    +0.000 A 
ATOM      2  C   UNL     1       1.669  -0.571  -0.035  0.00  0.00    +0.000 A 
ATOM      3  C   UNL     1       0.519   0.186   0.033  0.00  0.00    +0.000 A 
ATOM      4  N   UNL     1       0.603   1.517   0.187  0.00  0.00    +0.000 NA
ATOM      5  C   UNL     1       1.843   2.061   0.269  0.00  0.00    +0.000 A 
ATOM      6  N   UNL     1       2.026   3.477   0.435  0.00  0.00    +0.000 NA
ATOM      7  N   UNL     1       2.965   1.322   0.203  0.00  0.00    +0.000 NA
ENDROOT
BRANCH   3   8
ATOM      8  C   UNL     1      -0.768  -0.502  -0.068  0.00  0.00    +0.000 A 
ATOM      9  C   UNL     1      -0.858  -1.869  -0.225  0.00  0.00    +0.000 A 
ATOM     10  C   UNL     1      -2.099  -2.495  -0.319  0.00  0.00    +0.000 A 
ATOM     11  C   UNL     1      -3.278  -1.791  -0.261  0.00  0.00    +0.000 A 
ATOM     12  F   UNL     1      -4.493  -2.406  -0.353  0.00  0.00    +0.000 F 
ATOM     13  C   UNL     1      -3.195  -0.423  -0.104  0.00  0.00    +0.000 A 
ATOM     14  C   UNL     1      -4.389   0.291  -0.045  0.00  0.00    +0.000 A 
ATOM     15  C   UNL     1      -4.315   1.663   0.112  0.00  0.00    +0.000 A 
ATOM     16  C   UNL     1      -3.070   2.263   0.203  0.00  0.00    +0.000 A 
ATOM     17  C   UNL     1      -1.900   1.561   0.145  0.00  0.00    +0.000 A 
ATOM     18  C   UNL     1      -1.956   0.193  -0.011  0.00  0.00    +0.000 A 
ENDBRANCH   3   8
BRANCH   1  20
ATOM     19  C   UNL     1       4.980  -0.714   1.224  0.00  0.00    +0.000 C 
ATOM     20  C   UNL     1       4.143  -0.863  -0.028  0.00  0.00    +0.000 C 
ATOM     21  C   UNL     1       4.930  -0.568  -1.287  0.00  0.00    +0.000 C 
ATOM     22  C   UNL     1       3.719  -2.322  -0.123  0.00  0.00    +0.000 C 
ENDBRANCH   1  20
TORSDOF 2
