REMARK  Name = 
REMARK  4 active torsions:
REMARK  status: ('A' for Active; 'I' for Inactive)
REMARK    1  A    between atoms: O_2  and  C_3
REMARK    2  A    between atoms: C_7  and  C_8
REMARK    3  A    between atoms: C_8  and  N_9
REMARK    4  A    between atoms: N_9  and  C_10
REMARK                            x       y       z     vdW  Elec       q    Type
REMARK                         _______ _______ _______ _____ _____    ______ ____
ROOT
ATOM      1  N   UNL     1       0.125  -1.540  -0.568  0.00  0.00    +0.000 NA
ENDROOT
BRANCH   1   2
ATOM      2  C   UNL     1      -1.192  -0.902  -0.659  0.00  0.00    +0.000 A 
ATOM      3  C   UNL     1      -2.170  -1.625  -1.216  0.00  0.00    +0.000 A 
ATOM      4  C   UNL     1      -3.473  -1.188  -1.232  0.00  0.00    +0.000 A 
ATOM      5  C   UNL     1      -3.737   0.053  -0.656  0.00  0.00    +0.000 A 
ATOM      6  C   UNL     1      -2.765   0.814  -0.093  0.00  0.00    +0.000 A 
ATOM      7  C   UNL     1      -1.444   0.359  -0.078  0.00  0.00    +0.000 A 
ATOM      8  N   UNL     1      -3.397   1.952   0.331  0.00  0.00    +0.000 NA
ATOM      9  C   UNL     1      -4.728   1.859   0.011  0.00  0.00    +0.000 A 
ATOM     10  N   UNL     1      -4.931   0.710  -0.584  0.00  0.00    +0.000 N 
ATOM     11  C   UNL     1      -6.215   0.108  -1.024  0.00  0.00    +0.000 C 
ENDBRANCH   1   2
BRANCH   1  12
ATOM     12  C   UNL     1       0.750  -1.129   0.785  0.00  0.00    +0.000 C 
BRANCH  12  17
ATOM     13  C   UNL     1       4.059   0.473   0.224  0.00  0.00    +0.000 A 
ATOM     14  C   UNL     1       4.836  -0.525  -0.350  0.00  0.00    +0.000 A 
ATOM     15  C   UNL     1       4.290  -1.759  -0.548  0.00  0.00    +0.000 A 
ATOM     16  C   UNL     1       2.942  -2.047  -0.191  0.00  0.00    +0.000 A 
ATOM     17  C   UNL     1       2.196  -1.051   0.370  0.00  0.00    +0.000 A 
ATOM     18  C   UNL     1       2.738   0.186   0.590  0.00  0.00    +0.000 A 
ATOM     19  O   UNL     1       1.969   1.184   1.195  0.00  0.00    +0.000 OA
BRANCH  13  21
ATOM     20  C   UNL     1       5.669   2.339   0.184  0.00  0.00    +0.000 C 
ATOM     21  O   UNL     1       4.476   1.732   0.449  0.00  0.00    +0.000 OA
ENDBRANCH  13  21
ENDBRANCH  12  17
ENDBRANCH   1  12
TORSDOF 4
