REMARK  Name = 
REMARK  4 active torsions:
REMARK  status: ('A' for Active; 'I' for Inactive)
REMARK    1  A    between atoms: C_2  and  C_4
REMARK    2  A    between atoms: C_4  and  C_5
REMARK    3  A    between atoms: N_9  and  C_10
REMARK    4  A    between atoms: C_10  and  C_11
REMARK                            x       y       z     vdW  Elec       q    Type
REMARK                         _______ _______ _______ _____ _____    ______ ____
ROOT
ATOM      1  C   UNL     1       2.384  -1.867   0.136  0.00  0.00    +0.000 C 
ATOM      2  N   UNL     1       2.112  -1.192   1.528  0.00  0.00    +0.000 NA
ATOM      3  C   UNL     1       0.728  -1.106   1.646  0.00  0.00    +0.000 C 
ATOM      4  O   UNL     1       0.123  -0.930   2.751  0.00  0.00    +0.000 OA
ATOM      5  N   UNL     1       0.075  -1.234   0.411  0.00  0.00    +0.000 N 
ATOM      6  C   UNL     1       1.063  -1.413  -0.577  0.00  0.00    +0.000 C 
ATOM      7  O   UNL     1       0.940  -1.253  -1.796  0.00  0.00    +0.000 OA
ENDROOT
BRANCH   1   8
ATOM      8  C   UNL     1       3.465  -0.758  -0.326  0.00  0.00    +0.000 C 
BRANCH   8  10
ATOM      9  C   UNL     1       2.065   1.051  -1.298  0.00  0.00    +0.000 C 
ATOM     10  C   UNL     1       3.122   0.569  -0.402  0.00  0.00    +0.000 C 
ATOM     11  C   UNL     1       3.974   1.636   0.197  0.00  0.00    +0.000 C 
ENDBRANCH   8  10
ENDBRANCH   1   8
BRANCH   5  12
ATOM     12  C   UNL     1      -1.388  -1.202   0.209  0.00  0.00    +0.000 C 
BRANCH  12  13
ATOM     13  C   UNL     1      -1.860   0.163  -0.023  0.00  0.00    +0.000 A 
ATOM     14  C   UNL     1      -1.060   1.280  -0.046  0.00  0.00    +0.000 A 
ATOM     15  C   UNL     1      -1.553   2.535  -0.264  0.00  0.00    +0.000 A 
ATOM     16  C   UNL     1      -2.919   2.716  -0.475  0.00  0.00    +0.000 A 
ATOM     17  C   UNL     1      -3.744   1.620  -0.458  0.00  0.00    +0.000 A 
ATOM     18  C   UNL     1      -3.224   0.375  -0.238  0.00  0.00    +0.000 A 
ATOM     19 CL   UNL     1      -4.302  -0.990  -0.224  0.00  0.00    +0.000 Cl
ENDBRANCH  12  13
ENDBRANCH   5  12
TORSDOF 4
