REMARK  Name = 
REMARK  3 active torsions:
REMARK  status: ('A' for Active; 'I' for Inactive)
REMARK    1  A    between atoms: C_7  and  C_8
REMARK    2  A    between atoms: N_10  and  C_11
REMARK    3  A    between atoms: C_13  and  N_14
REMARK                            x       y       z     vdW  Elec       q    Type
REMARK                         _______ _______ _______ _____ _____    ______ ____
ROOT
ATOM      1  C   UNL     1       0.835   0.133  -0.430  0.00  0.00    +0.000 C 
ATOM      2  O   UNL     1       0.209   0.857  -1.274  0.00  0.00    +0.000 OA
ATOM      3  N   UNL     1       0.096  -0.499   0.608  0.00  0.00    +0.000 NA
ENDROOT
BRANCH   1  10
ATOM      4  C   UNL     1       5.287   2.024   0.316  0.00  0.00    +0.000 C 
ATOM      5  C   UNL     1       4.484   0.852  -0.139  0.00  0.00    +0.000 A 
ATOM      6  C   UNL     1       5.054  -0.341  -0.530  0.00  0.00    +0.000 A 
ATOM      7  C   UNL     1       4.261  -1.405  -0.929  0.00  0.00    +0.000 A 
ATOM      8  C   UNL     1       2.890  -1.187  -0.906  0.00  0.00    +0.000 A 
ATOM      9  C   UNL     1       2.068  -2.366  -1.375  0.00  0.00    +0.000 C 
ATOM     10  C   UNL     1       2.285  -0.025  -0.524  0.00  0.00    +0.000 A 
ATOM     11  C   UNL     1       3.107   1.028  -0.128  0.00  0.00    +0.000 A 
ENDBRANCH   1  10
BRANCH   3  12
ATOM     12  C   UNL     1      -1.319  -0.367   0.752  0.00  0.00    +0.000 A 
ATOM     13  C   UNL     1      -2.112   0.311  -0.165  0.00  0.00    +0.000 A 
ATOM     14  C   UNL     1      -3.466   0.437   0.013  0.00  0.00    +0.000 A 
ATOM     15  C   UNL     1      -4.005  -0.137   1.141  0.00  0.00    +0.000 A 
ATOM     16  C   UNL     1      -3.215  -0.809   2.049  0.00  0.00    +0.000 A 
ATOM     17  C   UNL     1      -1.849  -0.949   1.887  0.00  0.00    +0.000 A 
ATOM     18  C   UNL     1      -1.022  -1.674   2.884  0.00  0.00    +0.000 C 
BRANCH  14  19
ATOM     19  N   UNL     1      -4.286   1.135  -0.913  0.00  0.00    +0.000 N 
ATOM     20  O   UNL     1      -5.520   1.275  -0.722  0.00  0.00    +0.000 OA
ATOM     21  O   UNL     1      -3.778   1.707  -2.072  0.00  0.00    +0.000 OA
ENDBRANCH  14  19
ENDBRANCH   3  12
TORSDOF 3
