REMARK  Name = 
REMARK  3 active torsions:
REMARK  status: ('A' for Active; 'I' for Inactive)
REMARK    1  A    between atoms: C_5  and  C_6
REMARK    2  A    between atoms: C_6  and  N_7
REMARK    3  A    between atoms: C_8  and  C_10
REMARK                            x       y       z     vdW  Elec       q    Type
REMARK                         _______ _______ _______ _____ _____    ______ ____
ROOT
ATOM      1  N   UNL     1       0.135  -0.338  -1.231  0.00  0.00    +0.000 NA
ATOM      2  C   UNL     1      -0.440  -1.070  -0.179  0.00  0.00    +0.000 C 
ATOM      3  O   UNL     1       0.314  -1.909   0.378  0.00  0.00    +0.000 OA
ENDROOT
BRANCH   2   4
ATOM      4  C   UNL     1      -1.853  -0.886   0.273  0.00  0.00    +0.000 A 
ATOM      5  C   UNL     1      -2.334  -1.646   1.312  0.00  0.00    +0.000 A 
ATOM      6  N   UNL     1      -1.659  -2.655   2.089  0.00  0.00    +0.000 NA
ATOM      7  S   UNL     1      -3.937  -1.112   1.475  0.00  0.00    +0.000 S 
ATOM      8  C   UNL     1      -3.971   0.056   0.233  0.00  0.00    +0.000 A 
ATOM      9  C   UNL     1      -2.709  -0.005  -0.281  0.00  0.00    +0.000 A 
ATOM     10  C   UNL     1      -2.680   1.029  -1.408  0.00  0.00    +0.000 C 
ATOM     11  C   UNL     1      -3.725   2.031  -0.965  0.00  0.00    +0.000 C 
ATOM     12  C   UNL     1      -4.814   1.086  -0.488  0.00  0.00    +0.000 C 
ENDBRANCH   2   4
BRANCH   1  13
ATOM     13  C   UNL     1       1.482  -0.492  -1.684  0.00  0.00    +0.000 C 
BRANCH  13  18
ATOM     14  C   UNL     1       5.461   1.871   1.709  0.00  0.00    +0.000 C 
ATOM     15  C   UNL     1       4.420   1.243   0.826  0.00  0.00    +0.000 A 
ATOM     16  C   UNL     1       3.839   1.948  -0.198  0.00  0.00    +0.000 A 
ATOM     17  C   UNL     1       2.890   1.406  -1.017  0.00  0.00    +0.000 A 
ATOM     18  C   UNL     1       2.492   0.112  -0.826  0.00  0.00    +0.000 A 
ATOM     19  C   UNL     1       3.059  -0.608   0.190  0.00  0.00    +0.000 A 
ATOM     20  C   UNL     1       4.030  -0.061   1.034  0.00  0.00    +0.000 A 
ENDBRANCH  13  18
ENDBRANCH   1  13
TORSDOF 3
