REMARK  Name = 
REMARK  3 active torsions:
REMARK  status: ('A' for Active; 'I' for Inactive)
REMARK    1  A    between atoms: C_2  and  O_3
REMARK    2  A    between atoms: O_3  and  C_4
REMARK    3  A    between atoms: N_6  and  C_7
REMARK                            x       y       z     vdW  Elec       q    Type
REMARK                         _______ _______ _______ _____ _____    ______ ____
ROOT
ATOM      1  C   UNL     1       1.702   0.009   0.266  0.00  0.00    +0.000 A 
ATOM      2  C   UNL     1       1.585  -1.319   0.024  0.00  0.00    +0.000 A 
ATOM      3  C   UNL     1       0.353  -1.957   0.022  0.00  0.00    +0.000 A 
ATOM      4  C   UNL     1      -0.808  -1.220   0.276  0.00  0.00    +0.000 A 
ATOM      5  C   UNL     1      -0.684   0.131   0.521  0.00  0.00    +0.000 A 
ATOM      6  C   UNL     1       0.561   0.742   0.517  0.00  0.00    +0.000 A 
ATOM      7  N   UNL     1      -1.760   1.050   0.801  0.00  0.00    +0.000 NA
ATOM      8  C   UNL     1      -3.145   0.883   0.452  0.00  0.00    +0.000 A 
ATOM      9  C   UNL     1      -3.952   1.910   0.830  0.00  0.00    +0.000 A 
ATOM     10  C   UNL     1      -5.319   1.899   0.565  0.00  0.00    +0.000 A 
ATOM     11  C   UNL     1      -5.846   0.811  -0.096  0.00  0.00    +0.000 A 
ATOM     12  C   UNL     1      -5.020  -0.247  -0.486  0.00  0.00    +0.000 A 
ATOM     13  C   UNL     1      -3.675  -0.212  -0.214  0.00  0.00    +0.000 A 
ATOM     14  C   UNL     1      -3.018  -1.444  -0.727  0.00  0.00    +0.000 C 
ATOM     15  C   UNL     1      -2.038  -2.017   0.246  0.00  0.00    +0.000 C 
ENDROOT
BRANCH   1  18
ATOM     16  C   UNL     1       4.186   0.046   0.031  0.00  0.00    +0.000 C 
ATOM     17  O   UNL     1       4.155  -1.189  -0.201  0.00  0.00    +0.000 OA
ATOM     18  N   UNL     1       2.966   0.700   0.275  0.00  0.00    +0.000 NA
BRANCH  16  19
ATOM     19  O   UNL     1       5.420   0.677   0.032  0.00  0.00    +0.000 OA
BRANCH  19  21
ATOM     20  C   UNL     1       7.764   0.845  -0.165  0.00  0.00    +0.000 C 
ATOM     21  C   UNL     1       6.574  -0.097  -0.228  0.00  0.00    +0.000 C 
ENDBRANCH  19  21
ENDBRANCH  16  19
ENDBRANCH   1  18
TORSDOF 3
