REMARK  Name = 
REMARK  2 active torsions:
REMARK  status: ('A' for Active; 'I' for Inactive)
REMARK    1  A    between atoms: C_2  and  C_4
REMARK    2  A    between atoms: C_10  and  C_11
REMARK                            x       y       z     vdW  Elec       q    Type
REMARK                         _______ _______ _______ _____ _____    ______ ____
ROOT
ATOM      1  C   UNL     1       3.449  -0.315   0.000  0.00  0.00    +0.000 A 
ATOM      2  C   UNL     1       2.486  -0.849  -0.763  0.00  0.00    +0.000 A 
ATOM      3  C   UNL     1       1.202  -0.622  -0.506  0.00  0.00    +0.000 A 
ATOM      4  C   UNL     1       0.912   0.181   0.574  0.00  0.00    +0.000 A 
ATOM      5  S   UNL     1       2.499   0.547   1.134  0.00  0.00    +0.000 S 
ATOM      6  N   UNL     1      -0.435   0.496   0.946  0.00  0.00    +0.000 NA
ATOM      7  C   UNL     1      -1.408   0.739  -0.268  0.00  0.00    +0.000 C 
ATOM      8  N   UNL     1      -1.302  -0.752  -0.738  0.00  0.00    +0.000 NA
ATOM      9  C   UNL     1      -0.017  -1.119  -1.206  0.00  0.00    +0.000 C 
ATOM     10  O   UNL     1       0.120  -1.871  -2.223  0.00  0.00    +0.000 OA
ENDROOT
BRANCH   7  11
ATOM     11  C   UNL     1      -2.744   0.634   0.506  0.00  0.00    +0.000 A 
ATOM     12  C   UNL     1      -3.814  -0.087   0.114  0.00  0.00    +0.000 A 
ATOM     13  C   UNL     1      -4.982  -0.133   0.846  0.00  0.00    +0.000 A 
ATOM     14  C   UNL     1      -5.061   0.573   2.006  0.00  0.00    +0.000 A 
ATOM     15  C   UNL     1      -3.999   1.318   2.442  0.00  0.00    +0.000 A 
ATOM     16  C   UNL     1      -2.812   1.343   1.665  0.00  0.00    +0.000 A 
ENDBRANCH   7  11
BRANCH   1  18
ATOM     17  C   UNL     1       5.567   0.881   0.411  0.00  0.00    +0.000 C 
ATOM     18  C   UNL     1       4.949  -0.430  -0.096  0.00  0.00    +0.000 C 
ATOM     19  C   UNL     1       5.391  -0.537  -1.544  0.00  0.00    +0.000 C 
ENDBRANCH   1  18
TORSDOF 2
