REMARK  Name = 
REMARK  3 active torsions:
REMARK  status: ('A' for Active; 'I' for Inactive)
REMARK    1  A    between atoms: N_7  and  C_8
REMARK    2  A    between atoms: C_8  and  C_9
REMARK    3  A    between atoms: C_12  and  C_13
REMARK                            x       y       z     vdW  Elec       q    Type
REMARK                         _______ _______ _______ _____ _____    ______ ____
ROOT
ATOM      1  C   UNL     1       0.880  -0.818   0.227  0.00  0.00    +0.000 A 
ATOM      2  C   UNL     1       0.025  -0.950   1.301  0.00  0.00    +0.000 A 
ATOM      3  C   UNL     1      -1.308  -0.564   1.223  0.00  0.00    +0.000 A 
ATOM      4  C   UNL     1      -1.823  -0.033   0.059  0.00  0.00    +0.000 A 
ATOM      5  C   UNL     1      -0.966   0.097  -1.011  0.00  0.00    +0.000 A 
ATOM      6  C   UNL     1       0.375  -0.291  -0.933  0.00  0.00    +0.000 A 
ENDROOT
BRANCH   4   7
ATOM      7  C   UNL     1      -3.225   0.381  -0.051  0.00  0.00    +0.000 A 
ATOM      8  C   UNL     1      -3.904   0.305  -1.251  0.00  0.00    +0.000 A 
ATOM      9  C   UNL     1      -5.217   0.682  -1.397  0.00  0.00    +0.000 A 
ATOM     10  C   UNL     1      -5.898   1.160  -0.304  0.00  0.00    +0.000 A 
ATOM     11  C   UNL     1      -5.233   1.246   0.917  0.00  0.00    +0.000 A 
ATOM     12  C   UNL     1      -3.916   0.860   1.033  0.00  0.00    +0.000 A 
ENDBRANCH   4   7
BRANCH   1  13
ATOM     13  C   UNL     1       2.275  -1.258   0.417  0.00  0.00    +0.000 C 
BRANCH  13  20
ATOM     14  O   UNL     1       2.740   1.497  -0.084  0.00  0.00    +0.000 OA
ATOM     15  S   UNL     1       3.730   0.555  -0.647  0.00  0.00    +0.000 S 
ATOM     16  O   UNL     1       4.360   1.010  -1.912  0.00  0.00    +0.000 OA
ATOM     17  N   UNL     1       5.005   0.202   0.499  0.00  0.00    +0.000 NA
ATOM     18  C   UNL     1       4.720  -1.206   0.787  0.00  0.00    +0.000 C 
ATOM     19  C   UNL     1       4.309  -1.817  -0.549  0.00  0.00    +0.000 C 
ATOM     20  N   UNL     1       3.070  -1.058  -0.800  0.00  0.00    +0.000 NA
ENDBRANCH  13  20
ENDBRANCH   1  13
TORSDOF 3
