REMARK  Name = 
REMARK  3 active torsions:
REMARK  status: ('A' for Active; 'I' for Inactive)
REMARK    1  A    between atoms: C_5  and  C_6
REMARK    2  A    between atoms: C_6  and  C_8
REMARK    3  A    between atoms: N_11  and  C_12
REMARK                            x       y       z     vdW  Elec       q    Type
REMARK                         _______ _______ _______ _____ _____    ______ ____
ROOT
ATOM      1  C   UNL     1       0.105   0.444  -0.240  0.00  0.00    +0.000 A 
ATOM      2  S   UNL     1      -1.714  -0.371   0.251  0.00  0.00    +0.000 S 
ATOM      3  C   UNL     1      -2.641   0.549  -0.760  0.00  0.00    +0.000 A 
ATOM      4  N   UNL     1      -4.086   0.560  -1.000  0.00  0.00    +0.000 NA
ATOM      5  N   UNL     1      -1.790   1.303  -1.340  0.00  0.00    +0.000 NA
ATOM      6  C   UNL     1      -0.577   1.154  -1.014  0.00  0.00    +0.000 A 
ATOM      7  N   UNL     1       0.349   2.152  -1.810  0.00  0.00    +0.000 NA
ENDROOT
BRANCH   4   8
ATOM      8  C   UNL     1      -4.853  -0.366  -0.182  0.00  0.00    +0.000 C 
ATOM      9  C   UNL     1      -4.940   0.194   1.231  0.00  0.00    +0.000 C 
ATOM     10  C   UNL     1      -6.226  -0.522  -0.755  0.00  0.00    +0.000 C 
ATOM     11  C   UNL     1      -4.160  -1.709  -0.073  0.00  0.00    +0.000 C 
ENDBRANCH   4   8
BRANCH   1  12
ATOM     12  C   UNL     1       0.900  -0.382   0.660  0.00  0.00    +0.000 C 
ATOM     13  O   UNL     1       0.536  -1.224   1.449  0.00  0.00    +0.000 OA
BRANCH  12  18
ATOM     14  C   UNL     1       6.581   0.568   0.373  0.00  0.00    +0.000 C 
ATOM     15  C   UNL     1       5.118   0.318   0.452  0.00  0.00    +0.000 A 
ATOM     16  C   UNL     1       4.236   1.253  -0.016  0.00  0.00    +0.000 A 
ATOM     17  C   UNL     1       2.873   0.981   0.075  0.00  0.00    +0.000 A 
ATOM     18  C   UNL     1       2.393  -0.173   0.611  0.00  0.00    +0.000 A 
ATOM     19  C   UNL     1       3.259  -1.116   1.084  0.00  0.00    +0.000 A 
ATOM     20  C   UNL     1       4.637  -0.876   1.006  0.00  0.00    +0.000 A 
ENDBRANCH  12  18
ENDBRANCH   1  12
TORSDOF 3
