REMARK  Name = 
REMARK  4 active torsions:
REMARK  status: ('A' for Active; 'I' for Inactive)
REMARK    1  A    between atoms: C_5  and  N_6
REMARK    2  A    between atoms: C_7  and  C_9
REMARK    3  A    between atoms: C_9  and  C_10
REMARK    4  A    between atoms: C_13  and  N_14
REMARK                            x       y       z     vdW  Elec       q    Type
REMARK                         _______ _______ _______ _____ _____    ______ ____
ROOT
ATOM      1  N   UNL     1      -1.700   0.832  -0.951  0.00  0.00    +0.000 NA
ATOM      2  C   UNL     1      -0.638   1.296  -0.131  0.00  0.00    +0.000 C 
ATOM      3  O   UNL     1      -0.733   1.006   1.103  0.00  0.00    +0.000 OA
ENDROOT
BRANCH   1   8
ATOM      4  C   UNL     1      -5.945  -2.018   1.478  0.00  0.00    +0.000 C 
ATOM      5  C   UNL     1      -4.860  -1.285   0.775  0.00  0.00    +0.000 A 
ATOM      6  C   UNL     1      -3.856  -0.754   1.565  0.00  0.00    +0.000 A 
ATOM      7  C   UNL     1      -2.838  -0.070   0.952  0.00  0.00    +0.000 A 
ATOM      8  C   UNL     1      -2.801   0.096  -0.440  0.00  0.00    +0.000 A 
ATOM      9  C   UNL     1      -3.803  -0.438  -1.197  0.00  0.00    +0.000 A 
ATOM     10  C   UNL     1      -3.722  -0.242  -2.678  0.00  0.00    +0.000 C 
ATOM     11  C   UNL     1      -4.842  -1.132  -0.616  0.00  0.00    +0.000 A 
ENDBRANCH   1   8
BRANCH   2  12
ATOM     12  C   UNL     1       0.535   2.057  -0.564  0.00  0.00    +0.000 C 
BRANCH  12  13
ATOM     13  C   UNL     1       1.798   1.324  -0.471  0.00  0.00    +0.000 A 
ATOM     14  C   UNL     1       2.449   0.714  -1.525  0.00  0.00    +0.000 A 
ATOM     15  C   UNL     1       3.640   0.011  -1.304  0.00  0.00    +0.000 A 
ATOM     16  C   UNL     1       4.178  -0.081  -0.027  0.00  0.00    +0.000 A 
ATOM     17  C   UNL     1       3.525   0.528   1.012  0.00  0.00    +0.000 A 
ATOM     18  C   UNL     1       2.372   1.204   0.774  0.00  0.00    +0.000 A 
BRANCH  16  19
ATOM     19  N   UNL     1       5.387  -0.805   0.213  0.00  0.00    +0.000 N 
ATOM     20  O   UNL     1       5.963  -1.347  -0.774  0.00  0.00    +0.000 OA
ATOM     21  O   UNL     1       5.889  -0.897   1.472  0.00  0.00    +0.000 OA
ENDBRANCH  16  19
ENDBRANCH  12  13
ENDBRANCH   2  12
TORSDOF 4
