REMARK  Name = 
REMARK  6 active torsions:
REMARK  status: ('A' for Active; 'I' for Inactive)
REMARK    1  A    between atoms: O_2  and  C_3
REMARK    2  A    between atoms: C_3  and  C_5
REMARK    3  A    between atoms: C_8  and  N_9
REMARK    4  A    between atoms: N_9  and  C_10
REMARK    5  A    between atoms: C_10  and  N_12
REMARK    6  A    between atoms: C_13  and  C_15
REMARK                            x       y       z     vdW  Elec       q    Type
REMARK                         _______ _______ _______ _____ _____    ______ ____
ROOT
ATOM      1  C   UNL     1      -3.445   0.021  -0.046  0.00  0.00    +0.000 A 
ATOM      2  C   UNL     1      -2.597   1.092  -0.188  0.00  0.00    +0.000 A 
ATOM      3  C   UNL     1      -1.256   0.871  -0.211  0.00  0.00    +0.000 A 
ATOM      4  C   UNL     1      -0.682  -0.399  -0.096  0.00  0.00    +0.000 A 
ATOM      5  C   UNL     1      -1.568  -1.448   0.045  0.00  0.00    +0.000 A 
ATOM      6  C   UNL     1      -2.931  -1.237   0.070  0.00  0.00    +0.000 A 
ENDROOT
BRANCH   1   7
ATOM      7  C   UNL     1      -4.883   0.272  -0.023  0.00  0.00    +0.000 C 
ATOM      8  O   UNL     1      -5.356   1.411  -0.128  0.00  0.00    +0.000 OA
BRANCH   7  10
ATOM      9  C   UNL     1      -7.185  -0.588   0.147  0.00  0.00    +0.000 C 
ATOM     10  O   UNL     1      -5.770  -0.810   0.122  0.00  0.00    +0.000 OA
ENDBRANCH   7  10
ENDBRANCH   1   7
BRANCH   4  11
ATOM     11  N   UNL     1       0.717  -0.586  -0.124  0.00  0.00    +0.000 NA
BRANCH  11  12
ATOM     12  C   UNL     1       1.549   0.554  -0.273  0.00  0.00    +0.000 C 
ATOM     13  S   UNL     1       0.910   2.070  -0.412  0.00  0.00    +0.000 S 
BRANCH  12  14
ATOM     14  N   UNL     1       2.971   0.477  -0.314  0.00  0.00    +0.000 NA
ATOM     15  C   UNL     1       3.709  -0.709  -0.213  0.00  0.00    +0.000 C 
ATOM     16  O   UNL     1       3.084  -1.792  -0.077  0.00  0.00    +0.000 OA
BRANCH  15  17
ATOM     17  C   UNL     1       5.204  -0.758  -0.259  0.00  0.00    +0.000 C 
ATOM     18  C   UNL     1       5.845   0.048   0.854  0.00  0.00    +0.000 C 
ATOM     19  C   UNL     1       5.903   1.233  -0.060  0.00  0.00    +0.000 C 
ATOM     20  C   UNL     1       5.779   0.279  -1.233  0.00  0.00    +0.000 C 
ENDBRANCH  15  17
ENDBRANCH  12  14
ENDBRANCH  11  12
ENDBRANCH   4  11
TORSDOF 6
