REMARK  Name = 
REMARK  3 active torsions:
REMARK  status: ('A' for Active; 'I' for Inactive)
REMARK    1  A    between atoms: C_7  and  C_8
REMARK    2  A    between atoms: N_9  and  N_10
REMARK    3  A    between atoms: C_11  and  C_13
REMARK                            x       y       z     vdW  Elec       q    Type
REMARK                         _______ _______ _______ _____ _____    ______ ____
ROOT
ATOM      1  C   UNL     1      -1.266   0.128   0.821  0.00  0.00    +0.000 C 
ATOM      2  N   UNL     1      -0.296   0.594   0.159  0.00  0.00    +0.000 NA
ENDROOT
BRANCH   1   9
ATOM      3  C   UNL     1      -5.713  -1.720   1.167  0.00  0.00    +0.000 C 
ATOM      4  C   UNL     1      -4.758  -0.686   0.550  0.00  0.00    +0.000 C 
ATOM      5  C   UNL     1      -4.273  -0.934  -0.758  0.00  0.00    +0.000 C 
ATOM      6  C   UNL     1      -5.497   0.720   0.789  0.00  0.00    +0.000 C 
ATOM      7  C   UNL     1      -4.626   1.580  -0.319  0.00  0.00    +0.000 C 
ATOM      8  C   UNL     1      -3.234   1.247  -0.147  0.00  0.00    +0.000 C 
ATOM      9  C   UNL     1      -2.653   0.452   0.659  0.00  0.00    +0.000 C 
ATOM     10  C   UNL     1      -3.655  -0.323   1.670  0.00  0.00    +0.000 C 
ATOM     11  C   UNL     1      -4.497   1.045   2.017  0.00  0.00    +0.000 C 
ENDBRANCH   1   9
BRANCH   2  12
ATOM     12  N   UNL     1       1.050   0.233   0.368  0.00  0.00    +0.000 NA
ATOM     13  C   UNL     1       1.997   0.355  -0.682  0.00  0.00    +0.000 C 
ATOM     14  O   UNL     1       1.630   0.782  -1.788  0.00  0.00    +0.000 OA
BRANCH  13  15
ATOM     15  C   UNL     1       3.388  -0.026  -0.441  0.00  0.00    +0.000 A 
ATOM     16  C   UNL     1       3.812  -0.502   0.782  0.00  0.00    +0.000 A 
ATOM     17  C   UNL     1       5.125  -0.865   1.022  0.00  0.00    +0.000 A 
ATOM     18  C   UNL     1       6.071  -0.759   0.021  0.00  0.00    +0.000 A 
ATOM     19  O   UNL     1       7.402  -1.113   0.218  0.00  0.00    +0.000 OA
ATOM     20  C   UNL     1       5.659  -0.284  -1.205  0.00  0.00    +0.000 A 
ATOM     21  C   UNL     1       4.335   0.079  -1.438  0.00  0.00    +0.000 A 
ENDBRANCH  13  15
ENDBRANCH   2  12
TORSDOF 3
