REMARK  Name = 
REMARK  2 active torsions:
REMARK  status: ('A' for Active; 'I' for Inactive)
REMARK    1  A    between atoms: C_2  and  N_3
REMARK    2  A    between atoms: N_3  and  N_4
REMARK                            x       y       z     vdW  Elec       q    Type
REMARK                         _______ _______ _______ _____ _____    ______ ____
ROOT
ATOM      1  N   UNL     1       0.492  -1.213   0.341  0.00  0.00    +0.000 NA
ATOM      2  C   UNL     1      -0.909  -0.885   0.222  0.00  0.00    +0.000 A 
ATOM      3  N   UNL     1      -1.522   0.245   0.536  0.00  0.00    +0.000 NA
ATOM      4  C   UNL     1      -2.801   0.365   0.360  0.00  0.00    +0.000 A 
ATOM      5  C   UNL     1      -3.577   1.510   0.651  0.00  0.00    +0.000 A 
ATOM      6  C   UNL     1      -4.907   1.495   0.416  0.00  0.00    +0.000 A 
ATOM      7  C   UNL     1      -5.621   0.436  -0.100  0.00  0.00    +0.000 A 
ATOM      8  C   UNL     1      -4.861  -0.696  -0.389  0.00  0.00    +0.000 A 
ATOM      9  C   UNL     1      -3.477  -0.711  -0.156  0.00  0.00    +0.000 A 
ATOM     10  S   UNL     1      -2.203  -1.839  -0.355  0.00  0.00    +0.000 S 
ENDROOT
BRANCH   1  11
ATOM     11  N   UNL     1       1.423  -0.332   0.829  0.00  0.00    +0.000 NA
BRANCH  11  13
ATOM     12  C   UNL     1       3.692   0.059   1.098  0.00  0.00    +0.000 C 
ATOM     13  C   UNL     1       2.732  -0.338   0.272  0.00  0.00    +0.000 C 
ATOM     14  C   UNL     1       2.916  -0.768  -1.130  0.00  0.00    +0.000 C 
ATOM     15  C   UNL     1       3.746   0.216  -1.923  0.00  0.00    +0.000 C 
ATOM     16  C   UNL     1       4.231   1.350  -1.048  0.00  0.00    +0.000 C 
ATOM     17  C   UNL     1       5.505   0.914  -0.364  0.00  0.00    +0.000 C 
ATOM     18  C   UNL     1       5.140   0.192   0.910  0.00  0.00    +0.000 C 
ENDBRANCH  11  13
ENDBRANCH   1  11
TORSDOF 2
