REMARK  Name = 
REMARK  5 active torsions:
REMARK  status: ('A' for Active; 'I' for Inactive)
REMARK    1  A    between atoms: C_2  and  C_3
REMARK    2  A    between atoms: N_7  and  C_8
REMARK    3  A    between atoms: C_8  and  N_10
REMARK    4  A    between atoms: N_10  and  C_11
REMARK    5  A    between atoms: C_11  and  C_12
REMARK                            x       y       z     vdW  Elec       q    Type
REMARK                         _______ _______ _______ _____ _____    ______ ____
ROOT
ATOM      1  C   UNL     1      -0.707  -1.399   1.030  0.00  0.00    +0.000 C 
ATOM      2  S   UNL     1      -1.251  -2.473   2.116  0.00  0.00    +0.000 S 
ENDROOT
BRANCH   1   7
ATOM      3  C   UNL     1      -3.792   0.173   0.616  0.00  0.00    +0.000 C 
ATOM      4  C   UNL     1      -2.752   1.371   0.297  0.00  0.00    +0.000 C 
ATOM      5  C   UNL     1      -2.144   1.152  -1.031  0.00  0.00    +0.000 C 
ATOM      6  C   UNL     1      -0.998   0.144  -0.849  0.00  0.00    +0.000 C 
ATOM      7  N   UNL     1      -1.570  -0.826   0.108  0.00  0.00    +0.000 N 
ATOM      8  C   UNL     1      -2.958  -1.032  -0.064  0.00  0.00    +0.000 C 
BRANCH   3  10
ATOM      9  O   UNL     1      -5.134   1.765  -0.569  0.00  0.00    +0.000 OA
ATOM     10  C   UNL     1      -4.691   0.454  -0.731  0.00  0.00    +0.000 C 
ENDBRANCH   3  10
ENDBRANCH   1   7
BRANCH   1  11
ATOM     11  N   UNL     1       0.667  -1.092   1.082  0.00  0.00    +0.000 NA
BRANCH  11  12
ATOM     12  C   UNL     1       1.206  -0.149   0.146  0.00  0.00    +0.000 C 
BRANCH  12  13
ATOM     13  C   UNL     1       2.639   0.098   0.284  0.00  0.00    +0.000 A 
ATOM     14  C   UNL     1       3.546  -0.659  -0.404  0.00  0.00    +0.000 A 
ATOM     15  C   UNL     1       4.921  -0.476  -0.317  0.00  0.00    +0.000 A 
ATOM     16  C   UNL     1       5.378   0.531   0.513  0.00  0.00    +0.000 A 
ATOM     17  C   UNL     1       4.507   1.323   1.228  0.00  0.00    +0.000 A 
ATOM     18  C   UNL     1       3.133   1.094   1.103  0.00  0.00    +0.000 A 
ENDBRANCH  12  13
ENDBRANCH  11  12
ENDBRANCH   1  11
TORSDOF 5
