REMARK  Name = 
REMARK  2 active torsions:
REMARK  status: ('A' for Active; 'I' for Inactive)
REMARK    1  A    between atoms: C_2  and  C_3
REMARK    2  A    between atoms: C_3  and  N_4
REMARK                            x       y       z     vdW  Elec       q    Type
REMARK                         _______ _______ _______ _____ _____    ______ ____
ROOT
ATOM      1  N   UNL     1       2.855   0.535   0.384  0.00  0.00    +0.000 N 
ATOM      2  C   UNL     1       2.325  -0.722   0.601  0.00  0.00    +0.000 C 
ATOM      3  O   UNL     1       2.705  -1.621   1.411  0.00  0.00    +0.000 OA
ATOM      4  C   UNL     1       1.101  -0.966  -0.324  0.00  0.00    +0.000 C 
ATOM      5  C   UNL     1      -0.015  -0.543   0.824  0.00  0.00    +0.000 C 
ATOM      6  C   UNL     1      -1.249  -0.302   0.044  0.00  0.00    +0.000 A 
ATOM      7  C   UNL     1      -1.289   0.167  -1.229  0.00  0.00    +0.000 A 
ATOM      8  N   UNL     1      -2.573   0.259  -1.612  0.00  0.00    +0.000 NA
ATOM      9  C   UNL     1      -3.398  -0.144  -0.608  0.00  0.00    +0.000 A 
ATOM     10  C   UNL     1      -4.780  -0.239  -0.497  0.00  0.00    +0.000 A 
ATOM     11  C   UNL     1      -5.331  -0.696   0.680  0.00  0.00    +0.000 A 
ATOM     12  C   UNL     1      -4.527  -1.057   1.738  0.00  0.00    +0.000 A 
ATOM     13  C   UNL     1      -3.162  -0.951   1.595  0.00  0.00    +0.000 A 
ATOM     14  C   UNL     1      -2.560  -0.495   0.428  0.00  0.00    +0.000 A 
ATOM     15  C   UNL     1      -0.037   0.487  -1.961  0.00  0.00    +0.000 C 
ATOM     16  N   UNL     1       1.050   0.381  -1.030  0.00  0.00    +0.000 N 
ATOM     17  C   UNL     1       2.077   1.190  -0.601  0.00  0.00    +0.000 C 
ATOM     18  S   UNL     1       2.346   2.717  -1.175  0.00  0.00    +0.000 S 
ENDROOT
BRANCH   1  19
ATOM     19  C   UNL     1       4.025   1.127   1.043  0.00  0.00    +0.000 C 
BRANCH  19  21
ATOM     20  C   UNL     1       5.203   0.077  -0.862  0.00  0.00    +0.000 C 
ATOM     21  C   UNL     1       5.234   0.795   0.252  0.00  0.00    +0.000 C 
ENDBRANCH  19  21
ENDBRANCH   1  19
TORSDOF 2
