REMARK  Name = 
REMARK  1 active torsions:
REMARK  status: ('A' for Active; 'I' for Inactive)
REMARK    1  A    between atoms: C_7  and  C_8
REMARK                            x       y       z     vdW  Elec       q    Type
REMARK                         _______ _______ _______ _____ _____    ______ ____
ROOT
ATOM      1  C   UNL     1      -3.020   3.485  -0.167  0.00  0.00    +0.000 C 
ATOM      2  N   UNL     1      -1.730   2.834  -0.147  0.00  0.00    +0.000 N 
ATOM      3  N   UNL     1      -0.523   3.409  -0.199  0.00  0.00    +0.000 NA
ATOM      4  C   UNL     1       0.423   2.484  -0.155  0.00  0.00    +0.000 A 
ATOM      5  O   UNL     1       1.820   2.580  -0.181  0.00  0.00    +0.000 OA
ATOM      6  C   UNL     1      -0.238   1.281  -0.073  0.00  0.00    +0.000 A 
ATOM      7  C   UNL     1       0.222  -0.040   0.011  0.00  0.00    +0.000 A 
ATOM      8  C   UNL     1      -0.713  -1.078   0.093  0.00  0.00    +0.000 A 
ATOM      9  C   UNL     1      -0.492  -2.438   0.177  0.00  0.00    +0.000 A 
ATOM     10  O   UNL     1       0.768  -3.042   0.198  0.00  0.00    +0.000 OA
ATOM     11  N   UNL     1      -1.720  -2.971   0.231  0.00  0.00    +0.000 NA
ATOM     12  N   UNL     1      -2.649  -2.035   0.182  0.00  0.00    +0.000 N 
ATOM     13  C   UNL     1      -4.112  -2.232   0.213  0.00  0.00    +0.000 C 
ATOM     14  C   UNL     1      -2.068  -0.831   0.096  0.00  0.00    +0.000 A 
ATOM     15  N   UNL     1      -2.475   0.448   0.015  0.00  0.00    +0.000 NA
ATOM     16  C   UNL     1      -1.606   1.477  -0.066  0.00  0.00    +0.000 A 
ENDROOT
BRANCH   7  17
ATOM     17  C   UNL     1       1.645  -0.280   0.008  0.00  0.00    +0.000 A 
ATOM     18  C   UNL     1       2.480   0.085   1.021  0.00  0.00    +0.000 A 
ATOM     19  C   UNL     1       3.827  -0.174   1.001  0.00  0.00    +0.000 A 
ATOM     20  C   UNL     1       4.369  -0.824  -0.081  0.00  0.00    +0.000 A 
ATOM     21  C   UNL     1       3.569  -1.208  -1.121  0.00  0.00    +0.000 A 
ATOM     22  C   UNL     1       2.223  -0.929  -1.056  0.00  0.00    +0.000 A 
ENDBRANCH   7  17
TORSDOF 1
