REMARK  Name = 
REMARK  1 active torsions:
REMARK  status: ('A' for Active; 'I' for Inactive)
REMARK    1  A    between atoms: C_2  and  C_3
REMARK                            x       y       z     vdW  Elec       q    Type
REMARK                         _______ _______ _______ _____ _____    ______ ____
ROOT
ATOM      1  C   UNL     1      -0.006   1.421  -0.105  0.00  0.00    +0.000 C 
ATOM      2  N   UNL     1       1.391   1.392   0.686  0.00  0.00    +0.000 NA
ATOM      3  C   UNL     1       2.322   0.402   0.298  0.00  0.00    +0.000 A 
ATOM      4  C   UNL     1       3.614   0.852   0.122  0.00  0.00    +0.000 A 
ATOM      5  C   UNL     1       4.611  -0.016  -0.245  0.00  0.00    +0.000 A 
ATOM      6  C   UNL     1       4.354  -1.357  -0.449  0.00  0.00    +0.000 A 
ATOM      7  C   UNL     1       3.082  -1.835  -0.282  0.00  0.00    +0.000 A 
ATOM      8  C   UNL     1       2.089  -0.932   0.091  0.00  0.00    +0.000 A 
ATOM      9  N   UNL     1       0.789  -1.583   0.224  0.00  0.00    +0.000 NA
ATOM     10  C   UNL     1      -0.470  -0.916   0.272  0.00  0.00    +0.000 C 
ATOM     11  C   UNL     1      -1.350  -1.487  -0.404  0.00  0.00    +0.000 C 
ATOM     12  C   UNL     1      -2.759  -1.242  -0.699  0.00  0.00    +0.000 C 
ATOM     13  C   UNL     1      -3.719  -1.818   0.319  0.00  0.00    +0.000 C 
ATOM     14  C   UNL     1      -3.036  -1.655  -2.104  0.00  0.00    +0.000 C 
ATOM     15  C   UNL     1      -2.872   0.287  -0.557  0.00  0.00    +0.000 C 
ATOM     16  C   UNL     1      -2.208   0.700   0.679  0.00  0.00    +0.000 C 
ATOM     17  O   UNL     1      -2.887   1.346   1.495  0.00  0.00    +0.000 OA
ATOM     18  C   UNL     1      -0.745   0.398   1.060  0.00  0.00    +0.000 C 
ENDROOT
BRANCH   1  20
ATOM     19  C   UNL     1      -1.762   3.237   0.104  0.00  0.00    +0.000 C 
ATOM     20  C   UNL     1      -0.435   2.805   0.632  0.00  0.00    +0.000 C 
ENDBRANCH   1  20
TORSDOF 1
