REMARK  Name = 
REMARK  4 active torsions:
REMARK  status: ('A' for Active; 'I' for Inactive)
REMARK    1  A    between atoms: C_4  and  O_5
REMARK    2  A    between atoms: O_5  and  C_6
REMARK    3  A    between atoms: C_6  and  N_7
REMARK    4  A    between atoms: C_16  and  C_17
REMARK                            x       y       z     vdW  Elec       q    Type
REMARK                         _______ _______ _______ _____ _____    ______ ____
ROOT
ATOM      1  C   UNL     1      -3.840  -1.607   0.827  0.00  0.00    +0.000 C 
ATOM      2  C   UNL     1      -2.609  -0.967   0.265  0.00  0.00    +0.000 A 
ATOM      3  C   UNL     1      -1.536  -1.717  -0.179  0.00  0.00    +0.000 A 
ATOM      4  C   UNL     1      -0.408  -1.121  -0.694  0.00  0.00    +0.000 A 
ATOM      5  C   UNL     1      -0.406   0.258  -0.743  0.00  0.00    +0.000 A 
ATOM      6  C   UNL     1      -1.465   1.025  -0.305  0.00  0.00    +0.000 A 
ATOM      7  C   UNL     1      -2.585   0.420   0.206  0.00  0.00    +0.000 A 
ENDROOT
BRANCH   7   8
ATOM      8  C   UNL     1      -3.775   1.196   0.700  0.00  0.00    +0.000 C 
ATOM      9  C   UNL     1      -3.446   2.655   0.495  0.00  0.00    +0.000 C 
ATOM     10  C   UNL     1      -4.922   0.851  -0.245  0.00  0.00    +0.000 C 
ENDBRANCH   7   8
BRANCH   4  11
ATOM     11  O   UNL     1       0.676  -1.851  -1.143  0.00  0.00    +0.000 OA
BRANCH  11  12
ATOM     12  C   UNL     1       1.819  -1.233  -1.666  0.00  0.00    +0.000 C 
BRANCH  12  13
ATOM     13  N   UNL     1       2.483  -0.344  -0.735  0.00  0.00    +0.000 N 
ATOM     14  N   UNL     1       2.303   0.949  -0.520  0.00  0.00    +0.000 NA
ATOM     15  C   UNL     1       3.123   1.400   0.434  0.00  0.00    +0.000 A 
ATOM     16  N   UNL     1       3.265   2.704   0.972  0.00  0.00    +0.000 NA
ATOM     17  C   UNL     1       3.862   0.316   0.841  0.00  0.00    +0.000 A 
ATOM     18  C   UNL     1       3.457  -0.779   0.103  0.00  0.00    +0.000 A 
ATOM     19  C   UNL     1       4.006  -2.155   0.231  0.00  0.00    +0.000 C 
ENDBRANCH  12  13
ENDBRANCH  11  12
ENDBRANCH   4  11
TORSDOF 4
