REMARK  Name = 
REMARK  3 active torsions:
REMARK  status: ('A' for Active; 'I' for Inactive)
REMARK    1  A    between atoms: C_5  and  C_6
REMARK    2  A    between atoms: N_8  and  C_9
REMARK    3  A    between atoms: C_15  and  C_16
REMARK                            x       y       z     vdW  Elec       q    Type
REMARK                         _______ _______ _______ _____ _____    ______ ____
ROOT
ATOM      1  C   UNL     1       0.033   0.017   0.012  0.00  0.00    +0.000 A 
ATOM      2  N   UNL     1      -0.928   0.810   0.510  0.00  0.00    +0.000 NA
ATOM      3  N   UNL     1      -2.131   0.421   0.127  0.00  0.00    +0.000 N 
ATOM      4  C   UNL     1      -1.950  -0.662  -0.647  0.00  0.00    +0.000 A 
ATOM      5  N   UNL     1      -3.011  -1.380  -1.259  0.00  0.00    +0.000 NA
ATOM      6  C   UNL     1      -0.606  -0.947  -0.744  0.00  0.00    +0.000 A 
ENDROOT
BRANCH   1  11
ATOM      7  C   UNL     1       5.747   0.429   0.686  0.00  0.00    +0.000 C 
ATOM      8  C   UNL     1       4.274   0.328   0.543  0.00  0.00    +0.000 A 
ATOM      9  C   UNL     1       3.415   0.459   1.606  0.00  0.00    +0.000 A 
ATOM     10  C   UNL     1       2.046   0.359   1.437  0.00  0.00    +0.000 A 
ATOM     11  C   UNL     1       1.491   0.127   0.212  0.00  0.00    +0.000 A 
ATOM     12  C   UNL     1       2.345  -0.010  -0.885  0.00  0.00    +0.000 A 
ATOM     13  C   UNL     1       3.708   0.093  -0.697  0.00  0.00    +0.000 A 
ENDBRANCH   1  11
BRANCH   3  14
ATOM     14  C   UNL     1      -3.420   1.041   0.472  0.00  0.00    +0.000 C 
ATOM     15  C   UNL     1      -3.265   1.825   1.739  0.00  0.00    +0.000 C 
ATOM     16  C   UNL     1      -4.471  -0.014   0.602  0.00  0.00    +0.000 C 
ATOM     17  C   UNL     1      -3.841   2.005  -0.638  0.00  0.00    +0.000 C 
ENDBRANCH   3  14
BRANCH   6  18
ATOM     18  C   UNL     1       0.034  -2.016  -1.471  0.00  0.00    +0.000 C 
ATOM     19  N   UNL     1       0.532  -2.886  -2.055  0.00  0.00    +0.000 NA
ENDBRANCH   6  18
TORSDOF 3
