REMARK  Name = 
REMARK  3 active torsions:
REMARK  status: ('A' for Active; 'I' for Inactive)
REMARK    1  A    between atoms: O_2  and  C_3
REMARK    2  A    between atoms: C_3  and  C_4
REMARK    3  A    between atoms: C_6  and  C_7
REMARK                            x       y       z     vdW  Elec       q    Type
REMARK                         _______ _______ _______ _____ _____    ______ ____
ROOT
ATOM      1  C   UNL     1      -0.887   0.136   0.340  0.00  0.00    +0.000 A 
ATOM      2  C   UNL     1       0.304  -0.162  -0.272  0.00  0.00    +0.000 A 
ATOM      3  C   UNL     1       1.456   0.215   0.367  0.00  0.00    +0.000 A 
ATOM      4  N   UNL     1       1.379   0.844   1.539  0.00  0.00    +0.000 NA
ATOM      5  C   UNL     1       0.201   1.155   2.166  0.00  0.00    +0.000 A 
ATOM      6  N   UNL     1       0.204   1.830   3.414  0.00  0.00    +0.000 NA
ATOM      7  N   UNL     1      -0.914   0.772   1.517  0.00  0.00    +0.000 NA
ENDROOT
BRANCH   1   8
ATOM      8  C   UNL     1      -2.243  -0.188  -0.207  0.00  0.00    +0.000 C 
ATOM      9  C   UNL     1      -3.142   0.993   0.114  0.00  0.00    +0.000 C 
ATOM     10  C   UNL     1      -4.572   0.591  -0.130  0.00  0.00    +0.000 C 
ATOM     11  C   UNL     1      -4.631  -0.573  -1.068  0.00  0.00    +0.000 C 
ATOM     12  C   UNL     1      -3.631  -0.455  -2.205  0.00  0.00    +0.000 C 
ATOM     13  C   UNL     1      -2.209  -0.354  -1.716  0.00  0.00    +0.000 C 
BRANCH   8  15
ATOM     14  C   UNL     1      -2.862  -1.141   1.746  0.00  0.00    +0.000 C 
ATOM     15  O   UNL     1      -2.769  -1.339   0.368  0.00  0.00    +0.000 OA
ENDBRANCH   8  15
ENDBRANCH   1   8
BRANCH   3  16
ATOM     16  C   UNL     1       2.788  -0.087  -0.191  0.00  0.00    +0.000 A 
ATOM     17  C   UNL     1       3.917   0.347   0.448  0.00  0.00    +0.000 A 
ATOM     18  C   UNL     1       5.193   0.064  -0.005  0.00  0.00    +0.000 A 
ATOM     19  C   UNL     1       5.302  -0.690  -1.149  0.00  0.00    +0.000 A 
ATOM     20  C   UNL     1       4.189  -1.126  -1.785  0.00  0.00    +0.000 A 
ATOM     21  C   UNL     1       2.927  -0.831  -1.317  0.00  0.00    +0.000 A 
ENDBRANCH   3  16
TORSDOF 3
