REMARK  Name = 
REMARK  3 active torsions:
REMARK  status: ('A' for Active; 'I' for Inactive)
REMARK    1  A    between atoms: O_2  and  C_3
REMARK    2  A    between atoms: C_3  and  C_5
REMARK    3  A    between atoms: C_16  and  C_17
REMARK                            x       y       z     vdW  Elec       q    Type
REMARK                         _______ _______ _______ _____ _____    ______ ____
ROOT
ATOM      1  C   UNL     1      -0.928   1.043  -0.420  0.00  0.00    +0.000 C 
ATOM      2  C   UNL     1      -1.402   0.683  -1.518  0.00  0.00    +0.000 C 
ATOM      3  N   UNL     1      -1.882   1.727  -2.414  0.00  0.00    +0.000 NA
ATOM      4  O   UNL     1      -1.475  -0.630  -1.875  0.00  0.00    +0.000 OA
ATOM      5  C   UNL     1      -1.018  -1.589  -1.015  0.00  0.00    +0.000 C 
ATOM      6  C   UNL     1      -0.529  -1.303   0.104  0.00  0.00    +0.000 C 
ATOM      7  C   UNL     1      -0.041  -2.323   1.024  0.00  0.00    +0.000 C 
ATOM      8  O   UNL     1       0.295  -2.044   2.189  0.00  0.00    +0.000 OA
ATOM      9  C   UNL     1       0.064  -3.725   0.583  0.00  0.00    +0.000 C 
ATOM     10  C   UNL     1      -1.191  -3.974  -0.256  0.00  0.00    +0.000 C 
ATOM     11  C   UNL     1      -1.098  -3.050  -1.411  0.00  0.00    +0.000 C 
ATOM     12  C   UNL     1      -0.345   0.132   0.721  0.00  0.00    +0.000 C 
ENDROOT
BRANCH  12  13
ATOM     13  C   UNL     1       1.176   0.318   0.451  0.00  0.00    +0.000 A 
ATOM     14  C   UNL     1       1.974   0.092   1.535  0.00  0.00    +0.000 A 
ATOM     15  C   UNL     1       3.292   0.247   1.326  0.00  0.00    +0.000 A 
ATOM     16  C   UNL     1       3.717   0.602   0.102  0.00  0.00    +0.000 A 
ATOM     17  S   UNL     1       2.214   0.713  -0.749  0.00  0.00    +0.000 S 
ENDBRANCH  12  13
BRANCH   1  18
ATOM     18  C   UNL     1      -0.874   2.488  -0.083  0.00  0.00    +0.000 C 
ATOM     19  O   UNL     1      -1.294   3.333  -0.880  0.00  0.00    +0.000 OA
BRANCH  18  21
ATOM     20  C   UNL     1      -0.296   4.313   1.462  0.00  0.00    +0.000 C 
ATOM     21  O   UNL     1      -0.357   2.950   1.124  0.00  0.00    +0.000 OA
ENDBRANCH  18  21
ENDBRANCH   1  18
TORSDOF 3
