REMARK  Name = 
REMARK  1 active torsions:
REMARK  status: ('A' for Active; 'I' for Inactive)
REMARK    1  A    between atoms: C_4  and  C_5
REMARK                            x       y       z     vdW  Elec       q    Type
REMARK                         _______ _______ _______ _____ _____    ______ ____
ROOT
ATOM      1  O   UNL     1      -1.306   0.549   2.268  0.00  0.00    +0.000 OA
ATOM      2  C   UNL     1      -0.603   0.295   1.272  0.00  0.00    +0.000 C 
ATOM      3  N   UNL     1       0.772   0.124   1.430  0.00  0.00    +0.000 NA
ATOM      4  C   UNL     1       1.381  -1.055   0.522  0.00  0.00    +0.000 C 
ATOM      5  N   UNL     1       1.081  -0.268  -0.836  0.00  0.00    +0.000 NA
ATOM      6  C   UNL     1      -0.336  -0.103  -1.065  0.00  0.00    +0.000 A 
ATOM      7  S   UNL     1      -1.356  -0.165  -2.463  0.00  0.00    +0.000 S 
ATOM      8  C   UNL     1      -2.851   0.164  -1.733  0.00  0.00    +0.000 A 
ATOM      9  C   UNL     1      -2.530   0.316  -0.413  0.00  0.00    +0.000 A 
ATOM     10  C   UNL     1      -1.220   0.175  -0.077  0.00  0.00    +0.000 A 
ATOM     11  C   UNL     1      -3.772   0.624   0.428  0.00  0.00    +0.000 C 
ATOM     12  C   UNL     1      -4.793  -0.432   0.056  0.00  0.00    +0.000 C 
ATOM     13  C   UNL     1      -5.284  -0.178  -1.345  0.00  0.00    +0.000 C 
ATOM     14  C   UNL     1      -4.228   0.283  -2.281  0.00  0.00    +0.000 C 
ENDROOT
BRANCH   4  15
ATOM     15  C   UNL     1       2.917  -0.515   0.620  0.00  0.00    +0.000 A 
ATOM     16  C   UNL     1       3.873  -1.447   0.868  0.00  0.00    +0.000 A 
ATOM     17  C   UNL     1       5.167  -0.973   0.949  0.00  0.00    +0.000 A 
ATOM     18  N   UNL     1       5.449   0.326   0.792  0.00  0.00    +0.000 NA
ATOM     19  C   UNL     1       4.473   1.208   0.550  0.00  0.00    +0.000 A 
ATOM     20  C   UNL     1       3.165   0.783   0.460  0.00  0.00    +0.000 A 
ENDBRANCH   4  15
TORSDOF 1
