REMARK  Name = 
REMARK  2 active torsions:
REMARK  status: ('A' for Active; 'I' for Inactive)
REMARK    1  A    between atoms: C_8  and  C_9
REMARK    2  A    between atoms: C_17  and  C_19
REMARK                            x       y       z     vdW  Elec       q    Type
REMARK                         _______ _______ _______ _____ _____    ______ ____
ROOT
ATOM      1  C   UNL     1       4.397   1.214  -0.759  0.00  0.00    +0.000 C 
ATOM      2  N   UNL     1       2.975   0.814  -0.861  0.00  0.00    +0.000 N 
ATOM      3  C   UNL     1       2.338   0.310  -2.018  0.00  0.00    +0.000 C 
ATOM      4  O   UNL     1       2.894   0.124  -3.148  0.00  0.00    +0.000 OA
ATOM      5  C   UNL     1       0.947   0.045  -1.694  0.00  0.00    +0.000 A 
ATOM      6  C   UNL     1      -0.134  -0.448  -2.426  0.00  0.00    +0.000 A 
ATOM      7  C   UNL     1      -1.390  -0.614  -1.883  0.00  0.00    +0.000 A 
ATOM      8  C   UNL     1      -1.608  -0.283  -0.558  0.00  0.00    +0.000 A 
ATOM      9  C   UNL     1      -0.544   0.203   0.163  0.00  0.00    +0.000 A 
ATOM     10  C   UNL     1       0.738   0.375  -0.381  0.00  0.00    +0.000 A 
ATOM     11  C   UNL     1       2.002   0.869   0.193  0.00  0.00    +0.000 C 
ATOM     12  O   UNL     1       1.834   2.169   0.682  0.00  0.00    +0.000 OA
ENDROOT
BRANCH   8  13
ATOM     13  C   UNL     1      -2.927  -0.446   0.050  0.00  0.00    +0.000 A 
ATOM     14  C   UNL     1      -3.050  -0.745   1.389  0.00  0.00    +0.000 A 
ATOM     15  C   UNL     1      -4.289  -0.905   1.996  0.00  0.00    +0.000 A 
ATOM     16  C   UNL     1      -5.427  -0.760   1.232  0.00  0.00    +0.000 A 
ATOM     17  C   UNL     1      -5.354  -0.461  -0.113  0.00  0.00    +0.000 A 
ATOM     18  C   UNL     1      -4.095  -0.311  -0.669  0.00  0.00    +0.000 A 
ENDBRANCH   8  13
BRANCH  11  19
ATOM     19  C   UNL     1       2.516  -0.052   1.291  0.00  0.00    +0.000 C 
ATOM     20  C   UNL     1       3.858   0.448   1.757  0.00  0.00    +0.000 C 
ATOM     21  C   UNL     1       2.720  -1.416   0.625  0.00  0.00    +0.000 C 
ATOM     22  C   UNL     1       1.598  -0.129   2.468  0.00  0.00    +0.000 C 
ENDBRANCH  11  19
TORSDOF 2
