REMARK  Name = 
REMARK  3 active torsions:
REMARK  status: ('A' for Active; 'I' for Inactive)
REMARK    1  A    between atoms: C_8  and  N_9
REMARK    2  A    between atoms: C_10  and  C_12
REMARK    3  A    between atoms: C_18  and  N_19
REMARK                            x       y       z     vdW  Elec       q    Type
REMARK                         _______ _______ _______ _____ _____    ______ ____
ROOT
ATOM      1  N   UNL     1       0.781   0.077   0.339  0.00  0.00    +0.000 NA
ATOM      2  C   UNL     1      -0.091  -0.906  -0.187  0.00  0.00    +0.000 C 
ATOM      3  O   UNL     1       0.377  -1.681  -1.049  0.00  0.00    +0.000 OA
ENDROOT
BRANCH   1  11
ATOM      4  C   UNL     1       1.468   2.210  -1.335  0.00  0.00    +0.000 C 
ATOM      5  C   UNL     1       2.519   1.249  -0.879  0.00  0.00    +0.000 A 
ATOM      6  C   UNL     1       3.850   1.432  -1.308  0.00  0.00    +0.000 A 
ATOM      7  C   UNL     1       4.811   0.550  -0.898  0.00  0.00    +0.000 A 
ATOM      8  C   UNL     1       4.422  -0.495  -0.066  0.00  0.00    +0.000 A 
ATOM      9  C   UNL     1       3.131  -0.674   0.350  0.00  0.00    +0.000 A 
ATOM     10  C   UNL     1       2.782  -1.822   1.228  0.00  0.00    +0.000 C 
ATOM     11  C   UNL     1       2.144   0.215  -0.059  0.00  0.00    +0.000 A 
ENDBRANCH   1  11
BRANCH   2  12
ATOM     12  C   UNL     1      -1.466  -0.982   0.282  0.00  0.00    +0.000 A 
ATOM     13  C   UNL     1      -1.950  -2.155   0.857  0.00  0.00    +0.000 A 
ATOM     14  C   UNL     1      -3.232  -2.248   1.403  0.00  0.00    +0.000 A 
ATOM     15  C   UNL     1      -4.025  -1.099   1.354  0.00  0.00    +0.000 A 
ATOM     16  C   UNL     1      -3.584   0.053   0.803  0.00  0.00    +0.000 A 
ATOM     17  C   UNL     1      -4.408   1.268   0.733  0.00  0.00    +0.000 C 
ATOM     18  C   UNL     1      -2.288   0.094   0.265  0.00  0.00    +0.000 A 
BRANCH  18  19
ATOM     19  N   UNL     1      -1.861   1.317  -0.374  0.00  0.00    +0.000 N 
ATOM     20  O   UNL     1      -1.490   2.270   0.317  0.00  0.00    +0.000 OA
ATOM     21  O   UNL     1      -1.891   1.327  -1.776  0.00  0.00    +0.000 OA
ENDBRANCH  18  19
ENDBRANCH   2  12
TORSDOF 3
