REMARK  Name = 
REMARK  4 active torsions:
REMARK  status: ('A' for Active; 'I' for Inactive)
REMARK    1  A    between atoms: C_5  and  S_6
REMARK    2  A    between atoms: S_6  and  C_7
REMARK    3  A    between atoms: C_10  and  C_11
REMARK    4  A    between atoms: C_14  and  N_15
REMARK                            x       y       z     vdW  Elec       q    Type
REMARK                         _______ _______ _______ _____ _____    ______ ____
ROOT
ATOM      1  C   UNL     1      -0.818  -0.439   0.212  0.00  0.00    +0.000 A 
ATOM      2  C   UNL     1      -0.542   0.895   0.030  0.00  0.00    +0.000 A 
ATOM      3  C   UNL     1      -1.511   1.849  -0.143  0.00  0.00    +0.000 A 
ATOM      4  C   UNL     1      -2.836   1.480  -0.139  0.00  0.00    +0.000 A 
ATOM      5  C   UNL     1      -3.139   0.152   0.041  0.00  0.00    +0.000 A 
ATOM      6  C   UNL     1      -2.155  -0.800   0.215  0.00  0.00    +0.000 A 
ENDROOT
BRANCH   6   7
ATOM      7  N   UNL     1      -2.450  -2.188   0.404  0.00  0.00    +0.000 N 
ATOM      8  O   UNL     1      -3.542  -2.468   0.916  0.00  0.00    +0.000 OA
ATOM      9  O   UNL     1      -1.539  -3.146   0.024  0.00  0.00    +0.000 OA
ENDBRANCH   6   7
BRANCH   4  10
ATOM     10  C   UNL     1      -3.942   2.455  -0.320  0.00  0.00    +0.000 C 
ATOM     11  O   UNL     1      -3.447   3.732  -0.489  0.00  0.00    +0.000 OA
ENDBRANCH   4  10
BRANCH   1  12
ATOM     12  S   UNL     1       0.453  -1.665   0.435  0.00  0.00    +0.000 S 
BRANCH  12  17
ATOM     13  C   UNL     1       5.833   1.178   0.107  0.00  0.00    +0.000 C 
ATOM     14  C   UNL     1       4.521   0.485   0.189  0.00  0.00    +0.000 A 
ATOM     15  C   UNL     1       3.866   0.331   1.399  0.00  0.00    +0.000 A 
ATOM     16  C   UNL     1       2.649  -0.309   1.494  0.00  0.00    +0.000 A 
ATOM     17  C   UNL     1       2.034  -0.824   0.371  0.00  0.00    +0.000 A 
ATOM     18  C   UNL     1       2.676  -0.682  -0.863  0.00  0.00    +0.000 A 
ATOM     19  C   UNL     1       3.890  -0.037  -0.920  0.00  0.00    +0.000 A 
ENDBRANCH  12  17
ENDBRANCH   1  12
TORSDOF 4
