REMARK  Name = 
REMARK  4 active torsions:
REMARK  status: ('A' for Active; 'I' for Inactive)
REMARK    1  A    between atoms: C_2  and  O_3
REMARK    2  A    between atoms: O_3  and  C_4
REMARK    3  A    between atoms: C_9  and  C_10
REMARK    4  A    between atoms: N_12  and  C_13
REMARK                            x       y       z     vdW  Elec       q    Type
REMARK                         _______ _______ _______ _____ _____    ______ ____
ROOT
ATOM      1  C   UNL     1      -0.174  -0.476   1.087  0.00  0.00    +0.000 C 
ATOM      2  O   UNL     1       0.623  -0.792   1.999  0.00  0.00    +0.000 OA
ATOM      3  N   UNL     1       0.353   0.207  -0.034  0.00  0.00    +0.000 NA
ENDROOT
BRANCH   3   4
ATOM      4  C   UNL     1       1.730   0.541  -0.158  0.00  0.00    +0.000 A 
ATOM      5  C   UNL     1       2.663   0.225   0.805  0.00  0.00    +0.000 A 
ATOM      6  C   UNL     1       4.000   0.550   0.683  0.00  0.00    +0.000 A 
ATOM      7  C   UNL     1       5.014   0.212   1.717  0.00  0.00    +0.000 C 
ATOM      8  C   UNL     1       4.449   1.221  -0.444  0.00  0.00    +0.000 A 
ATOM      9  C   UNL     1       3.532   1.539  -1.404  0.00  0.00    +0.000 A 
ATOM     10  C   UNL     1       2.179   1.208  -1.277  0.00  0.00    +0.000 A 
ATOM     11  O   UNL     1       1.260   1.538  -2.261  0.00  0.00    +0.000 OA
ENDBRANCH   3   4
BRANCH   1  17
ATOM     12  C   UNL     1      -2.440  -0.414   0.110  0.00  0.00    +0.000 A 
ATOM     13  N   UNL     1      -3.753  -0.679   0.126  0.00  0.00    +0.000 NA
ATOM     14  C   UNL     1      -4.317  -1.322   1.154  0.00  0.00    +0.000 A 
ATOM     15  C   UNL     1      -3.506  -1.704   2.199  0.00  0.00    +0.000 A 
ATOM     16  C   UNL     1      -2.156  -1.452   2.223  0.00  0.00    +0.000 A 
ATOM     17  C   UNL     1      -1.591  -0.785   1.147  0.00  0.00    +0.000 A 
BRANCH  12  18
ATOM     18  O   UNL     1      -1.831   0.258  -0.957  0.00  0.00    +0.000 OA
BRANCH  18  20
ATOM     19  C   UNL     1      -3.361  -0.522  -2.681  0.00  0.00    +0.000 C 
ATOM     20  C   UNL     1      -2.674   0.646  -2.025  0.00  0.00    +0.000 C 
ENDBRANCH  18  20
ENDBRANCH  12  18
ENDBRANCH   1  17
TORSDOF 4
