REMARK  Name = 
REMARK  2 active torsions:
REMARK  status: ('A' for Active; 'I' for Inactive)
REMARK    1  A    between atoms: C_10  and  C_11
REMARK    2  A    between atoms: N_13  and  C_14
REMARK                            x       y       z     vdW  Elec       q    Type
REMARK                         _______ _______ _______ _____ _____    ______ ____
ROOT
ATOM      1  C   UNL     1      -4.809  -2.731  -0.758  0.00  0.00    +0.000 C 
ATOM      2  C   UNL     1      -3.496  -1.826  -1.237  0.00  0.00    +0.000 C 
ATOM      3  C   UNL     1      -2.745  -2.029   0.238  0.00  0.00    +0.000 C 
ATOM      4  C   UNL     1      -1.458  -1.322   0.108  0.00  0.00    +0.000 C 
ATOM      5  C   UNL     1      -1.722   0.114  -0.342  0.00  0.00    +0.000 A 
ATOM      6  C   UNL     1      -2.977   0.473  -0.714  0.00  0.00    +0.000 A 
ATOM      7  S   UNL     1      -2.817   2.112  -1.125  0.00  0.00    +0.000 S 
ATOM      8  C   UNL     1      -1.156   2.313  -0.817  0.00  0.00    +0.000 A 
ATOM      9  N   UNL     1      -0.359   3.521  -0.971  0.00  0.00    +0.000 NA
ATOM     10  C   UNL     1      -0.751   1.078  -0.392  0.00  0.00    +0.000 A 
ATOM     11  C   UNL     1      -4.178  -0.421  -0.730  0.00  0.00    +0.000 C 
ENDROOT
BRANCH  10  12
ATOM     12  C   UNL     1       0.679   0.872  -0.023  0.00  0.00    +0.000 C 
ATOM     13  O   UNL     1       1.460   1.831  -0.113  0.00  0.00    +0.000 OA
ATOM     14  N   UNL     1       1.144  -0.390   0.423  0.00  0.00    +0.000 NA
BRANCH  14  15
ATOM     15  C   UNL     1       2.521  -0.492   0.752  0.00  0.00    +0.000 A 
ATOM     16  C   UNL     1       3.027  -1.690   1.189  0.00  0.00    +0.000 A 
ATOM     17  C   UNL     1       4.355  -1.789   1.507  0.00  0.00    +0.000 A 
ATOM     18  C   UNL     1       5.192  -0.713   1.397  0.00  0.00    +0.000 A 
ATOM     19  C   UNL     1       4.716   0.505   0.961  0.00  0.00    +0.000 A 
ATOM     20  C   UNL     1       3.375   0.584   0.646  0.00  0.00    +0.000 A 
ENDBRANCH  14  15
ENDBRANCH  10  12
TORSDOF 2
