REMARK  Name = 
REMARK  2 active torsions:
REMARK  status: ('A' for Active; 'I' for Inactive)
REMARK    1  A    between atoms: C_6  and  C_7
REMARK    2  A    between atoms: C_8  and  C_9
REMARK                            x       y       z     vdW  Elec       q    Type
REMARK                         _______ _______ _______ _____ _____    ______ ____
ROOT
ATOM      1  C   UNL     1      -0.359   0.401   0.870  0.00  0.00    +0.000 C 
ATOM      2  C   UNL     1      -0.255   1.518  -0.126  0.00  0.00    +0.000 C 
ATOM      3  C   UNL     1      -0.733   1.415  -1.328  0.00  0.00    +0.000 C 
ATOM      4  N   UNL     1      -0.556   2.588  -2.175  0.00  0.00    +0.000 NA
ATOM      5  O   UNL     1      -1.380   0.300  -1.851  0.00  0.00    +0.000 OA
ATOM      6  C   UNL     1      -1.484  -0.749  -0.960  0.00  0.00    +0.000 C 
ATOM      7  C   UNL     1      -1.046  -0.762   0.266  0.00  0.00    +0.000 C 
ATOM      8  C   UNL     1      -1.244  -2.014   1.110  0.00  0.00    +0.000 C 
ATOM      9  C   UNL     1      -2.556  -2.656   0.877  0.00  0.00    +0.000 C 
ATOM     10  C   UNL     1      -3.116  -2.553  -0.502  0.00  0.00    +0.000 C 
ATOM     11  C   UNL     1      -2.190  -1.981  -1.525  0.00  0.00    +0.000 C 
ENDROOT
BRANCH   1  17
ATOM     12  C   UNL     1       1.754  -0.010  -1.400  0.00  0.00    +0.000 C 
ATOM     13  C   UNL     1       2.009  -0.211   0.092  0.00  0.00    +0.000 A 
ATOM     14  C   UNL     1       3.254  -0.601   0.466  0.00  0.00    +0.000 A 
ATOM     15  C   UNL     1       3.482  -0.777   1.791  0.00  0.00    +0.000 A 
ATOM     16  S   UNL     1       1.975  -0.404   2.491  0.00  0.00    +0.000 S 
ATOM     17  C   UNL     1       1.115  -0.040   1.104  0.00  0.00    +0.000 A 
ENDBRANCH   1  17
BRANCH   2  18
ATOM     18  C   UNL     1       0.403   2.775   0.242  0.00  0.00    +0.000 C 
ATOM     19  N   UNL     1       0.928   3.761   0.558  0.00  0.00    +0.000 NA
ENDBRANCH   2  18
TORSDOF 2
