REMARK  Name = 
REMARK  4 active torsions:
REMARK  status: ('A' for Active; 'I' for Inactive)
REMARK    1  A    between atoms: C_2  and  C_3
REMARK    2  A    between atoms: C_9  and  N_10
REMARK    3  A    between atoms: C_11  and  C_13
REMARK    4  A    between atoms: C_16  and  N_17
REMARK                            x       y       z     vdW  Elec       q    Type
REMARK                         _______ _______ _______ _____ _____    ______ ____
ROOT
ATOM      1  N   UNL     1      -1.120   0.457   0.396  0.00  0.00    +0.000 NA
ATOM      2  C   UNL     1      -0.259  -0.137  -0.563  0.00  0.00    +0.000 C 
ATOM      3  O   UNL     1      -0.781  -0.675  -1.571  0.00  0.00    +0.000 OA
ENDROOT
BRANCH   1  10
ATOM      4  C   UNL     1      -3.266  -0.533   0.860  0.00  0.00    +0.000 A 
ATOM      5  C   UNL     1      -4.668  -0.574   0.774  0.00  0.00    +0.000 A 
ATOM      6  C   UNL     1      -5.321   0.418   0.091  0.00  0.00    +0.000 A 
ATOM      7  C   UNL     1      -4.599   1.427  -0.492  0.00  0.00    +0.000 A 
ATOM      8  C   UNL     1      -3.211   1.460  -0.402  0.00  0.00    +0.000 A 
ATOM      9  C   UNL     1      -2.408   2.543  -1.026  0.00  0.00    +0.000 C 
ATOM     10  C   UNL     1      -2.531   0.472   0.280  0.00  0.00    +0.000 A 
BRANCH   4  12
ATOM     11  C   UNL     1      -1.885  -2.619   0.743  0.00  0.00    +0.000 C 
ATOM     12  C   UNL     1      -2.547  -1.599   1.603  0.00  0.00    +0.000 C 
ENDBRANCH   4  12
ENDBRANCH   1  10
BRANCH   2  13
ATOM     13  C   UNL     1       1.180  -0.099  -0.344  0.00  0.00    +0.000 A 
ATOM     14  C   UNL     1       1.717   0.530   0.751  0.00  0.00    +0.000 A 
ATOM     15  C   UNL     1       3.084   0.552   0.932  0.00  0.00    +0.000 A 
ATOM     16  C   UNL     1       3.917  -0.060   0.011  0.00  0.00    +0.000 A 
ATOM     17  C   UNL     1       3.401  -0.694  -1.088  0.00  0.00    +0.000 A 
ATOM     18  C   UNL     1       2.018  -0.703  -1.250  0.00  0.00    +0.000 A 
BRANCH  16  19
ATOM     19  N   UNL     1       5.328  -0.046   0.179  0.00  0.00    +0.000 N 
ATOM     20  O   UNL     1       5.797   0.530   1.180  0.00  0.00    +0.000 OA
ATOM     21  O   UNL     1       6.152  -0.650  -0.735  0.00  0.00    +0.000 OA
ENDBRANCH  16  19
ENDBRANCH   2  13
TORSDOF 4
