REMARK  Name = 
REMARK  4 active torsions:
REMARK  status: ('A' for Active; 'I' for Inactive)
REMARK    1  A    between atoms: C_2  and  C_14
REMARK    2  A    between atoms: N_3  and  C_4
REMARK    3  A    between atoms: C_4  and  N_6
REMARK    4  A    between atoms: N_6  and  C_7
REMARK                            x       y       z     vdW  Elec       q    Type
REMARK                         _______ _______ _______ _____ _____    ______ ____
ROOT
ATOM      1  C   UNL     1       0.196  -0.862  -0.387  0.00  0.00    +0.000 C 
ATOM      2  S   UNL     1      -0.298  -2.292  -1.042  0.00  0.00    +0.000 S 
ENDROOT
BRANCH   1   5
ATOM      3  O   UNL     1       1.196   1.389   0.715  0.00  0.00    +0.000 OA
ATOM      4  C   UNL     1       1.996   0.425   0.630  0.00  0.00    +0.000 C 
ATOM      5  N   UNL     1       1.538  -0.787   0.062  0.00  0.00    +0.000 NA
BRANCH   4   6
ATOM      6  C   UNL     1       3.374   0.634   1.137  0.00  0.00    +0.000 C 
ATOM      7  C   UNL     1       4.420   0.445   0.073  0.00  0.00    +0.000 C 
ATOM      8  C   UNL     1       5.637  -0.076   0.774  0.00  0.00    +0.000 C 
ATOM      9  C   UNL     1       5.180  -0.604   2.123  0.00  0.00    +0.000 C 
ATOM     10  C   UNL     1       3.676  -0.453   2.135  0.00  0.00    +0.000 C 
ENDBRANCH   4   6
ENDBRANCH   1   5
BRANCH   1  11
ATOM     11  N   UNL     1      -0.675   0.236  -0.278  0.00  0.00    +0.000 NA
BRANCH  11  12
ATOM     12  C   UNL     1      -2.016   0.221  -0.706  0.00  0.00    +0.000 A 
ATOM     13  C   UNL     1      -2.635  -0.869  -1.282  0.00  0.00    +0.000 A 
ATOM     14  C   UNL     1      -3.956  -0.827  -1.683  0.00  0.00    +0.000 A 
ATOM     15  C   UNL     1      -4.715   0.313  -1.524  0.00  0.00    +0.000 A 
ATOM     16  O   UNL     1      -6.047   0.335  -1.937  0.00  0.00    +0.000 OA
ATOM     17  C   UNL     1      -4.100   1.406  -0.949  0.00  0.00    +0.000 A 
ATOM     18  C   UNL     1      -2.771   1.365  -0.544  0.00  0.00    +0.000 A 
ENDBRANCH  11  12
ENDBRANCH   1  11
TORSDOF 4
