REMARK  Name = 
REMARK  4 active torsions:
REMARK  status: ('A' for Active; 'I' for Inactive)
REMARK    1  A    between atoms: O_2  and  C_3
REMARK    2  A    between atoms: C_6  and  C_7
REMARK    3  A    between atoms: C_7  and  C_9
REMARK    4  A    between atoms: C_9  and  N_10
REMARK                            x       y       z     vdW  Elec       q    Type
REMARK                         _______ _______ _______ _____ _____    ______ ____
ROOT
ATOM      1  C   UNL     1      -1.039  -1.536  -1.383  0.00  0.00    +0.000 C 
ENDROOT
BRANCH   1   2
ATOM      2  N   UNL     1      -1.853  -1.197  -0.195  0.00  0.00    +0.000 N 
ATOM      3  C   UNL     1      -2.202  -2.160   0.667  0.00  0.00    +0.000 A 
ATOM      4  N   UNL     1      -1.832  -3.561   0.620  0.00  0.00    +0.000 NA
ATOM      5  S   UNL     1      -3.167  -1.350   1.809  0.00  0.00    +0.000 S 
ATOM      6  C   UNL     1      -3.089   0.209   1.135  0.00  0.00    +0.000 A 
ATOM      7  C   UNL     1      -2.303   0.018   0.035  0.00  0.00    +0.000 A 
ATOM      8  C   UNL     1      -2.135   1.311  -0.755  0.00  0.00    +0.000 C 
ATOM      9  C   UNL     1      -1.627   2.405   0.170  0.00  0.00    +0.000 C 
ATOM     10  C   UNL     1      -2.562   2.647   1.334  0.00  0.00    +0.000 C 
ATOM     11  C   UNL     1      -3.635   1.586   1.442  0.00  0.00    +0.000 C 
ENDBRANCH   1   2
BRANCH   1  12
ATOM     12  C   UNL     1       0.357  -1.677  -1.135  0.00  0.00    +0.000 C 
ATOM     13  O   UNL     1       0.805  -2.881  -1.063  0.00  0.00    +0.000 OA
BRANCH  12  17
ATOM     14  C   UNL     1       3.375   1.303  -0.586  0.00  0.00    +0.000 A 
ATOM     15  C   UNL     1       2.054   1.634  -0.767  0.00  0.00    +0.000 A 
ATOM     16  C   UNL     1       1.071   0.697  -0.946  0.00  0.00    +0.000 A 
ATOM     17  C   UNL     1       1.334  -0.633  -0.956  0.00  0.00    +0.000 A 
ATOM     18  C   UNL     1       2.696  -0.987  -0.767  0.00  0.00    +0.000 A 
ATOM     19  C   UNL     1       3.676  -0.054  -0.590  0.00  0.00    +0.000 A 
BRANCH  14  21
ATOM     20  C   UNL     1       5.723   1.960  -0.218  0.00  0.00    +0.000 C 
ATOM     21  O   UNL     1       4.354   2.267  -0.406  0.00  0.00    +0.000 OA
ENDBRANCH  14  21
ENDBRANCH  12  17
ENDBRANCH   1  12
TORSDOF 4
