REMARK  Name = 
REMARK  3 active torsions:
REMARK  status: ('A' for Active; 'I' for Inactive)
REMARK    1  A    between atoms: C_2  and  O_3
REMARK    2  A    between atoms: O_3  and  C_4
REMARK    3  A    between atoms: C_16  and  O_17
REMARK                            x       y       z     vdW  Elec       q    Type
REMARK                         _______ _______ _______ _____ _____    ______ ____
ROOT
ATOM      1  C   UNL     1       2.919  -0.643   0.422  0.00  0.00    +0.000 A 
ATOM      2  C   UNL     1       3.000   0.710   0.662  0.00  0.00    +0.000 A 
ATOM      3  C   UNL     1       1.862   1.492   0.636  0.00  0.00    +0.000 A 
ATOM      4  C   UNL     1       0.610   0.951   0.371  0.00  0.00    +0.000 A 
ATOM      5  N   UNL     1      -0.479   1.727   0.351  0.00  0.00    +0.000 NA
ATOM      6  C   UNL     1      -1.683   1.194   0.094  0.00  0.00    +0.000 A 
ATOM      7  C   UNL     1      -2.839   1.947   0.061  0.00  0.00    +0.000 A 
ATOM      8  C   UNL     1      -4.067   1.381  -0.205  0.00  0.00    +0.000 A 
ATOM      9  N   UNL     1      -5.254   2.205  -0.230  0.00  0.00    +0.000 NA
ATOM     10  C   UNL     1      -4.162   0.035  -0.445  0.00  0.00    +0.000 A 
ATOM     11  C   UNL     1      -3.040  -0.742  -0.421  0.00  0.00    +0.000 A 
ATOM     12  C   UNL     1      -1.825  -0.166  -0.155  0.00  0.00    +0.000 A 
ATOM     13  C   UNL     1      -0.707  -0.954  -0.133  0.00  0.00    +0.000 A 
ATOM     14  C   UNL     1       0.510  -0.400   0.129  0.00  0.00    +0.000 A 
ATOM     15  C   UNL     1       1.678  -1.180   0.159  0.00  0.00    +0.000 A 
ENDROOT
BRANCH  13  16
ATOM     16  O   UNL     1      -0.788  -2.339  -0.378  0.00  0.00    +0.000 OA
ATOM     17  C   UNL     1      -0.662  -2.845  -1.710  0.00  0.00    +0.000 C 
ENDBRANCH  13  16
BRANCH   1  18
ATOM     18  O   UNL     1       4.028  -1.487   0.433  0.00  0.00    +0.000 OA
BRANCH  18  20
ATOM     19  C   UNL     1       5.579   0.075  -0.398  0.00  0.00    +0.000 C 
ATOM     20  C   UNL     1       5.322  -0.963   0.701  0.00  0.00    +0.000 C 
ENDBRANCH  18  20
ENDBRANCH   1  18
TORSDOF 3
