REMARK  Name = 
REMARK  3 active torsions:
REMARK  status: ('A' for Active; 'I' for Inactive)
REMARK    1  A    between atoms: C_2  and  C_3
REMARK    2  A    between atoms: C_12  and  C_13
REMARK    3  A    between atoms: C_13  and  C_14
REMARK                            x       y       z     vdW  Elec       q    Type
REMARK                         _______ _______ _______ _____ _____    ______ ____
ROOT
ATOM      1  O   UNL     1      -0.981  -0.241  -2.072  0.00  0.00    +0.000 OA
ATOM      2  C   UNL     1      -0.782  -0.580  -0.879  0.00  0.00    +0.000 C 
ATOM      3  N   UNL     1       0.521  -0.673  -0.403  0.00  0.00    +0.000 N 
ATOM      4  C   UNL     1       1.000  -1.041   0.922  0.00  0.00    +0.000 C 
ATOM      5  C   UNL     1       2.379  -0.438   1.060  0.00  0.00    +0.000 C 
ATOM      6  C   UNL     1       2.365   0.666  -0.122  0.00  0.00    +0.000 C 
ATOM      7  C   UNL     1       1.715  -0.410  -1.175  0.00  0.00    +0.000 C 
ENDROOT
BRANCH   2   8
ATOM      8  C   UNL     1      -1.977  -0.857  -0.062  0.00  0.00    +0.000 C 
ATOM      9  C   UNL     1      -3.284  -0.704  -0.741  0.00  0.00    +0.000 C 
ATOM     10  S   UNL     1      -3.615   0.714   0.279  0.00  0.00    +0.000 S 
ATOM     11  O   UNL     1      -4.904   0.606   1.010  0.00  0.00    +0.000 OA
ATOM     12  O   UNL     1      -3.341   2.008  -0.404  0.00  0.00    +0.000 OA
ATOM     13  C   UNL     1      -2.208   0.028   1.124  0.00  0.00    +0.000 C 
ENDBRANCH   2   8
BRANCH   6  14
ATOM     14  C   UNL     1       3.883   0.371  -0.596  0.00  0.00    +0.000 C 
BRANCH  14  15
ATOM     15  C   UNL     1       4.748   0.656   0.587  0.00  0.00    +0.000 C 
ATOM     16  F   UNL     1       4.480  -0.107   1.688  0.00  0.00    +0.000 F 
ENDBRANCH  14  15
ENDBRANCH   6  14
TORSDOF 3
