REMARK  Name = 
REMARK  5 active torsions:
REMARK  status: ('A' for Active; 'I' for Inactive)
REMARK    1  A    between atoms: C_2  and  O_3
REMARK    2  A    between atoms: O_3  and  C_4
REMARK    3  A    between atoms: C_4  and  C_6
REMARK    4  A    between atoms: C_7  and  S_8
REMARK    5  A    between atoms: N_11  and  C_12
REMARK                            x       y       z     vdW  Elec       q    Type
REMARK                         _______ _______ _______ _____ _____    ______ ____
ROOT
ATOM      1  C   UNL     1       1.216   0.654  -0.418  0.00  0.00    +0.000 A 
ATOM      2  C   UNL     1       0.481   1.817  -0.289  0.00  0.00    +0.000 A 
ATOM      3  N   UNL     1      -0.809   1.469  -0.138  0.00  0.00    +0.000 NA
ATOM      4  N   UNL     1      -0.958   0.155  -0.160  0.00  0.00    +0.000 N 
ATOM      5  C   UNL     1       0.275  -0.352  -0.331  0.00  0.00    +0.000 A 
ATOM      6  N   UNL     1       0.548  -1.746  -0.408  0.00  0.00    +0.000 NA
ENDROOT
BRANCH   4   7
ATOM      7  C   UNL     1      -2.193  -0.581  -0.028  0.00  0.00    +0.000 A 
ATOM      8  C   UNL     1      -2.263  -1.760   0.687  0.00  0.00    +0.000 A 
ATOM      9  C   UNL     1      -3.430  -2.477   0.824  0.00  0.00    +0.000 A 
ATOM     10  C   UNL     1      -4.600  -2.037   0.243  0.00  0.00    +0.000 A 
ATOM     11  C   UNL     1      -4.544  -0.861  -0.472  0.00  0.00    +0.000 A 
ATOM     12  C   UNL     1      -3.366  -0.144  -0.608  0.00  0.00    +0.000 A 
ENDBRANCH   4   7
BRANCH   1  13
ATOM     13  C   UNL     1       2.659   0.501  -0.604  0.00  0.00    +0.000 C 
ATOM     14  O   UNL     1       3.392   1.502  -0.665  0.00  0.00    +0.000 OA
BRANCH  13  15
ATOM     15  O   UNL     1       3.210  -0.743  -0.712  0.00  0.00    +0.000 OA
BRANCH  15  17
ATOM     16  C   UNL     1       4.731  -2.531  -0.958  0.00  0.00    +0.000 C 
ATOM     17  C   UNL     1       4.582  -1.008  -0.892  0.00  0.00    +0.000 C 
ENDBRANCH  15  17
ENDBRANCH  13  15
ENDBRANCH   1  13
BRANCH   2  18
ATOM     18  S   UNL     1       1.193   3.463  -0.328  0.00  0.00    +0.000 S 
ATOM     19  C   UNL     1      -0.122   4.679  -0.125  0.00  0.00    +0.000 C 
ENDBRANCH   2  18
TORSDOF 5
