REMARK  Name = 
REMARK  3 active torsions:
REMARK  status: ('A' for Active; 'I' for Inactive)
REMARK    1  A    between atoms: C_12  and  C_14
REMARK    2  A    between atoms: C_14  and  C_15
REMARK    3  A    between atoms: C_15  and  C_17
REMARK                            x       y       z     vdW  Elec       q    Type
REMARK                         _______ _______ _______ _____ _____    ______ ____
ROOT
ATOM      1  C   UNL     1      -3.992   3.182  -1.009  0.00  0.00    +0.000 C 
ATOM      2  C   UNL     1      -3.150   2.006  -0.587  0.00  0.00    +0.000 A 
ATOM      3  C   UNL     1      -2.739   1.845   0.720  0.00  0.00    +0.000 A 
ATOM      4  C   UNL     1      -1.962   0.784   1.152  0.00  0.00    +0.000 A 
ATOM      5  C   UNL     1      -1.614   0.650   2.600  0.00  0.00    +0.000 C 
ATOM      6  C   UNL     1      -1.589  -0.158   0.189  0.00  0.00    +0.000 A 
ATOM      7  C   UNL     1      -1.980  -0.047  -1.116  0.00  0.00    +0.000 A 
ATOM      8  C   UNL     1      -2.761   1.047  -1.497  0.00  0.00    +0.000 A 
ATOM      9  N   UNL     1      -1.657  -1.249  -1.847  0.00  0.00    +0.000 NA
ATOM     10  C   UNL     1      -1.061  -2.126  -0.931  0.00  0.00    +0.000 C 
ATOM     11  O   UNL     1      -0.881  -3.380  -1.019  0.00  0.00    +0.000 OA
ATOM     12  C   UNL     1      -0.637  -1.290   0.259  0.00  0.00    +0.000 C 
ATOM     13  O   UNL     1      -0.836  -2.021   1.437  0.00  0.00    +0.000 OA
ENDROOT
BRANCH  12  14
ATOM     14  C   UNL     1       0.774  -0.991  -0.015  0.00  0.00    +0.000 C 
BRANCH  14  15
ATOM     15  C   UNL     1       1.592  -0.100   0.706  0.00  0.00    +0.000 C 
ATOM     16  O   UNL     1       1.278   0.561   1.706  0.00  0.00    +0.000 OA
BRANCH  15  17
ATOM     17  C   UNL     1       2.998   0.097   0.248  0.00  0.00    +0.000 A 
ATOM     18  C   UNL     1       3.631  -0.486  -0.813  0.00  0.00    +0.000 A 
ATOM     19  C   UNL     1       4.898  -0.156  -1.031  0.00  0.00    +0.000 A 
ATOM     20  C   UNL     1       5.484   0.740  -0.184  0.00  0.00    +0.000 A 
ATOM     21  S   UNL     1       4.206   1.091   0.906  0.00  0.00    +0.000 S 
ENDBRANCH  15  17
ENDBRANCH  14  15
ENDBRANCH  12  14
TORSDOF 3
