REMARK  Name = 
REMARK  2 active torsions:
REMARK  status: ('A' for Active; 'I' for Inactive)
REMARK    1  A    between atoms: N_13  and  C_14
REMARK    2  A    between atoms: C_17  and  O_18
REMARK                            x       y       z     vdW  Elec       q    Type
REMARK                         _______ _______ _______ _____ _____    ______ ____
ROOT
ATOM      1  C   UNL     1      -0.180   0.727  -2.045  0.00  0.00    +0.000 C 
ATOM      2  C   UNL     1      -0.687   0.399  -0.880  0.00  0.00    +0.000 C 
ATOM      3  C   UNL     1      -2.068   0.751  -0.595  0.00  0.00    +0.000 A 
ATOM      4  C   UNL     1      -2.892   1.409  -1.490  0.00  0.00    +0.000 A 
ATOM      5  C   UNL     1      -4.194   1.714  -1.163  0.00  0.00    +0.000 A 
ATOM      6  C   UNL     1      -4.715   1.373   0.062  0.00  0.00    +0.000 A 
ATOM      7  C   UNL     1      -6.109   1.698   0.402  0.00  0.00    +0.000 C 
ATOM      8  C   UNL     1      -3.882   0.719   0.941  0.00  0.00    +0.000 A 
ATOM      9  C   UNL     1      -2.582   0.407   0.632  0.00  0.00    +0.000 A 
ATOM     10  N   UNL     1      -1.752  -0.282   1.590  0.00  0.00    +0.000 NA
ATOM     11  C   UNL     1      -0.404  -0.627   1.319  0.00  0.00    +0.000 C 
ATOM     12  O   UNL     1       0.311  -1.237   2.179  0.00  0.00    +0.000 OA
ATOM     13  N   UNL     1       0.144  -0.281   0.056  0.00  0.00    +0.000 N 
ENDROOT
BRANCH  13  14
ATOM     14  C   UNL     1       1.497  -0.640  -0.206  0.00  0.00    +0.000 A 
ATOM     15  C   UNL     1       1.915  -1.906  -0.520  0.00  0.00    +0.000 A 
ATOM     16  C   UNL     1       3.271  -2.093  -0.744  0.00  0.00    +0.000 A 
ATOM     17  C   UNL     1       4.179  -1.074  -0.661  0.00  0.00    +0.000 A 
ATOM     18  C   UNL     1       3.730   0.206  -0.340  0.00  0.00    +0.000 A 
ATOM     19  C   UNL     1       2.404   0.417  -0.115  0.00  0.00    +0.000 A 
BRANCH  17  20
ATOM     20  O   UNL     1       5.520  -1.354  -0.901  0.00  0.00    +0.000 OA
ATOM     21  C   UNL     1       6.496  -0.328  -0.834  0.00  0.00    +0.000 C 
ENDBRANCH  17  20
ENDBRANCH  13  14
TORSDOF 2
