REMARK  Name = 
REMARK  4 active torsions:
REMARK  status: ('A' for Active; 'I' for Inactive)
REMARK    1  A    between atoms: C_2  and  C_3
REMARK    2  A    between atoms: C_9  and  N_10
REMARK    3  A    between atoms: C_11  and  C_13
REMARK    4  A    between atoms: C_18  and  N_19
REMARK                            x       y       z     vdW  Elec       q    Type
REMARK                         _______ _______ _______ _____ _____    ______ ____
ROOT
ATOM      1  N   UNL     1      -0.511  -0.123   0.437  0.00  0.00    +0.000 NA
ATOM      2  C   UNL     1       0.404  -0.467  -0.576  0.00  0.00    +0.000 C 
ATOM      3  O   UNL     1      -0.166  -0.832  -1.676  0.00  0.00    +0.000 OA
ENDROOT
BRANCH   1  10
ATOM      4  C   UNL     1      -2.575   0.979  -0.113  0.00  0.00    +0.000 A 
ATOM      5  C   UNL     1      -3.949   0.980  -0.283  0.00  0.00    +0.000 A 
ATOM      6  C   UNL     1      -4.700  -0.148  -0.060  0.00  0.00    +0.000 A 
ATOM      7  C   UNL     1      -4.053  -1.294   0.341  0.00  0.00    +0.000 A 
ATOM      8  C   UNL     1      -2.679  -1.285   0.508  0.00  0.00    +0.000 A 
ATOM      9  C   UNL     1      -1.957  -2.525   0.944  0.00  0.00    +0.000 C 
ATOM     10  C   UNL     1      -1.917  -0.163   0.287  0.00  0.00    +0.000 A 
BRANCH   4  12
ATOM     11  C   UNL     1      -1.188   2.227  -1.698  0.00  0.00    +0.000 C 
ATOM     12  C   UNL     1      -1.886   2.266  -0.379  0.00  0.00    +0.000 C 
ENDBRANCH   4  12
ENDBRANCH   1  10
BRANCH   2  13
ATOM     13  C   UNL     1       1.853  -0.459  -0.515  0.00  0.00    +0.000 A 
ATOM     14  C   UNL     1       2.573  -1.227  -1.460  0.00  0.00    +0.000 A 
ATOM     15  C   UNL     1       3.945  -1.310  -1.415  0.00  0.00    +0.000 A 
ATOM     16  C   UNL     1       4.675  -0.654  -0.454  0.00  0.00    +0.000 A 
ATOM     17  C   UNL     1       3.999   0.090   0.459  0.00  0.00    +0.000 A 
ATOM     18  C   UNL     1       2.592   0.183   0.421  0.00  0.00    +0.000 A 
BRANCH  18  19
ATOM     19  N   UNL     1       1.990   1.001   1.407  0.00  0.00    +0.000 N 
ATOM     20  O   UNL     1       1.002   1.676   1.151  0.00  0.00    +0.000 OA
ATOM     21  O   UNL     1       2.547   1.087   2.674  0.00  0.00    +0.000 OA
ENDBRANCH  18  19
ENDBRANCH   2  13
TORSDOF 4
