REMARK  Name = 
REMARK  5 active torsions:
REMARK  status: ('A' for Active; 'I' for Inactive)
REMARK    1  A    between atoms: C_2  and  C_16
REMARK    2  A    between atoms: N_3  and  C_4
REMARK    3  A    between atoms: C_4  and  N_6
REMARK    4  A    between atoms: N_6  and  C_7
REMARK    5  A    between atoms: C_11  and  N_12
REMARK                            x       y       z     vdW  Elec       q    Type
REMARK                         _______ _______ _______ _____ _____    ______ ____
ROOT
ATOM      1  C   UNL     1       0.815  -0.738   0.904  0.00  0.00    +0.000 C 
ATOM      2  S   UNL     1       0.513  -1.946   1.951  0.00  0.00    +0.000 S 
ENDROOT
BRANCH   1   5
ATOM      3  O   UNL     1       1.626   1.302  -0.800  0.00  0.00    +0.000 OA
ATOM      4  C   UNL     1       2.534   0.748  -0.102  0.00  0.00    +0.000 C 
ATOM      5  N   UNL     1       2.151  -0.285   0.767  0.00  0.00    +0.000 NA
BRANCH   4   6
ATOM      6  C   UNL     1       3.911   1.246  -0.272  0.00  0.00    +0.000 C 
ATOM      7  C   UNL     1       4.870   0.205  -0.740  0.00  0.00    +0.000 C 
ATOM      8  C   UNL     1       6.183   0.493  -0.084  0.00  0.00    +0.000 C 
ATOM      9  C   UNL     1       5.972   1.613   0.895  0.00  0.00    +0.000 C 
ATOM     10  C   UNL     1       4.484   1.860   0.961  0.00  0.00    +0.000 C 
ENDBRANCH   4   6
ENDBRANCH   1   5
BRANCH   1  11
ATOM     11  N   UNL     1      -0.235  -0.161   0.154  0.00  0.00    +0.000 NA
BRANCH  11  12
ATOM     12  C   UNL     1      -1.570  -0.580   0.260  0.00  0.00    +0.000 A 
ATOM     13  C   UNL     1      -1.956  -1.589   1.107  0.00  0.00    +0.000 A 
ATOM     14  C   UNL     1      -3.268  -1.997   1.207  0.00  0.00    +0.000 A 
ATOM     15  C   UNL     1      -4.199  -1.360   0.427  0.00  0.00    +0.000 A 
ATOM     16  C   UNL     1      -3.886  -0.350  -0.435  0.00  0.00    +0.000 A 
ATOM     17  C   UNL     1      -2.546   0.027  -0.501  0.00  0.00    +0.000 A 
BRANCH  16  18
ATOM     18  N   UNL     1      -4.871   0.293  -1.232  0.00  0.00    +0.000 N 
ATOM     19  O   UNL     1      -6.042  -0.075  -1.138  0.00  0.00    +0.000 OA
ATOM     20  O   UNL     1      -4.486   1.294  -2.071  0.00  0.00    +0.000 OA
ENDBRANCH  16  18
ENDBRANCH  11  12
ENDBRANCH   1  11
TORSDOF 5
