REMARK  Name = 
REMARK  2 active torsions:
REMARK  status: ('A' for Active; 'I' for Inactive)
REMARK    1  A    between atoms: N_4  and  C_5
REMARK    2  A    between atoms: C_10  and  N_11
REMARK                            x       y       z     vdW  Elec       q    Type
REMARK                         _______ _______ _______ _____ _____    ______ ____
ROOT
ATOM      1  C   UNL     1      -1.525  -0.101   0.394  0.00  0.00    +0.000 A 
ATOM      2  C   UNL     1      -0.448   0.694   0.078  0.00  0.00    +0.000 A 
ATOM      3  C   UNL     1       0.835   0.186   0.059  0.00  0.00    +0.000 A 
ATOM      4  C   UNL     1       1.073  -1.139   0.358  0.00  0.00    +0.000 A 
ATOM      5  C   UNL     1      -0.007  -1.932   0.674  0.00  0.00    +0.000 A 
ATOM      6  C   UNL     1      -1.287  -1.423   0.692  0.00  0.00    +0.000 A 
ATOM      7  N   UNL     1       2.386  -1.418   0.280  0.00  0.00    +0.000 NA
ATOM      8  C   UNL     1       2.996  -0.261  -0.072  0.00  0.00    +0.000 A 
ATOM      9  C   UNL     1       4.316   0.045  -0.295  0.00  0.00    +0.000 A 
ATOM     10  C   UNL     1       4.687   1.323  -0.650  0.00  0.00    +0.000 A 
ATOM     11  C   UNL     1       3.747   2.306  -0.787  0.00  0.00    +0.000 A 
ATOM     12  C   UNL     1       2.405   2.027  -0.568  0.00  0.00    +0.000 A 
ATOM     13  C   UNL     1       2.062   0.739  -0.214  0.00  0.00    +0.000 A 
ENDROOT
BRANCH   1  17
ATOM     14  C   UNL     1      -4.647   2.146   0.190  0.00  0.00    +0.000 C 
ATOM     15  C   UNL     1      -3.237   1.699   0.142  0.00  0.00    +0.000 C 
ATOM     16  O   UNL     1      -2.316   2.493  -0.155  0.00  0.00    +0.000 OA
ATOM     17  N   UNL     1      -2.867   0.356   0.431  0.00  0.00    +0.000 NA
ENDBRANCH   1  17
BRANCH   6  18
ATOM     18  N   UNL     1      -2.360  -2.295   1.026  0.00  0.00    +0.000 N 
ATOM     19  C   UNL     1      -3.169  -1.977   2.175  0.00  0.00    +0.000 C 
ATOM     20  C   UNL     1      -2.647  -3.467   0.251  0.00  0.00    +0.000 C 
ENDBRANCH   6  18
TORSDOF 2
