REMARK  Name = 
REMARK  3 active torsions:
REMARK  status: ('A' for Active; 'I' for Inactive)
REMARK    1  A    between atoms: C_4  and  C_5
REMARK    2  A    between atoms: N_12  and  C_13
REMARK    3  A    between atoms: C_13  and  C_14
REMARK                            x       y       z     vdW  Elec       q    Type
REMARK                         _______ _______ _______ _____ _____    ______ ____
ROOT
ATOM      1  N   UNL     1      -1.105   3.047   0.269  0.00  0.00    +0.000 NA
ATOM      2  C   UNL     1      -0.294   1.881  -0.012  0.00  0.00    +0.000 A 
ATOM      3  C   UNL     1       0.986   1.664   0.438  0.00  0.00    +0.000 A 
ATOM      4  C   UNL     1       1.412   0.458  -0.036  0.00  0.00    +0.000 A 
ATOM      5  N   UNL     1       0.380  -0.015  -0.755  0.00  0.00    +0.000 NA
ATOM      6  N   UNL     1      -0.635   0.820  -0.748  0.00  0.00    +0.000 N 
ENDROOT
BRANCH   4   7
ATOM      7  C   UNL     1       2.713  -0.169   0.198  0.00  0.00    +0.000 A 
ATOM      8  C   UNL     1       3.018  -1.393  -0.339  0.00  0.00    +0.000 A 
ATOM      9  C   UNL     1       4.243  -1.986  -0.120  0.00  0.00    +0.000 A 
ATOM     10  C   UNL     1       5.200  -1.362   0.649  0.00  0.00    +0.000 A 
ATOM     11  C   UNL     1       4.870  -0.123   1.184  0.00  0.00    +0.000 A 
ATOM     12  C   UNL     1       3.643   0.467   0.963  0.00  0.00    +0.000 A 
ENDBRANCH   4   7
BRANCH   6  13
ATOM     13  C   UNL     1      -1.896   0.623  -1.417  0.00  0.00    +0.000 C 
BRANCH  13  14
ATOM     14  C   UNL     1      -2.920  -0.070  -0.590  0.00  0.00    +0.000 C 
ATOM     15  C   UNL     1      -2.526  -1.436  -0.136  0.00  0.00    +0.000 C 
ATOM     16  C   UNL     1      -3.705  -2.043   0.618  0.00  0.00    +0.000 C 
ATOM     17  C   UNL     1      -4.977  -1.264   0.263  0.00  0.00    +0.000 C 
ATOM     18  C   UNL     1      -4.867   0.128   0.865  0.00  0.00    +0.000 C 
ATOM     19  C   UNL     1      -3.538   0.777   0.472  0.00  0.00    +0.000 C 
ENDBRANCH  13  14
ENDBRANCH   6  13
TORSDOF 3
