REMARK  Name = 
REMARK  4 active torsions:
REMARK  status: ('A' for Active; 'I' for Inactive)
REMARK    1  A    between atoms: C_2  and  C_11
REMARK    2  A    between atoms: N_3  and  C_4
REMARK    3  A    between atoms: C_4  and  C_5
REMARK    4  A    between atoms: C_14  and  N_15
REMARK                            x       y       z     vdW  Elec       q    Type
REMARK                         _______ _______ _______ _____ _____    ______ ____
ROOT
ATOM      1  O   UNL     1       0.699  -1.920   0.435  0.00  0.00    +0.000 OA
ATOM      2  C   UNL     1       0.337  -0.936  -0.225  0.00  0.00    +0.000 C 
ATOM      3  N   UNL     1       1.265  -0.278  -1.052  0.00  0.00    +0.000 NA
ENDROOT
BRANCH   2   4
ATOM      4  C   UNL     1      -1.067  -0.482  -0.122  0.00  0.00    +0.000 A 
ATOM      5  C   UNL     1      -1.494   0.613  -0.849  0.00  0.00    +0.000 A 
ATOM      6  C   UNL     1      -2.806   1.028  -0.747  0.00  0.00    +0.000 A 
ATOM      7  C   UNL     1      -3.721   0.389   0.061  0.00  0.00    +0.000 A 
ATOM      8  C   UNL     1      -3.278  -0.701   0.779  0.00  0.00    +0.000 A 
ATOM      9  C   UNL     1      -1.969  -1.120   0.680  0.00  0.00    +0.000 A 
BRANCH   7  10
ATOM     10  N   UNL     1      -5.052   0.836   0.145  0.00  0.00    +0.000 N 
ATOM     11  O   UNL     1      -5.476   1.815  -0.491  0.00  0.00    +0.000 OA
ATOM     12  O   UNL     1      -5.926   0.168   0.962  0.00  0.00    +0.000 OA
ENDBRANCH   7  10
ENDBRANCH   2   4
BRANCH   3  13
ATOM     13  C   UNL     1       2.625  -0.773  -1.107  0.00  0.00    +0.000 C 
BRANCH  13  14
ATOM     14  C   UNL     1       3.250  -0.724   0.267  0.00  0.00    +0.000 C 
ATOM     15  C   UNL     1       4.655  -1.220   0.289  0.00  0.00    +0.000 C 
ATOM     16  C   UNL     1       5.551  -0.153   0.842  0.00  0.00    +0.000 C 
ATOM     17  C   UNL     1       5.365   1.153   0.094  0.00  0.00    +0.000 C 
ATOM     18  C   UNL     1       3.958   1.680   0.276  0.00  0.00    +0.000 C 
ATOM     19  C   UNL     1       3.083   0.626   0.920  0.00  0.00    +0.000 C 
ENDBRANCH  13  14
ENDBRANCH   3  13
TORSDOF 4
