REMARK  Name = 
REMARK  2 active torsions:
REMARK  status: ('A' for Active; 'I' for Inactive)
REMARK    1  A    between atoms: C_5  and  C_6
REMARK    2  A    between atoms: C_13  and  O_14
REMARK                            x       y       z     vdW  Elec       q    Type
REMARK                         _______ _______ _______ _____ _____    ______ ____
ROOT
ATOM      1  C   UNL     1       0.214  -0.076   0.778  0.00  0.00    +0.000 A 
ATOM      2  C   UNL     1       0.092   0.182   2.129  0.00  0.00    +0.000 A 
ATOM      3  C   UNL     1       1.197   0.121   3.146  0.00  0.00    +0.000 C 
ATOM      4  N   UNL     1      -1.171   0.503   2.425  0.00  0.00    +0.000 NA
ATOM      5  C   UNL     1      -1.863   0.453   1.275  0.00  0.00    +0.000 A 
ATOM      6  C   UNL     1      -3.189   0.686   0.982  0.00  0.00    +0.000 A 
ATOM      7  C   UNL     1      -3.675   0.568  -0.302  0.00  0.00    +0.000 A 
ATOM      8  C   UNL     1      -2.833   0.211  -1.335  0.00  0.00    +0.000 A 
ATOM      9  C   UNL     1      -1.500  -0.028  -1.068  0.00  0.00    +0.000 A 
ATOM     10  C   UNL     1      -1.028   0.097   0.244  0.00  0.00    +0.000 A 
ENDROOT
BRANCH   1  15
ATOM     11  C   UNL     1       4.124   2.343  -1.650  0.00  0.00    +0.000 C 
ATOM     12  N   UNL     1       4.331   0.915  -1.708  0.00  0.00    +0.000 NA
ATOM     13  C   UNL     1       3.353   0.065  -1.089  0.00  0.00    +0.000 A 
ATOM     14  N   UNL     1       2.254   0.440  -0.455  0.00  0.00    +0.000 NA
ATOM     15  C   UNL     1       1.462  -0.467   0.056  0.00  0.00    +0.000 A 
ATOM     16  C   UNL     1       1.822  -1.777  -0.098  0.00  0.00    +0.000 A 
ATOM     17  C   UNL     1       1.097  -3.010   0.388  0.00  0.00    +0.000 C 
ATOM     18  S   UNL     1       3.281  -1.635  -0.969  0.00  0.00    +0.000 S 
ENDBRANCH   1  15
BRANCH   8  19
ATOM     19  O   UNL     1      -3.304   0.085  -2.648  0.00  0.00    +0.000 OA
ATOM     20  C   UNL     1      -4.663   0.326  -2.936  0.00  0.00    +0.000 C 
ENDBRANCH   8  19
TORSDOF 2
