REMARK  Name = 
REMARK  4 active torsions:
REMARK  status: ('A' for Active; 'I' for Inactive)
REMARK    1  A    between atoms: C_2  and  O_5
REMARK    2  A    between atoms: O_5  and  C_6
REMARK    3  A    between atoms: N_8  and  N_9
REMARK    4  A    between atoms: N_9  and  C_10
REMARK                            x       y       z     vdW  Elec       q    Type
REMARK                         _______ _______ _______ _____ _____    ______ ____
ROOT
ATOM      1  C   UNL     1      -0.321   0.792  -0.055  0.00  0.00    +0.000 C 
ATOM      2  C   UNL     1      -1.599   0.937   0.168  0.00  0.00    +0.000 C 
ATOM      3  C   UNL     1      -2.149   2.279   0.313  0.00  0.00    +0.000 C 
ATOM      4  O   UNL     1      -1.393   3.281   0.223  0.00  0.00    +0.000 OA
ATOM      5  C   UNL     1      -3.580   2.395   0.562  0.00  0.00    +0.000 C 
ATOM      6  C   UNL     1      -4.350   1.323   0.652  0.00  0.00    +0.000 C 
ATOM      7  C   UNL     1      -3.808  -0.039   0.507  0.00  0.00    +0.000 A 
ATOM      8  C   UNL     1      -4.605  -1.159   0.600  0.00  0.00    +0.000 A 
ATOM      9  C   UNL     1      -4.100  -2.443   0.465  0.00  0.00    +0.000 A 
ATOM     10  C   UNL     1      -2.753  -2.615   0.229  0.00  0.00    +0.000 A 
ATOM     11  C   UNL     1      -1.926  -1.516   0.130  0.00  0.00    +0.000 A 
ATOM     12  C   UNL     1      -2.462  -0.241   0.270  0.00  0.00    +0.000 A 
ENDROOT
BRANCH   1  13
ATOM     13  N   UNL     1       0.262  -0.486  -0.204  0.00  0.00    +0.000 NA
BRANCH  13  16
ATOM     14  C   UNL     1       2.731  -0.395  -0.134  0.00  0.00    +0.000 C 
ATOM     15  O   UNL     1       2.676   0.070  -1.302  0.00  0.00    +0.000 OA
ATOM     16  N   UNL     1       1.476  -0.707   0.492  0.00  0.00    +0.000 NA
BRANCH  14  17
ATOM     17  O   UNL     1       3.948  -0.601   0.525  0.00  0.00    +0.000 OA
BRANCH  17  19
ATOM     18  C   UNL     1       6.282  -0.617   0.847  0.00  0.00    +0.000 C 
ATOM     19  C   UNL     1       5.158  -0.277  -0.136  0.00  0.00    +0.000 C 
ATOM     20  C   UNL     1       5.208   1.186  -0.520  0.00  0.00    +0.000 C 
ATOM     21  C   UNL     1       5.306  -1.167  -1.358  0.00  0.00    +0.000 C 
ENDBRANCH  17  19
ENDBRANCH  14  17
ENDBRANCH  13  16
ENDBRANCH   1  13
TORSDOF 4
