REMARK  Name = 
REMARK  2 active torsions:
REMARK  status: ('A' for Active; 'I' for Inactive)
REMARK    1  A    between atoms: N_11  and  C_12
REMARK    2  A    between atoms: C_12  and  C_13
REMARK                            x       y       z     vdW  Elec       q    Type
REMARK                         _______ _______ _______ _____ _____    ______ ____
ROOT
ATOM      1  C   UNL     1      -2.227   0.962   2.236  0.00  0.00    +0.000 C 
ATOM      2  C   UNL     1      -2.917  -0.153   1.223  0.00  0.00    +0.000 C 
ATOM      3  C   UNL     1      -3.894   0.887   0.440  0.00  0.00    +0.000 C 
ATOM      4  C   UNL     1      -3.321   2.234   0.455  0.00  0.00    +0.000 C 
ATOM      5  C   UNL     1      -2.140   2.290  -0.484  0.00  0.00    +0.000 C 
ATOM      6  C   UNL     1      -1.151   1.264   0.047  0.00  0.00    +0.000 C 
ATOM      7  C   UNL     1      -1.715  -0.039   0.086  0.00  0.00    +0.000 C 
ATOM      8  N   UNL     1      -2.203  -0.634  -1.127  0.00  0.00    +0.000 NA
ATOM      9  C   UNL     1      -0.954  -1.055  -1.779  0.00  0.00    +0.000 C 
ATOM     10  O   UNL     1      -0.767  -1.155  -3.035  0.00  0.00    +0.000 OA
ATOM     11  N   UNL     1      -0.030  -1.361  -0.802  0.00  0.00    +0.000 N 
ATOM     12  C   UNL     1      -0.759  -1.093   0.493  0.00  0.00    +0.000 C 
ATOM     13  O   UNL     1      -0.518  -1.682   1.529  0.00  0.00    +0.000 OA
ENDROOT
BRANCH  11  14
ATOM     14  C   UNL     1       1.333  -1.734  -0.625  0.00  0.00    +0.000 C 
BRANCH  14  15
ATOM     15  C   UNL     1       2.218  -0.514  -0.415  0.00  0.00    +0.000 A 
ATOM     16  C   UNL     1       2.453   0.485  -1.244  0.00  0.00    +0.000 A 
ATOM     17  C   UNL     1       3.333   1.571  -1.062  0.00  0.00    +0.000 A 
ATOM     18  C   UNL     1       3.985   1.514   0.230  0.00  0.00    +0.000 A 
ATOM     19  C   UNL     1       3.738   0.535   1.069  0.00  0.00    +0.000 A 
ATOM     20  C   UNL     1       2.878  -0.537   0.836  0.00  0.00    +0.000 A 
ATOM     21 CL   UNL     1       2.662  -1.787   1.930  0.00  0.00    +0.000 Cl
ENDBRANCH  14  15
ENDBRANCH  11  14
TORSDOF 2
