REMARK  Name = 
REMARK  2 active torsions:
REMARK  status: ('A' for Active; 'I' for Inactive)
REMARK    1  A    between atoms: C_5  and  N_6
REMARK    2  A    between atoms: C_7  and  C_9
REMARK                            x       y       z     vdW  Elec       q    Type
REMARK                         _______ _______ _______ _____ _____    ______ ____
ROOT
ATOM      1  N   UNL     1      -0.406  -0.154  -0.081  0.00  0.00    +0.000 NA
ATOM      2  C   UNL     1       0.355   0.547   0.869  0.00  0.00    +0.000 C 
ATOM      3  O   UNL     1      -0.294   1.143   1.765  0.00  0.00    +0.000 OA
ENDROOT
BRANCH   2   4
ATOM      4  C   UNL     1       1.849   0.595   0.837  0.00  0.00    +0.000 A 
ATOM      5  C   UNL     1       2.527   1.301   1.800  0.00  0.00    +0.000 A 
ATOM      6  N   UNL     1       1.966   2.050   2.908  0.00  0.00    +0.000 NA
ATOM      7  S   UNL     1       4.158   1.077   1.368  0.00  0.00    +0.000 S 
ATOM      8  C   UNL     1       3.954   0.105  -0.005  0.00  0.00    +0.000 A 
ATOM      9  C   UNL     1       2.600  -0.028  -0.103  0.00  0.00    +0.000 A 
ATOM     10  C   UNL     1       2.351  -0.899  -1.335  0.00  0.00    +0.000 C 
ATOM     11  C   UNL     1       3.623  -1.688  -1.486  0.00  0.00    +0.000 C 
ATOM     12  C   UNL     1       4.665  -0.637  -1.111  0.00  0.00    +0.000 C 
ENDBRANCH   2   4
BRANCH   1  17
ATOM     13  C   UNL     1      -6.128  -0.341   0.039  0.00  0.00    +0.000 C 
ATOM     14  C   UNL     1      -4.644  -0.280   0.026  0.00  0.00    +0.000 A 
ATOM     15  C   UNL     1      -3.917   0.414   0.969  0.00  0.00    +0.000 A 
ATOM     16  C   UNL     1      -2.535   0.450   0.927  0.00  0.00    +0.000 A 
ATOM     17  C   UNL     1      -1.826  -0.204  -0.057  0.00  0.00    +0.000 A 
ATOM     18  C   UNL     1      -2.548  -0.899  -1.000  0.00  0.00    +0.000 A 
ATOM     19  C   UNL     1      -1.807  -1.613  -2.070  0.00  0.00    +0.000 C 
ATOM     20  C   UNL     1      -3.945  -0.939  -0.962  0.00  0.00    +0.000 A 
ENDBRANCH   1  17
TORSDOF 2
