REMARK  Name = 
REMARK  2 active torsions:
REMARK  status: ('A' for Active; 'I' for Inactive)
REMARK    1  A    between atoms: N_4  and  C_5
REMARK    2  A    between atoms: N_17  and  C_18
REMARK                            x       y       z     vdW  Elec       q    Type
REMARK                         _______ _______ _______ _____ _____    ______ ____
ROOT
ATOM      1  C   UNL     1       2.370   0.339  -0.329  0.00  0.00    +0.000 A 
ATOM      2  C   UNL     1       1.921   1.534  -0.849  0.00  0.00    +0.000 A 
ATOM      3  C   UNL     1       0.568   1.847  -0.919  0.00  0.00    +0.000 A 
ATOM      4  C   UNL     1      -0.381   0.955  -0.463  0.00  0.00    +0.000 A 
ATOM      5  C   UNL     1       0.048  -0.248   0.061  0.00  0.00    +0.000 A 
ATOM      6  C   UNL     1       1.398  -0.531   0.118  0.00  0.00    +0.000 A 
ATOM      7  C   UNL     1      -1.086  -0.931   0.433  0.00  0.00    +0.000 A 
ATOM      8  C   UNL     1      -1.278  -2.182   1.012  0.00  0.00    +0.000 A 
ATOM      9  C   UNL     1      -2.550  -2.633   1.285  0.00  0.00    +0.000 A 
ATOM     10  C   UNL     1      -3.621  -1.852   0.987  0.00  0.00    +0.000 A 
ATOM     11  C   UNL     1      -3.429  -0.613   0.413  0.00  0.00    +0.000 A 
ATOM     12  C   UNL     1      -2.172  -0.117   0.121  0.00  0.00    +0.000 A 
ATOM     13  N   UNL     1      -1.716   1.021  -0.421  0.00  0.00    +0.000 N 
ENDROOT
BRANCH   1  17
ATOM     14  C   UNL     1       5.679  -1.450   0.307  0.00  0.00    +0.000 C 
ATOM     15  C   UNL     1       4.219  -1.195   0.270  0.00  0.00    +0.000 C 
ATOM     16  O   UNL     1       3.342  -1.994   0.679  0.00  0.00    +0.000 OA
ATOM     17  N   UNL     1       3.768   0.039  -0.268  0.00  0.00    +0.000 NA
ENDBRANCH   1  17
BRANCH  13  18
ATOM     18  C   UNL     1      -2.561   2.124  -0.878  0.00  0.00    +0.000 C 
ATOM     19  C   UNL     1      -2.780   3.007   0.355  0.00  0.00    +0.000 C 
ATOM     20  C   UNL     1      -1.741   2.881  -1.915  0.00  0.00    +0.000 C 
ENDBRANCH  13  18
TORSDOF 2
