REMARK  Name = 
REMARK  3 active torsions:
REMARK  status: ('A' for Active; 'I' for Inactive)
REMARK    1  A    between atoms: O_2  and  C_3
REMARK    2  A    between atoms: C_8  and  C_9
REMARK    3  A    between atoms: C_9  and  C_11
REMARK                            x       y       z     vdW  Elec       q    Type
REMARK                         _______ _______ _______ _____ _____    ______ ____
ROOT
ATOM      1  C   UNL     1      -0.478   1.055   0.059  0.00  0.00    +0.000 C 
ATOM      2  O   UNL     1      -1.061   2.142  -0.186  0.00  0.00    +0.000 OA
ENDROOT
BRANCH   1   3
ATOM      3  C   UNL     1       0.995   1.040   0.273  0.00  0.00    +0.000 A 
ATOM      4  C   UNL     1       1.699   2.224   0.256  0.00  0.00    +0.000 A 
ATOM      5  N   UNL     1       1.209   3.550   0.086  0.00  0.00    +0.000 NA
ATOM      6  S   UNL     1       3.300   1.742   0.488  0.00  0.00    +0.000 S 
ATOM      7  C   UNL     1       3.081   0.057   0.606  0.00  0.00    +0.000 A 
ATOM      8  C   UNL     1       1.731  -0.094   0.458  0.00  0.00    +0.000 A 
ATOM      9  C   UNL     1       1.455  -1.593   0.538  0.00  0.00    +0.000 C 
ATOM     10  C   UNL     1       2.754  -2.228   0.213  0.00  0.00    +0.000 C 
ATOM     11  C   UNL     1       3.785  -1.272   0.796  0.00  0.00    +0.000 C 
ENDBRANCH   1   3
BRANCH   1  17
ATOM     12  C   UNL     1      -2.273  -0.344  -0.851  0.00  0.00    +0.000 A 
ATOM     13  C   UNL     1      -3.057  -1.455  -0.755  0.00  0.00    +0.000 A 
ATOM     14  C   UNL     1      -2.921  -2.383   0.259  0.00  0.00    +0.000 A 
ATOM     15  C   UNL     1      -1.955  -2.191   1.225  0.00  0.00    +0.000 A 
ATOM     16  C   UNL     1      -1.186  -1.086   1.118  0.00  0.00    +0.000 A 
ATOM     17  C   UNL     1      -1.286  -0.131   0.120  0.00  0.00    +0.000 A 
BRANCH  12  19
ATOM     18  C   UNL     1      -3.405   0.364  -2.843  0.00  0.00    +0.000 C 
ATOM     19  O   UNL     1      -2.388   0.601  -1.858  0.00  0.00    +0.000 OA
ENDBRANCH  12  19
ENDBRANCH   1  17
TORSDOF 3
