REMARK  Name = 
REMARK  4 active torsions:
REMARK  status: ('A' for Active; 'I' for Inactive)
REMARK    1  A    between atoms: C_6  and  C_7
REMARK    2  A    between atoms: C_10  and  C_11
REMARK    3  A    between atoms: C_14  and  C_15
REMARK    4  A    between atoms: C_15  and  C_16
REMARK                            x       y       z     vdW  Elec       q    Type
REMARK                         _______ _______ _______ _____ _____    ______ ____
ROOT
ATOM      1  C   UNL     1      -0.870   1.073  -3.542  0.00  0.00    +0.000 C 
ATOM      2  C   UNL     1      -1.816   0.593  -2.471  0.00  0.00    +0.000 A 
ATOM      3  S   UNL     1      -3.497   0.372  -2.533  0.00  0.00    +0.000 S 
ATOM      4  C   UNL     1      -3.760  -0.184  -0.951  0.00  0.00    +0.000 A 
ATOM      5  N   UNL     1      -5.010  -0.561  -0.327  0.00  0.00    +0.000 NA
ATOM      6  C   UNL     1      -2.499  -0.184  -0.398  0.00  0.00    +0.000 A 
ATOM      7  C   UNL     1      -1.485   0.220  -1.187  0.00  0.00    +0.000 A 
ENDROOT
BRANCH   7   8
ATOM      8  C   UNL     1      -0.066   0.302  -0.719  0.00  0.00    +0.000 A 
ATOM      9  C   UNL     1       0.337   1.333   0.097  0.00  0.00    +0.000 A 
ATOM     10  C   UNL     1       1.672   1.429   0.515  0.00  0.00    +0.000 A 
ATOM     11  C   UNL     1       2.621   0.510   0.133  0.00  0.00    +0.000 A 
ATOM     12  C   UNL     1       2.204  -0.516  -0.684  0.00  0.00    +0.000 A 
ATOM     13  C   UNL     1       0.887  -0.606  -1.093  0.00  0.00    +0.000 A 
BRANCH  11  14
ATOM     14  C   UNL     1       4.048   0.633   0.622  0.00  0.00    +0.000 C 
BRANCH  14  15
ATOM     15  C   UNL     1       4.231  -0.235   1.862  0.00  0.00    +0.000 C 
ATOM     16  C   UNL     1       3.896  -1.655   1.372  0.00  0.00    +0.000 C 
ATOM     17  C   UNL     1       5.735  -0.288   2.119  0.00  0.00    +0.000 C 
ENDBRANCH  14  15
ENDBRANCH  11  14
ENDBRANCH   7   8
BRANCH   6  18
ATOM     18  C   UNL     1      -2.320  -0.618   1.022  0.00  0.00    +0.000 C 
ATOM     19  N   UNL     1      -1.028  -0.644   1.632  0.00  0.00    +0.000 NA
ATOM     20  O   UNL     1      -3.279  -0.974   1.737  0.00  0.00    +0.000 OA
ENDBRANCH   6  18
TORSDOF 4
