REMARK  Name = 
REMARK  3 active torsions:
REMARK  status: ('A' for Active; 'I' for Inactive)
REMARK    1  A    between atoms: C_2  and  C_3
REMARK    2  A    between atoms: C_3  and  N_5
REMARK    3  A    between atoms: C_8  and  C_9
REMARK                            x       y       z     vdW  Elec       q    Type
REMARK                         _______ _______ _______ _____ _____    ______ ____
ROOT
ATOM      1  N   UNL     1       2.922  -1.178   1.139  0.00  0.00    +0.000 NA
ATOM      2  C   UNL     1       1.913  -1.383   0.121  0.00  0.00    +0.000 A 
ATOM      3  N   UNL     1       0.768  -0.764  -0.061  0.00  0.00    +0.000 NA
ATOM      4  C   UNL     1      -0.005  -1.102  -1.049  0.00  0.00    +0.000 A 
ATOM      5  C   UNL     1       0.447  -2.121  -1.865  0.00  0.00    +0.000 A 
ATOM      6  S   UNL     1       1.944  -2.514  -1.150  0.00  0.00    +0.000 S 
ENDROOT
BRANCH   4   7
ATOM      7  C   UNL     1      -1.314  -0.426  -1.293  0.00  0.00    +0.000 A 
ATOM      8  C   UNL     1      -2.214  -0.691  -2.296  0.00  0.00    +0.000 A 
ATOM      9  N   UNL     1      -3.281   0.130  -2.186  0.00  0.00    +0.000 NA
ATOM     10  C   UNL     1      -3.114   0.945  -1.122  0.00  0.00    +0.000 A 
ATOM     11  C   UNL     1      -3.848   1.954  -0.538  0.00  0.00    +0.000 A 
ATOM     12  C   UNL     1      -3.358   2.592   0.573  0.00  0.00    +0.000 A 
ATOM     13  C   UNL     1      -2.149   2.251   1.122  0.00  0.00    +0.000 A 
ATOM     14  C   UNL     1      -1.403   1.247   0.553  0.00  0.00    +0.000 A 
ATOM     15  C   UNL     1      -1.897   0.595  -0.578  0.00  0.00    +0.000 A 
ENDBRANCH   4   7
BRANCH   1  16
ATOM     16  C   UNL     1       2.526  -0.029   2.147  0.00  0.00    +0.000 C 
ATOM     17  C   UNL     1       3.147   1.179   1.197  0.00  0.00    +0.000 C 
BRANCH  16  19
ATOM     18  C   UNL     1       5.022  -0.518   2.176  0.00  0.00    +0.000 C 
ATOM     19  C   UNL     1       3.896  -0.167   3.055  0.00  0.00    +0.000 C 
ENDBRANCH  16  19
ENDBRANCH   1  16
TORSDOF 3
