REMARK  Name = 
REMARK  6 active torsions:
REMARK  status: ('A' for Active; 'I' for Inactive)
REMARK    1  A    between atoms: C_2  and  C_3
REMARK    2  A    between atoms: C_2  and  N_13
REMARK    3  A    between atoms: C_3  and  C_4
REMARK    4  A    between atoms: C_14  and  O_16
REMARK    5  A    between atoms: O_16  and  C_17
REMARK    6  A    between atoms: C_17  and  C_18
REMARK                            x       y       z     vdW  Elec       q    Type
REMARK                         _______ _______ _______ _____ _____    ______ ____
ROOT
ATOM      1  C   UNL     1       0.273  -0.294  -0.239  0.00  0.00    +0.000 C 
ENDROOT
BRANCH   1   2
ATOM      2  C   UNL     1      -1.043  -0.929  -0.172  0.00  0.00    +0.000 A 
ATOM      3  C   UNL     1      -1.253  -2.302   0.042  0.00  0.00    +0.000 A 
ATOM      4  N   UNL     1      -2.567  -2.514   0.078  0.00  0.00    +0.000 NA
ATOM      5  C   UNL     1      -3.208  -1.356  -0.101  0.00  0.00    +0.000 A 
ATOM      6  C   UNL     1      -4.539  -0.990  -0.171  0.00  0.00    +0.000 A 
ATOM      7  C   UNL     1      -4.979   0.282  -0.384  0.00  0.00    +0.000 A 
ATOM      8  C   UNL     1      -4.040   1.286  -0.543  0.00  0.00    +0.000 A 
ATOM      9  C   UNL     1      -2.726   0.972  -0.481  0.00  0.00    +0.000 A 
ATOM     10  C   UNL     1      -2.275  -0.324  -0.263  0.00  0.00    +0.000 A 
ENDBRANCH   1   2
BRANCH   1  12
ATOM     11  C   UNL     1      -0.751   1.191   1.375  0.00  0.00    +0.000 C 
ATOM     12  C   UNL     1       0.554   0.200   1.293  0.00  0.00    +0.000 C 
BRANCH  12  13
ATOM     13  N   UNL     1       1.544   1.355   0.878  0.00  0.00    +0.000 NA
ATOM     14  C   UNL     1       2.653   0.873   0.131  0.00  0.00    +0.000 C 
ATOM     15  O   UNL     1       2.733  -0.346  -0.115  0.00  0.00    +0.000 OA
BRANCH  14  16
ATOM     16  O   UNL     1       3.635   1.730  -0.323  0.00  0.00    +0.000 OA
BRANCH  16  17
ATOM     17  C   UNL     1       4.765   1.502  -1.036  0.00  0.00    +0.000 C 
BRANCH  17  18
ATOM     18  C   UNL     1       5.839   0.666  -0.498  0.00  0.00    +0.000 C 
ATOM     19 CL   UNL     1       5.385  -0.999  -0.163  0.00  0.00    +0.000 Cl
ENDBRANCH  17  18
ENDBRANCH  16  17
ENDBRANCH  14  16
ENDBRANCH  12  13
ENDBRANCH   1  12
TORSDOF 6
