REMARK  Name = 
REMARK  3 active torsions:
REMARK  status: ('A' for Active; 'I' for Inactive)
REMARK    1  A    between atoms: C_8  and  N_9
REMARK    2  A    between atoms: C_10  and  C_12
REMARK    3  A    between atoms: C_15  and  C_16
REMARK                            x       y       z     vdW  Elec       q    Type
REMARK                         _______ _______ _______ _____ _____    ______ ____
ROOT
ATOM      1  N   UNL     1       1.297  -0.002   0.318  0.00  0.00    +0.000 NA
ATOM      2  C   UNL     1       0.339   0.146  -0.759  0.00  0.00    +0.000 C 
ATOM      3  O   UNL     1       0.753   0.383  -1.871  0.00  0.00    +0.000 OA
ENDROOT
BRANCH   1  11
ATOM      4  C   UNL     1       3.320  -1.222   1.851  0.00  0.00    +0.000 C 
ATOM      5  C   UNL     1       3.681  -0.380   0.698  0.00  0.00    +0.000 A 
ATOM      6  C   UNL     1       5.081  -0.214   0.413  0.00  0.00    +0.000 A 
ATOM      7  C   UNL     1       5.278   0.570  -0.721  0.00  0.00    +0.000 A 
ATOM      8  O   UNL     1       6.675   0.785  -1.089  0.00  0.00    +0.000 OA
ATOM      9  C   UNL     1       4.370   1.109  -1.466  0.00  0.00    +0.000 A 
ATOM     10  C   UNL     1       3.008   0.928  -1.163  0.00  0.00    +0.000 A 
ATOM     11  C   UNL     1       2.693   0.176  -0.064  0.00  0.00    +0.000 A 
ENDBRANCH   1  11
BRANCH   2  12
ATOM     12  C   UNL     1      -1.092  -0.005  -0.446  0.00  0.00    +0.000 A 
ATOM     13  C   UNL     1      -1.483   0.653   0.773  0.00  0.00    +0.000 A 
ATOM     14  C   UNL     1      -2.784   0.449   1.138  0.00  0.00    +0.000 A 
ATOM     15  C   UNL     1      -3.739  -0.238   0.568  0.00  0.00    +0.000 A 
ATOM     16  C   UNL     1      -3.385  -0.905  -0.672  0.00  0.00    +0.000 A 
ATOM     17  C   UNL     1      -2.035  -0.711  -1.069  0.00  0.00    +0.000 A 
BRANCH  15  18
ATOM     18  C   UNL     1      -5.137  -0.380   1.089  0.00  0.00    +0.000 C 
ATOM     19  C   UNL     1      -5.682   0.983   1.515  0.00  0.00    +0.000 C 
ATOM     20  C   UNL     1      -5.133  -1.221   2.322  0.00  0.00    +0.000 C 
ATOM     21  C   UNL     1      -6.024  -0.903  -0.032  0.00  0.00    +0.000 C 
ENDBRANCH  15  18
ENDBRANCH   2  12
TORSDOF 3
