REMARK  Name = 
REMARK  1 active torsions:
REMARK  status: ('A' for Active; 'I' for Inactive)
REMARK    1  A    between atoms: C_5  and  C_7
REMARK                            x       y       z     vdW  Elec       q    Type
REMARK                         _______ _______ _______ _____ _____    ______ ____
ROOT
ATOM      1  C   UNL     1      -1.538  -2.319  -2.021  0.00  0.00    +0.000 C 
ATOM      2  C   UNL     1      -1.441  -2.194  -0.515  0.00  0.00    +0.000 C 
ATOM      3  C   UNL     1      -2.117  -3.337   0.190  0.00  0.00    +0.000 C 
ATOM      4  C   UNL     1       0.010  -2.040  -0.127  0.00  0.00    +0.000 C 
ATOM      5  C   UNL     1       0.265  -0.643  -0.722  0.00  0.00    +0.000 C 
ATOM      6  C   UNL     1       0.329  -0.810  -2.208  0.00  0.00    +0.000 C 
ATOM      7  C   UNL     1      -0.993   0.044  -0.285  0.00  0.00    +0.000 A 
ATOM      8  C   UNL     1      -1.197   1.382  -0.025  0.00  0.00    +0.000 A 
ATOM      9  C   UNL     1      -2.445   1.797   0.378  0.00  0.00    +0.000 A 
ATOM     10  N   UNL     1      -2.694   3.187   0.655  0.00  0.00    +0.000 NA
ATOM     11  C   UNL     1      -3.436   0.874   0.507  0.00  0.00    +0.000 A 
ATOM     12  C   UNL     1      -3.275  -0.471   0.258  0.00  0.00    +0.000 A 
ATOM     13  C   UNL     1      -2.007  -0.877  -0.149  0.00  0.00    +0.000 A 
ENDROOT
BRANCH   5  14
ATOM     14  C   UNL     1       1.464  -0.035  -0.128  0.00  0.00    +0.000 A 
ATOM     15  C   UNL     1       2.328  -0.710   0.733  0.00  0.00    +0.000 A 
ATOM     16  C   UNL     1       3.446  -0.088   1.269  0.00  0.00    +0.000 A 
ATOM     17  C   UNL     1       3.742   1.227   0.966  0.00  0.00    +0.000 A 
ATOM     18  N   UNL     1       4.900   1.842   1.531  0.00  0.00    +0.000 NA
ATOM     19  C   UNL     1       2.893   1.901   0.116  0.00  0.00    +0.000 A 
ATOM     20  C   UNL     1       1.767   1.270  -0.421  0.00  0.00    +0.000 A 
ENDBRANCH   5  14
TORSDOF 1
