REMARK  Name = 
REMARK  2 active torsions:
REMARK  status: ('A' for Active; 'I' for Inactive)
REMARK    1  A    between atoms: C_2  and  C_3
REMARK    2  A    between atoms: C_3  and  C_4
REMARK                            x       y       z     vdW  Elec       q    Type
REMARK                         _______ _______ _______ _____ _____    ______ ____
ROOT
ATOM      1  C   UNL     1      -2.167  -0.250  -0.600  0.00  0.00    +0.000 A 
ATOM      2  C   UNL     1      -1.095   0.616  -0.524  0.00  0.00    +0.000 A 
ATOM      3  C   UNL     1       0.174   0.176  -0.198  0.00  0.00    +0.000 A 
ATOM      4  C   UNL     1       0.367  -1.166   0.057  0.00  0.00    +0.000 A 
ATOM      5  O   UNL     1       1.575  -1.548   0.361  0.00  0.00    +0.000 OA
ATOM      6  C   UNL     1       2.606  -0.743   0.438  0.00  0.00    +0.000 A 
ATOM      7  O   UNL     1       3.729  -1.201   0.737  0.00  0.00    +0.000 OA
ATOM      8  C   UNL     1       2.487   0.605   0.197  0.00  0.00    +0.000 A 
ATOM      9  C   UNL     1       3.538   1.492   0.264  0.00  0.00    +0.000 A 
ATOM     10  C   UNL     1       3.341   2.822   0.009  0.00  0.00    +0.000 A 
ATOM     11  C   UNL     1       2.086   3.286  -0.317  0.00  0.00    +0.000 A 
ATOM     12  C   UNL     1       1.037   2.408  -0.385  0.00  0.00    +0.000 A 
ATOM     13  C   UNL     1       1.234   1.079  -0.131  0.00  0.00    +0.000 A 
ATOM     14  C   UNL     1      -0.694  -2.044  -0.014  0.00  0.00    +0.000 A 
ATOM     15  C   UNL     1      -0.446  -3.485   0.268  0.00  0.00    +0.000 C 
ATOM     16  C   UNL     1      -1.978  -1.589  -0.346  0.00  0.00    +0.000 A 
ATOM     17  O   UNL     1      -2.990  -2.541  -0.396  0.00  0.00    +0.000 OA
ENDROOT
BRANCH   1  18
ATOM     18  C   UNL     1      -3.521   0.230  -0.944  0.00  0.00    +0.000 C 
BRANCH  18  20
ATOM     19  C   UNL     1      -4.892   1.531   0.598  0.00  0.00    +0.000 C 
ATOM     20  C   UNL     1      -4.394   0.322   0.274  0.00  0.00    +0.000 C 
ENDBRANCH  18  20
ENDBRANCH   1  18
TORSDOF 2
