REMARK  Name = 
REMARK  3 active torsions:
REMARK  status: ('A' for Active; 'I' for Inactive)
REMARK    1  A    between atoms: C_5  and  N_6
REMARK    2  A    between atoms: C_7  and  S_9
REMARK    3  A    between atoms: S_9  and  C_10
REMARK                            x       y       z     vdW  Elec       q    Type
REMARK                         _______ _______ _______ _____ _____    ______ ____
ROOT
ATOM      1  N   UNL     1      -1.020  -0.179  -1.665  0.00  0.00    +0.000 NA
ATOM      2  C   UNL     1       0.212  -0.105  -0.972  0.00  0.00    +0.000 C 
ATOM      3  O   UNL     1       0.215  -0.099   0.272  0.00  0.00    +0.000 OA
ENDROOT
BRANCH   1   8
ATOM      4  C   UNL     1      -5.777  -0.433   1.526  0.00  0.00    +0.000 C 
ATOM      5  C   UNL     1      -4.567  -0.369   0.666  0.00  0.00    +0.000 A 
ATOM      6  C   UNL     1      -4.630  -0.379  -0.712  0.00  0.00    +0.000 A 
ATOM      7  C   UNL     1      -3.469  -0.317  -1.480  0.00  0.00    +0.000 A 
ATOM      8  C   UNL     1      -2.226  -0.243  -0.895  0.00  0.00    +0.000 A 
ATOM      9  C   UNL     1      -2.198  -0.235   0.493  0.00  0.00    +0.000 A 
ATOM     10  C   UNL     1      -3.334  -0.295   1.251  0.00  0.00    +0.000 A 
ATOM     11  C   UNL     1      -3.210  -0.281   2.744  0.00  0.00    +0.000 C 
ENDBRANCH   1   8
BRANCH   2  12
ATOM     12  S   UNL     1       1.788  -0.020  -1.835  0.00  0.00    +0.000 S 
BRANCH  12  13
ATOM     13  C   UNL     1       3.135   0.063  -0.680  0.00  0.00    +0.000 A 
ATOM     14  C   UNL     1       3.710  -1.099  -0.239  0.00  0.00    +0.000 A 
ATOM     15  C   UNL     1       4.762  -1.105   0.660  0.00  0.00    +0.000 A 
ATOM     16  C   UNL     1       5.251   0.093   1.130  0.00  0.00    +0.000 A 
ATOM     17  C   UNL     1       4.673   1.261   0.687  0.00  0.00    +0.000 A 
ATOM     18  C   UNL     1       3.618   1.266  -0.215  0.00  0.00    +0.000 A 
ATOM     19  O   UNL     1       3.068   2.478  -0.632  0.00  0.00    +0.000 OA
ENDBRANCH  12  13
ENDBRANCH   2  12
TORSDOF 3
