REMARK  Name = 
REMARK  3 active torsions:
REMARK  status: ('A' for Active; 'I' for Inactive)
REMARK    1  A    between atoms: O_2  and  C_3
REMARK    2  A    between atoms: C_8  and  O_9
REMARK    3  A    between atoms: C_11  and  C_12
REMARK                            x       y       z     vdW  Elec       q    Type
REMARK                         _______ _______ _______ _____ _____    ______ ____
ROOT
ATOM      1  C   UNL     1       2.870  -0.029  -0.122  0.00  0.00    +0.000 A 
ATOM      2  C   UNL     1       2.394   1.174  -0.592  0.00  0.00    +0.000 A 
ATOM      3  C   UNL     1       1.010   1.308  -0.856  0.00  0.00    +0.000 A 
ATOM      4  C   UNL     1       0.182   0.293  -0.660  0.00  0.00    +0.000 A 
ATOM      5  C   UNL     1       0.649  -0.920  -0.185  0.00  0.00    +0.000 A 
ATOM      6  C   UNL     1       1.984  -1.065   0.077  0.00  0.00    +0.000 A 
ATOM      7  C   UNL     1      -1.328   0.360  -1.058  0.00  0.00    +0.000 C 
ATOM      8  C   UNL     1      -1.693   1.823  -0.479  0.00  0.00    +0.000 C 
ATOM      9  C   UNL     1      -0.883   2.717  -1.378  0.00  0.00    +0.000 C 
ATOM     10  O   UNL     1      -1.416   3.462  -2.157  0.00  0.00    +0.000 OA
ATOM     11  N   UNL     1       0.545   2.622  -1.243  0.00  0.00    +0.000 NA
ENDROOT
BRANCH   7  12
ATOM     12  C   UNL     1      -1.950  -0.492   0.093  0.00  0.00    +0.000 A 
ATOM     13  C   UNL     1      -1.512  -1.764   0.138  0.00  0.00    +0.000 A 
ATOM     14  C   UNL     1      -2.003  -2.634   1.121  0.00  0.00    +0.000 A 
ATOM     15  C   UNL     1      -2.924  -2.169   2.023  0.00  0.00    +0.000 A 
ATOM     16  C   UNL     1      -3.341  -0.862   1.938  0.00  0.00    +0.000 A 
ATOM     17  C   UNL     1      -2.844  -0.010   0.954  0.00  0.00    +0.000 A 
ATOM     18  C   UNL     1      -3.297   1.397   0.868  0.00  0.00    +0.000 C 
ENDBRANCH   7  12
BRANCH   1  20
ATOM     19  C   UNL     1       5.222   0.702   0.014  0.00  0.00    +0.000 C 
ATOM     20  O   UNL     1       4.206  -0.258   0.166  0.00  0.00    +0.000 OA
ENDBRANCH   1  20
BRANCH   6  21
ATOM     21  O   UNL     1       2.516  -2.284   0.563  0.00  0.00    +0.000 OA
ATOM     22  C   UNL     1       1.613  -3.371   0.776  0.00  0.00    +0.000 C 
ENDBRANCH   6  21
TORSDOF 3
