REMARK  Name = 
REMARK  2 active torsions:
REMARK  status: ('A' for Active; 'I' for Inactive)
REMARK    1  A    between atoms: C_2  and  C_11
REMARK    2  A    between atoms: N_3  and  C_4
REMARK                            x       y       z     vdW  Elec       q    Type
REMARK                         _______ _______ _______ _____ _____    ______ ____
ROOT
ATOM      1  O   UNL     1      -0.405   1.845  -1.531  0.00  0.00    +0.000 OA
ATOM      2  C   UNL     1       0.108   0.886  -0.917  0.00  0.00    +0.000 C 
ATOM      3  N   UNL     1      -0.696   0.132  -0.055  0.00  0.00    +0.000 NA
ENDROOT
BRANCH   2   4
ATOM      4  C   UNL     1       1.536   0.536  -1.081  0.00  0.00    +0.000 A 
ATOM      5  S   UNL     1       2.720   1.282  -2.056  0.00  0.00    +0.000 S 
ATOM      6  C   UNL     1       4.055   0.265  -1.652  0.00  0.00    +0.000 A 
ATOM      7  C   UNL     1       3.500  -0.607  -0.773  0.00  0.00    +0.000 A 
ATOM      8  C   UNL     1       2.202  -0.468  -0.478  0.00  0.00    +0.000 A 
ATOM      9  C   UNL     1       1.651  -1.476   0.509  0.00  0.00    +0.000 C 
ATOM     10  C   UNL     1       2.536  -1.438   1.738  0.00  0.00    +0.000 C 
ATOM     11  C   UNL     1       3.971  -1.679   1.389  0.00  0.00    +0.000 C 
ATOM     12  C   UNL     1       4.226  -1.743  -0.082  0.00  0.00    +0.000 C 
ENDBRANCH   2   4
BRANCH   3  13
ATOM     13  C   UNL     1      -2.076   0.383   0.174  0.00  0.00    +0.000 A 
ATOM     14  C   UNL     1      -2.795   1.392  -0.416  0.00  0.00    +0.000 A 
ATOM     15  C   UNL     1      -4.152   1.574  -0.138  0.00  0.00    +0.000 A 
ATOM     16  C   UNL     1      -4.798   0.732   0.746  0.00  0.00    +0.000 A 
ATOM     17  C   UNL     1      -4.082  -0.287   1.345  0.00  0.00    +0.000 A 
ATOM     18  O   UNL     1      -4.767  -1.110   2.225  0.00  0.00    +0.000 OA
ATOM     19  C   UNL     1      -2.735  -0.450   1.054  0.00  0.00    +0.000 A 
ENDBRANCH   3  13
TORSDOF 2
