REMARK  Name = 
REMARK  4 active torsions:
REMARK  status: ('A' for Active; 'I' for Inactive)
REMARK    1  A    between atoms: N_8  and  N_9
REMARK    2  A    between atoms: C_10  and  C_12
REMARK    3  A    between atoms: C_12  and  N_13
REMARK    4  A    between atoms: N_13  and  C_14
REMARK                            x       y       z     vdW  Elec       q    Type
REMARK                         _______ _______ _______ _____ _____    ______ ____
ROOT
ATOM      1  N   UNL     1      -1.137   0.781   0.520  0.00  0.00    +0.000 NA
ATOM      2  C   UNL     1       0.210   1.102   0.157  0.00  0.00    +0.000 C 
ATOM      3  O   UNL     1       0.689   0.604  -0.897  0.00  0.00    +0.000 OA
ENDROOT
BRANCH   1  11
ATOM      4  C   UNL     1      -3.112  -2.498  -0.531  0.00  0.00    +0.000 C 
ATOM      5  C   UNL     1      -3.757  -1.198  -1.306  0.00  0.00    +0.000 C 
ATOM      6  C   UNL     1      -5.178  -1.327  -0.524  0.00  0.00    +0.000 C 
ATOM      7  C   UNL     1      -5.859  -0.024  -0.948  0.00  0.00    +0.000 C 
ATOM      8  C   UNL     1      -5.304   1.055  -0.040  0.00  0.00    +0.000 C 
ATOM      9  C   UNL     1      -3.995   0.630   0.578  0.00  0.00    +0.000 C 
ATOM     10  C   UNL     1      -3.146  -0.154  -0.286  0.00  0.00    +0.000 C 
ATOM     11  N   UNL     1      -1.877  -0.056  -0.280  0.00  0.00    +0.000 NA
ENDBRANCH   1  11
BRANCH   2  12
ATOM     12  C   UNL     1       0.998   2.007   1.028  0.00  0.00    +0.000 C 
BRANCH  12  13
ATOM     13  N   UNL     1       2.310   2.156   0.437  0.00  0.00    +0.000 NA
BRANCH  13  14
ATOM     14  C   UNL     1       3.108   0.981   0.310  0.00  0.00    +0.000 A 
ATOM     15  C   UNL     1       2.720  -0.262   0.736  0.00  0.00    +0.000 A 
ATOM     16  C   UNL     1       3.514  -1.378   0.599  0.00  0.00    +0.000 A 
ATOM     17  C   UNL     1       4.739  -1.217   0.009  0.00  0.00    +0.000 A 
ATOM     18  F   UNL     1       5.544  -2.307  -0.139  0.00  0.00    +0.000 F 
ATOM     19  C   UNL     1       5.179   0.006  -0.437  0.00  0.00    +0.000 A 
ATOM     20  C   UNL     1       4.356   1.099  -0.282  0.00  0.00    +0.000 A 
ENDBRANCH  13  14
ENDBRANCH  12  13
ENDBRANCH   2  12
TORSDOF 4
