REMARK  Name = 
REMARK  2 active torsions:
REMARK  status: ('A' for Active; 'I' for Inactive)
REMARK    1  A    between atoms: C_6  and  N_7
REMARK    2  A    between atoms: C_8  and  C_10
REMARK                            x       y       z     vdW  Elec       q    Type
REMARK                         _______ _______ _______ _____ _____    ______ ____
ROOT
ATOM      1  N   UNL     1       0.741   0.301   0.170  0.00  0.00    +0.000 NA
ATOM      2  C   UNL     1       0.097  -0.878  -0.282  0.00  0.00    +0.000 C 
ATOM      3  O   UNL     1       0.846  -1.791  -0.695  0.00  0.00    +0.000 OA
ENDROOT
BRANCH   2   4
ATOM      4  C   UNL     1      -1.388  -1.022  -0.267  0.00  0.00    +0.000 A 
ATOM      5  C   UNL     1      -1.941  -2.191  -0.720  0.00  0.00    +0.000 A 
ATOM      6  N   UNL     1      -1.291  -3.374  -1.238  0.00  0.00    +0.000 NA
ATOM      7  S   UNL     1      -3.613  -1.933  -0.530  0.00  0.00    +0.000 S 
ATOM      8  C   UNL     1      -3.576  -0.360   0.115  0.00  0.00    +0.000 A 
ATOM      9  C   UNL     1      -2.255  -0.073   0.167  0.00  0.00    +0.000 A 
ATOM     10  C   UNL     1      -1.899   1.301   0.715  0.00  0.00    +0.000 C 
ATOM     11  C   UNL     1      -2.917   1.653   1.778  0.00  0.00    +0.000 C 
ATOM     12  C   UNL     1      -4.228   1.852   1.027  0.00  0.00    +0.000 C 
ATOM     13  C   UNL     1      -4.689   0.531   0.536  0.00  0.00    +0.000 C 
ENDBRANCH   2   4
BRANCH   1  19
ATOM     14  C   UNL     1       4.810   2.898   1.034  0.00  0.00    +0.000 C 
ATOM     15  C   UNL     1       4.186   1.649   0.552  0.00  0.00    +0.000 A 
ATOM     16  C   UNL     1       4.925   0.606   0.086  0.00  0.00    +0.000 A 
ATOM     17  C   UNL     1       4.307  -0.529  -0.349  0.00  0.00    +0.000 A 
ATOM     18  C   UNL     1       2.938  -0.616  -0.316  0.00  0.00    +0.000 A 
ATOM     19  C   UNL     1       2.158   0.420   0.148  0.00  0.00    +0.000 A 
ATOM     20  C   UNL     1       2.790   1.557   0.584  0.00  0.00    +0.000 A 
ENDBRANCH   1  19
TORSDOF 2
