REMARK  Name = 
REMARK  1 active torsions:
REMARK  status: ('A' for Active; 'I' for Inactive)
REMARK    1  A    between atoms: C_11  and  C_13
REMARK                            x       y       z     vdW  Elec       q    Type
REMARK                         _______ _______ _______ _____ _____    ______ ____
ROOT
ATOM      1  C   UNL     1      -3.209  -1.799   0.438  0.00  0.00    +0.000 C 
ATOM      2  C   UNL     1      -3.207  -0.519  -0.369  0.00  0.00    +0.000 C 
ATOM      3  C   UNL     1      -4.128  -0.687  -1.531  0.00  0.00    +0.000 C 
ATOM      4  C   UNL     1      -1.874  -0.148  -0.884  0.00  0.00    +0.000 C 
ATOM      5  C   UNL     1      -0.744  -0.450   0.283  0.00  0.00    +0.000 C 
ATOM      6  C   UNL     1      -1.747  -0.331   1.598  0.00  0.00    +0.000 C 
ATOM      7  C   UNL     1      -2.423   0.962   1.332  0.00  0.00    +0.000 C 
ATOM      8  C   UNL     1      -2.803   1.601   2.657  0.00  0.00    +0.000 C 
ATOM      9  C   UNL     1      -1.398   1.838   0.683  0.00  0.00    +0.000 C 
ATOM     10  N   UNL     1      -0.296   1.040   0.385  0.00  0.00    +0.000 N 
ATOM     11  C   UNL     1       1.038   1.356   0.182  0.00  0.00    +0.000 C 
ATOM     12  O   UNL     1       1.412   2.573   0.264  0.00  0.00    +0.000 OA
ATOM     13  C   UNL     1      -3.638   0.667   0.482  0.00  0.00    +0.000 C 
ENDROOT
BRANCH  11  14
ATOM     14  C   UNL     1       2.078   0.393  -0.126  0.00  0.00    +0.000 A 
ATOM     15  C   UNL     1       1.712  -0.930  -0.222  0.00  0.00    +0.000 A 
ATOM     16  C   UNL     1       2.634  -1.923  -0.512  0.00  0.00    +0.000 A 
ATOM     17  C   UNL     1       3.945  -1.557  -0.705  0.00  0.00    +0.000 A 
ATOM     18  N   UNL     1       4.922  -2.573  -1.007  0.00  0.00    +0.000 NA
ATOM     19  C   UNL     1       4.332  -0.243  -0.613  0.00  0.00    +0.000 A 
ATOM     20  C   UNL     1       3.393   0.732  -0.322  0.00  0.00    +0.000 A 
ENDBRANCH  11  14
TORSDOF 1
