REMARK  Name = 
REMARK  6 active torsions:
REMARK  status: ('A' for Active; 'I' for Inactive)
REMARK    1  A    between atoms: C_2  and  C_3
REMARK    2  A    between atoms: C_3  and  C_4
REMARK    3  A    between atoms: N_6  and  C_7
REMARK    4  A    between atoms: C_7  and  N_9
REMARK    5  A    between atoms: N_9  and  C_10
REMARK    6  A    between atoms: C_12  and  N_13
REMARK                            x       y       z     vdW  Elec       q    Type
REMARK                         _______ _______ _______ _____ _____    ______ ____
ROOT
ATOM      1  C   UNL     1      -0.495  -0.256  -1.271  0.00  0.00    +0.000 A 
ATOM      2  C   UNL     1      -1.218   0.092  -0.124  0.00  0.00    +0.000 A 
ATOM      3  C   UNL     1      -2.573   0.130  -0.034  0.00  0.00    +0.000 A 
ATOM      4  C   UNL     1      -3.272  -0.207  -1.182  0.00  0.00    +0.000 A 
ATOM      5  C   UNL     1      -2.607  -0.557  -2.338  0.00  0.00    +0.000 A 
ATOM      6  C   UNL     1      -1.255  -0.594  -2.426  0.00  0.00    +0.000 A 
ATOM      7  C   UNL     1      -0.512  -0.963  -3.652  0.00  0.00    +0.000 C 
ENDROOT
BRANCH   3   8
ATOM      8  N   UNL     1      -3.276   0.488   1.155  0.00  0.00    +0.000 N 
ATOM      9  O   UNL     1      -4.518   0.501   1.203  0.00  0.00    +0.000 OA
ATOM     10  O   UNL     1      -2.564   0.826   2.275  0.00  0.00    +0.000 OA
ENDBRANCH   3   8
BRANCH   1  11
ATOM     11  N   UNL     1       0.827  -0.272  -1.270  0.00  0.00    +0.000 NA
BRANCH  11  12
ATOM     12  C   UNL     1       2.132  -0.288  -1.269  0.00  0.00    +0.000 C 
ATOM     13  S   UNL     1       2.963  -0.721  -2.688  0.00  0.00    +0.000 S 
BRANCH  12  16
ATOM     14  C   UNL     1       2.677   0.414   1.094  0.00  0.00    +0.000 C 
ATOM     15  O   UNL     1       1.475   0.518   1.410  0.00  0.00    +0.000 OA
ATOM     16  N   UNL     1       3.004   0.023  -0.203  0.00  0.00    +0.000 NA
BRANCH  14  17
ATOM     17  C   UNL     1       3.778   0.701   2.082  0.00  0.00    +0.000 C 
BRANCH  17  19
ATOM     18  C   UNL     1       2.290  -0.082   3.851  0.00  0.00    +0.000 C 
ATOM     19  C   UNL     1       3.144   1.088   3.389  0.00  0.00    +0.000 C 
ENDBRANCH  17  19
ENDBRANCH  14  17
ENDBRANCH  12  16
ENDBRANCH  11  12
ENDBRANCH   1  11
TORSDOF 6
