REMARK  Name = 
REMARK  3 active torsions:
REMARK  status: ('A' for Active; 'I' for Inactive)
REMARK    1  A    between atoms: O_2  and  C_3
REMARK    2  A    between atoms: C_8  and  O_9
REMARK    3  A    between atoms: C_15  and  C_16
REMARK                            x       y       z     vdW  Elec       q    Type
REMARK                         _______ _______ _______ _____ _____    ______ ____
ROOT
ATOM      1  C   UNL     1      -2.683  -0.712   1.178  0.00  0.00    +0.000 A 
ATOM      2  C   UNL     1      -1.498  -1.363   0.997  0.00  0.00    +0.000 A 
ATOM      3  C   UNL     1      -0.582  -0.918   0.026  0.00  0.00    +0.000 A 
ATOM      4  C   UNL     1      -0.887   0.178  -0.742  0.00  0.00    +0.000 A 
ATOM      5  C   UNL     1      -2.102   0.853  -0.564  0.00  0.00    +0.000 A 
ATOM      6  C   UNL     1      -2.961   0.385   0.392  0.00  0.00    +0.000 A 
ATOM      7  C   UNL     1       0.068   0.606  -1.724  0.00  0.00    +0.000 C 
ATOM      8  C   UNL     1      -0.323   1.817  -2.538  0.00  0.00    +0.000 C 
ATOM      9  N   UNL     1       1.145   0.026  -1.898  0.00  0.00    +0.000 N 
ATOM     10  O   UNL     1       2.014   0.486  -2.853  0.00  0.00    +0.000 OA
ATOM     11  C   UNL     1       1.679  -1.179  -1.180  0.00  0.00    +0.000 C 
ATOM     12  N   UNL     1       0.624  -1.540  -0.194  0.00  0.00    +0.000 NA
ENDROOT
BRANCH  11  13
ATOM     13  C   UNL     1       2.671  -0.406  -0.211  0.00  0.00    +0.000 A 
ATOM     14  C   UNL     1       3.450   0.575  -0.763  0.00  0.00    +0.000 A 
ATOM     15  C   UNL     1       4.337   1.264   0.077  0.00  0.00    +0.000 A 
ATOM     16  C   UNL     1       4.387   0.928   1.409  0.00  0.00    +0.000 A 
ATOM     17  C   UNL     1       3.598  -0.058   1.944  0.00  0.00    +0.000 A 
ATOM     18  C   UNL     1       2.738  -0.715   1.094  0.00  0.00    +0.000 A 
ENDBRANCH  11  13
BRANCH   1  20
ATOM     19  C   UNL     1      -3.336  -2.264   2.954  0.00  0.00    +0.000 C 
ATOM     20  O   UNL     1      -3.626  -1.136   2.148  0.00  0.00    +0.000 OA
ENDBRANCH   1  20
BRANCH   6  21
ATOM     21  O   UNL     1      -4.180   1.020   0.608  0.00  0.00    +0.000 OA
ATOM     22  C   UNL     1      -4.534   2.151  -0.160  0.00  0.00    +0.000 C 
ENDBRANCH   6  21
TORSDOF 3
