REMARK  Name = 
REMARK  4 active torsions:
REMARK  status: ('A' for Active; 'I' for Inactive)
REMARK    1  A    between atoms: C_2  and  C_3
REMARK    2  A    between atoms: N_5  and  C_6
REMARK    3  A    between atoms: C_6  and  C_7
REMARK    4  A    between atoms: C_7  and  C_9
REMARK                            x       y       z     vdW  Elec       q    Type
REMARK                         _______ _______ _______ _____ _____    ______ ____
ROOT
ATOM      1  C   UNL     1       1.661  -1.439  -0.836  0.00  0.00    +0.000 C 
ATOM      2  O   UNL     1       2.811  -1.920  -1.162  0.00  0.00    +0.000 OA
ENDROOT
BRANCH   1   3
ATOM      3  C   UNL     1       1.654  -0.555   0.314  0.00  0.00    +0.000 A 
ATOM      4  C   UNL     1       1.979  -0.927   1.625  0.00  0.00    +0.000 A 
ATOM      5  N   UNL     1       1.798   0.145   2.406  0.00  0.00    +0.000 NA
ATOM      6  C   UNL     1       1.376   1.190   1.680  0.00  0.00    +0.000 A 
ATOM      7  C   UNL     1       1.065   2.513   2.018  0.00  0.00    +0.000 A 
ATOM      8  C   UNL     1       0.663   3.399   1.040  0.00  0.00    +0.000 A 
ATOM      9  C   UNL     1       0.572   2.979  -0.259  0.00  0.00    +0.000 A 
ATOM     10  C   UNL     1       0.875   1.669  -0.624  0.00  0.00    +0.000 A 
ATOM     11  C   UNL     1       1.280   0.775   0.375  0.00  0.00    +0.000 A 
ENDBRANCH   1   3
BRANCH   1  12
ATOM     12  C   UNL     1       0.543  -1.844  -1.655  0.00  0.00    +0.000 C 
BRANCH  12  15
ATOM     13  C   UNL     1      -2.584  -0.092  -1.060  0.00  0.00    +0.000 A 
ATOM     14  N   UNL     1      -1.379  -0.395  -1.517  0.00  0.00    +0.000 NA
ATOM     15  N   UNL     1      -0.786  -1.448  -1.153  0.00  0.00    +0.000 N 
ATOM     16  C   UNL     1      -1.422  -2.263  -0.275  0.00  0.00    +0.000 A 
ATOM     17  N   UNL     1      -0.936  -3.505   0.276  0.00  0.00    +0.000 NA
ATOM     18  S   UNL     1      -2.886  -1.419  -0.030  0.00  0.00    +0.000 S 
BRANCH  13  20
ATOM     19  C   UNL     1      -2.818   2.040  -2.308  0.00  0.00    +0.000 C 
ATOM     20  C   UNL     1      -3.466   1.097  -1.352  0.00  0.00    +0.000 C 
ENDBRANCH  13  20
ENDBRANCH  12  15
ENDBRANCH   1  12
TORSDOF 4
