REMARK  Name = 
REMARK  1 active torsions:
REMARK  status: ('A' for Active; 'I' for Inactive)
REMARK    1  A    between atoms: C_3  and  C_4
REMARK                            x       y       z     vdW  Elec       q    Type
REMARK                         _______ _______ _______ _____ _____    ______ ____
ROOT
ATOM      1  C   UNL     1      -0.457  -0.849   0.603  0.00  0.00    +0.000 C 
ATOM      2  C   UNL     1      -1.389   0.001   0.214  0.00  0.00    +0.000 C 
ATOM      3  C   UNL     1      -1.285   1.190  -0.619  0.00  0.00    +0.000 C 
ATOM      4  O   UNL     1      -0.237   1.614  -1.119  0.00  0.00    +0.000 OA
ATOM      5  N   UNL     1      -2.617   1.736  -0.725  0.00  0.00    +0.000 NA
ATOM      6  C   UNL     1      -3.526   0.936   0.005  0.00  0.00    +0.000 A 
ATOM      7  N   UNL     1      -4.874   1.065   0.187  0.00  0.00    +0.000 NA
ATOM      8  C   UNL     1      -5.574   0.190   0.925  0.00  0.00    +0.000 A 
ATOM      9  C   UNL     1      -4.904  -0.862   1.510  0.00  0.00    +0.000 A 
ATOM     10  C   UNL     1      -3.529  -1.002   1.330  0.00  0.00    +0.000 A 
ATOM     11  C   UNL     1      -2.823  -0.096   0.569  0.00  0.00    +0.000 A 
ENDROOT
BRANCH   1  14
ATOM     12  C   UNL     1       1.932  -1.218   2.447  0.00  0.00    +0.000 C 
ATOM     13  C   UNL     1       2.064  -0.838   1.002  0.00  0.00    +0.000 A 
ATOM     14  C   UNL     1       0.927  -0.668   0.191  0.00  0.00    +0.000 A 
ATOM     15  N   UNL     1       1.438  -0.339  -1.006  0.00  0.00    +0.000 NA
ATOM     16  C   UNL     1       2.781  -0.296  -0.985  0.00  0.00    +0.000 A 
ATOM     17  C   UNL     1       3.207  -0.609   0.280  0.00  0.00    +0.000 A 
ATOM     18  C   UNL     1       4.623  -0.668   0.715  0.00  0.00    +0.000 C 
ATOM     19  C   UNL     1       5.556  -0.049  -0.281  0.00  0.00    +0.000 C 
ATOM     20  C   UNL     1       4.906   0.748  -1.351  0.00  0.00    +0.000 C 
ATOM     21  C   UNL     1       3.781   0.014  -2.046  0.00  0.00    +0.000 C 
ENDBRANCH   1  14
TORSDOF 1
