REMARK  Name = 
REMARK  4 active torsions:
REMARK  status: ('A' for Active; 'I' for Inactive)
REMARK    1  A    between atoms: C_2  and  C_3
REMARK    2  A    between atoms: C_3  and  N_4
REMARK    3  A    between atoms: C_5  and  C_6
REMARK    4  A    between atoms: C_6  and  C_7
REMARK                            x       y       z     vdW  Elec       q    Type
REMARK                         _______ _______ _______ _____ _____    ______ ____
ROOT
ATOM      1  C   UNL     1      -0.002  -1.275   1.043  0.00  0.00    +0.000 C 
ENDROOT
BRANCH   1   2
ATOM      2  C   UNL     1      -1.180  -0.903   0.199  0.00  0.00    +0.000 A 
ATOM      3  C   UNL     1      -1.831  -1.643  -0.754  0.00  0.00    +0.000 A 
ATOM      4  C   UNL     1      -1.469  -3.034  -1.153  0.00  0.00    +0.000 C 
ATOM      5  N   UNL     1      -2.825  -0.891  -1.244  0.00  0.00    +0.000 NA
ATOM      6  C   UNL     1      -2.866   0.326  -0.654  0.00  0.00    +0.000 A 
ATOM      7  C   UNL     1      -3.697   1.413  -0.829  0.00  0.00    +0.000 A 
ATOM      8  C   UNL     1      -3.479   2.531  -0.063  0.00  0.00    +0.000 A 
ATOM      9  C   UNL     1      -2.450   2.530   0.843  0.00  0.00    +0.000 A 
ATOM     10  C   UNL     1      -1.624   1.445   1.015  0.00  0.00    +0.000 A 
ATOM     11  C   UNL     1      -1.829   0.313   0.253  0.00  0.00    +0.000 A 
ENDBRANCH   1   2
BRANCH   1  13
ATOM     12  N   UNL     1       2.077  -0.166   0.055  0.00  0.00    +0.000 N 
ATOM     13  C   UNL     1       1.256  -1.218   0.242  0.00  0.00    +0.000 A 
ATOM     14  N   UNL     1       1.794  -2.234  -0.444  0.00  0.00    +0.000 NA
ATOM     15  N   UNL     1       2.905  -1.826  -1.032  0.00  0.00    +0.000 NA
ATOM     16  C   UNL     1       3.086  -0.531  -0.722  0.00  0.00    +0.000 A 
ATOM     17  S   UNL     1       4.367   0.359  -1.262  0.00  0.00    +0.000 S 
BRANCH  12  18
ATOM     18  C   UNL     1       1.874   1.138   0.616  0.00  0.00    +0.000 C 
BRANCH  18  20
ATOM     19  C   UNL     1       3.406   2.319   2.075  0.00  0.00    +0.000 C 
ATOM     20  C   UNL     1       2.487   1.347   1.935  0.00  0.00    +0.000 C 
ENDBRANCH  18  20
ENDBRANCH  12  18
ENDBRANCH   1  13
TORSDOF 4
