REMARK  Name = 
REMARK  6 active torsions:
REMARK  status: ('A' for Active; 'I' for Inactive)
REMARK    1  A    between atoms: C_2  and  C_3
REMARK    2  A    between atoms: C_3  and  N_4
REMARK    3  A    between atoms: C_6  and  C_7
REMARK    4  A    between atoms: C_23  and  C_24
REMARK    5  A    between atoms: C_24  and  C_25
REMARK    6  A    between atoms: C_25  and  N_26
REMARK                            x       y       z     vdW  Elec       q    Type
REMARK                         _______ _______ _______ _____ _____    ______ ____
ROOT
ATOM      1  O   UNL     1       0.573   1.283   1.409  0.00  0.00    +0.000 OA
ATOM      2  C   UNL     1      -0.314   0.724   0.679  0.00  0.00    +0.000 C 
ATOM      3  N   UNL     1      -1.603   0.434   1.189  0.00  0.00    +0.000 N 
ATOM      4  C   UNL     1      -1.962   0.760   2.501  0.00  0.00    +0.000 C 
ATOM      5  C   UNL     1      -2.492  -0.406   3.299  0.00  0.00    +0.000 C 
ATOM      6  C   UNL     1      -3.374  -1.211   2.369  0.00  0.00    +0.000 C 
ATOM      7  C   UNL     1      -3.822  -0.336   1.252  0.00  0.00    +0.000 C 
ATOM      8  C   UNL     1      -2.559  -0.264   0.188  0.00  0.00    +0.000 C 
ENDROOT
BRANCH   2   9
ATOM      9  C   UNL     1       0.096   0.407  -0.711  0.00  0.00    +0.000 C 
BRANCH   9  10
ATOM     10  N   UNL     1       1.475   0.809  -0.909  0.00  0.00    +0.000 N 
ATOM     11  N   UNL     1       2.487  -0.009  -0.672  0.00  0.00    +0.000 NA
ATOM     12  C   UNL     1       3.787   0.327  -0.834  0.00  0.00    +0.000 A 
ATOM     13  C   UNL     1       4.032   1.598  -1.272  0.00  0.00    +0.000 A 
ATOM     14  C   UNL     1       3.011   2.482  -1.532  0.00  0.00    +0.000 A 
ATOM     15  C   UNL     1       1.716   2.058  -1.340  0.00  0.00    +0.000 A 
ATOM     16  O   UNL     1       0.810   2.877  -1.583  0.00  0.00    +0.000 OA
BRANCH  12  17
ATOM     17  C   UNL     1       4.834  -0.653  -0.547  0.00  0.00    +0.000 A 
ATOM     18  C   UNL     1       4.478  -1.954  -0.158  0.00  0.00    +0.000 A 
ATOM     19  C   UNL     1       5.418  -2.913   0.137  0.00  0.00    +0.000 A 
ATOM     20  C   UNL     1       6.747  -2.570   0.044  0.00  0.00    +0.000 A 
ATOM     21  C   UNL     1       7.129  -1.296  -0.336  0.00  0.00    +0.000 A 
ATOM     22 CL   UNL     1       8.826  -0.853  -0.448  0.00  0.00    +0.000 Cl
ATOM     23  C   UNL     1       6.153  -0.339  -0.631  0.00  0.00    +0.000 A 
ENDBRANCH  12  17
ENDBRANCH   9  10
ENDBRANCH   2   9
BRANCH   8  24
ATOM     24  C   UNL     1      -3.073   1.129  -0.479  0.00  0.00    +0.000 C 
BRANCH  24  25
ATOM     25  C   UNL     1      -4.055   0.792  -1.550  0.00  0.00    +0.000 C 
BRANCH  25  26
ATOM     26  N   UNL     1      -5.148   0.102  -1.040  0.00  0.00    +0.000 NA
ATOM     27  C   UNL     1      -6.057   0.758  -0.190  0.00  0.00    +0.000 C 
ATOM     28  C   UNL     1      -7.475   0.267  -0.344  0.00  0.00    +0.000 C 
ATOM     29  O   UNL     1      -7.557  -1.120  -0.466  0.00  0.00    +0.000 OA
ATOM     30  C   UNL     1      -6.771  -1.631  -1.472  0.00  0.00    +0.000 C 
ATOM     31  C   UNL     1      -5.310  -1.255  -1.304  0.00  0.00    +0.000 C 
ENDBRANCH  25  26
ENDBRANCH  24  25
ENDBRANCH   8  24
TORSDOF 6
