REMARK  Name = 
REMARK  3 active torsions:
REMARK  status: ('A' for Active; 'I' for Inactive)
REMARK    1  A    between atoms: C_5  and  N_6
REMARK    2  A    between atoms: C_7  and  C_9
REMARK    3  A    between atoms: C_12  and  C_13
REMARK                            x       y       z     vdW  Elec       q    Type
REMARK                         _______ _______ _______ _____ _____    ______ ____
ROOT
ATOM      1  N   UNL     1      -1.204  -0.357  -0.252  0.00  0.00    +0.000 NA
ATOM      2  C   UNL     1      -0.245   0.069   0.765  0.00  0.00    +0.000 C 
ATOM      3  O   UNL     1      -0.691   0.632   1.736  0.00  0.00    +0.000 OA
ENDROOT
BRANCH   1   8
ATOM      4  C   UNL     1      -6.609   1.578   0.060  0.00  0.00    +0.000 C 
ATOM      5  C   UNL     1      -5.206   1.030   0.024  0.00  0.00    +0.000 A 
ATOM      6  C   UNL     1      -4.147   1.804  -0.403  0.00  0.00    +0.000 A 
ATOM      7  C   UNL     1      -2.878   1.306  -0.471  0.00  0.00    +0.000 A 
ATOM      8  C   UNL     1      -2.568  -0.042  -0.097  0.00  0.00    +0.000 A 
ATOM      9  C   UNL     1      -3.615  -0.788   0.328  0.00  0.00    +0.000 A 
ATOM     10  C   UNL     1      -4.930  -0.285   0.398  0.00  0.00    +0.000 A 
ATOM     11  O   UNL     1      -5.994  -1.078   0.850  0.00  0.00    +0.000 OA
ENDBRANCH   1   8
BRANCH   2  12
ATOM     12  C   UNL     1       1.173  -0.219   0.469  0.00  0.00    +0.000 A 
ATOM     13  C   UNL     1       1.576  -1.017  -0.548  0.00  0.00    +0.000 A 
ATOM     14  C   UNL     1       2.922  -1.152  -0.947  0.00  0.00    +0.000 A 
ATOM     15  C   UNL     1       3.894  -0.462  -0.283  0.00  0.00    +0.000 A 
ATOM     16  C   UNL     1       3.502   0.352   0.768  0.00  0.00    +0.000 A 
ATOM     17  C   UNL     1       2.166   0.488   1.160  0.00  0.00    +0.000 A 
BRANCH  15  18
ATOM     18  C   UNL     1       5.333  -0.502  -0.741  0.00  0.00    +0.000 C 
ATOM     19  C   UNL     1       5.562  -1.595  -1.746  0.00  0.00    +0.000 C 
ATOM     20  C   UNL     1       6.316  -0.608   0.369  0.00  0.00    +0.000 C 
ATOM     21  C   UNL     1       5.643   0.845  -1.438  0.00  0.00    +0.000 C 
ENDBRANCH  15  18
ENDBRANCH   2  12
TORSDOF 3
