REMARK  Name = 
REMARK  3 active torsions:
REMARK  status: ('A' for Active; 'I' for Inactive)
REMARK    1  A    between atoms: O_2  and  C_3
REMARK    2  A    between atoms: C_6  and  C_7
REMARK    3  A    between atoms: C_7  and  C_9
REMARK                            x       y       z     vdW  Elec       q    Type
REMARK                         _______ _______ _______ _____ _____    ______ ____
ROOT
ATOM      1  C   UNL     1      -0.269  -1.428  -0.893  0.00  0.00    +0.000 C 
ATOM      2  O   UNL     1      -0.592  -2.363  -1.703  0.00  0.00    +0.000 OA
ENDROOT
BRANCH   1   3
ATOM      3  C   UNL     1       1.096  -1.383  -0.312  0.00  0.00    +0.000 A 
ATOM      4  C   UNL     1       1.933  -2.473  -0.605  0.00  0.00    +0.000 A 
ATOM      5  N   UNL     1       1.629  -3.666  -1.354  0.00  0.00    +0.000 NA
ATOM      6  S   UNL     1       3.404  -2.069   0.132  0.00  0.00    +0.000 S 
ATOM      7  C   UNL     1       2.991  -0.579   0.792  0.00  0.00    +0.000 A 
ATOM      8  C   UNL     1       1.679  -0.410   0.419  0.00  0.00    +0.000 A 
ATOM      9  C   UNL     1       1.081   0.922   0.873  0.00  0.00    +0.000 C 
ATOM     10  C   UNL     1       1.988   2.061   0.513  0.00  0.00    +0.000 C 
ATOM     11  C   UNL     1       3.435   1.787   0.810  0.00  0.00    +0.000 C 
ATOM     12  C   UNL     1       3.642   0.518   1.611  0.00  0.00    +0.000 C 
ENDBRANCH   1   3
BRANCH   1  16
ATOM     13  C   UNL     1      -3.237   1.561  -0.038  0.00  0.00    +0.000 A 
ATOM     14  C   UNL     1      -2.309   1.172   0.889  0.00  0.00    +0.000 A 
ATOM     15  C   UNL     1      -1.362   0.217   0.637  0.00  0.00    +0.000 A 
ATOM     16  C   UNL     1      -1.259  -0.434  -0.568  0.00  0.00    +0.000 A 
ATOM     17  C   UNL     1      -2.209  -0.038  -1.523  0.00  0.00    +0.000 A 
ATOM     18  C   UNL     1      -3.152   0.907  -1.282  0.00  0.00    +0.000 A 
BRANCH  13  20
ATOM     19  C   UNL     1      -4.285   3.177   1.456  0.00  0.00    +0.000 C 
ATOM     20  O   UNL     1      -4.205   2.520   0.182  0.00  0.00    +0.000 OA
ENDBRANCH  13  20
ENDBRANCH   1  16
TORSDOF 3
