REMARK  Name = 
REMARK  3 active torsions:
REMARK  status: ('A' for Active; 'I' for Inactive)
REMARK    1  A    between atoms: C_4  and  N_5
REMARK    2  A    between atoms: N_5  and  N_6
REMARK    3  A    between atoms: C_7  and  C_9
REMARK                            x       y       z     vdW  Elec       q    Type
REMARK                         _______ _______ _______ _____ _____    ______ ____
ROOT
ATOM      1  N   UNL     1      -0.060  -0.456   0.128  0.00  0.00    +0.000 NA
ATOM      2  C   UNL     1      -1.232  -1.234  -0.027  0.00  0.00    +0.000 C 
ATOM      3  O   UNL     1      -1.135  -2.486   0.078  0.00  0.00    +0.000 OA
ENDROOT
BRANCH   2   4
ATOM      4  C   UNL     1      -2.510  -0.594  -0.302  0.00  0.00    +0.000 A 
ATOM      5  C   UNL     1      -3.653  -1.390  -0.467  0.00  0.00    +0.000 A 
ATOM      6  C   UNL     1      -4.875  -0.812  -0.729  0.00  0.00    +0.000 A 
ATOM      7  C   UNL     1      -4.982   0.567  -0.830  0.00  0.00    +0.000 A 
ATOM      8  C   UNL     1      -3.880   1.364  -0.671  0.00  0.00    +0.000 A 
ATOM      9  C   UNL     1      -2.663   0.768  -0.409  0.00  0.00    +0.000 A 
ATOM     10 BR   UNL     1      -1.082   1.837  -0.180  0.00  0.00    +0.000 Br
ENDBRANCH   2   4
BRANCH   1  11
ATOM     11  N   UNL     1       1.188  -1.014   0.397  0.00  0.00    +0.000 NA
BRANCH  11  15
ATOM     12  C   UNL     1       3.556   2.824  -0.880  0.00  0.00    +0.000 C 
ATOM     13  C   UNL     1       3.790   1.214  -1.264  0.00  0.00    +0.000 C 
ATOM     14  C   UNL     1       2.325   0.810  -0.625  0.00  0.00    +0.000 C 
ATOM     15  C   UNL     1       2.340  -0.446  -0.194  0.00  0.00    +0.000 C 
ATOM     16  C   UNL     1       3.539  -1.302  -0.309  0.00  0.00    +0.000 C 
ATOM     17  C   UNL     1       4.790  -0.567   0.099  0.00  0.00    +0.000 C 
ATOM     18  C   UNL     1       4.544   0.917   0.201  0.00  0.00    +0.000 C 
ENDBRANCH  11  15
ENDBRANCH   1  11
TORSDOF 3
