REMARK  Name = 
REMARK  2 active torsions:
REMARK  status: ('A' for Active; 'I' for Inactive)
REMARK    1  A    between atoms: N_5  and  N_6
REMARK    2  A    between atoms: C_7  and  C_8
REMARK                            x       y       z     vdW  Elec       q    Type
REMARK                         _______ _______ _______ _____ _____    ______ ____
ROOT
ATOM      1  N   UNL     1       0.500   0.150   0.748  0.00  0.00    +0.000 NA
ATOM      2  C   UNL     1      -0.686   0.532   0.525  0.00  0.00    +0.000 C 
ENDROOT
BRANCH   2   3
ATOM      3  C   UNL     1      -1.810  -0.389   0.260  0.00  0.00    +0.000 A 
ATOM      4  C   UNL     1      -1.824  -1.748   0.200  0.00  0.00    +0.000 A 
ATOM      5  N   UNL     1      -3.087  -2.161  -0.072  0.00  0.00    +0.000 NA
ATOM      6  C   UNL     1      -3.897  -1.086  -0.190  0.00  0.00    +0.000 A 
ATOM      7  C   UNL     1      -5.227  -0.905  -0.451  0.00  0.00    +0.000 A 
ATOM      8  C   UNL     1      -5.748   0.375  -0.502  0.00  0.00    +0.000 A 
ATOM      9  C   UNL     1      -4.965   1.491  -0.297  0.00  0.00    +0.000 A 
ATOM     10  C   UNL     1      -3.638   1.304  -0.038  0.00  0.00    +0.000 A 
ATOM     11  C   UNL     1      -3.101   0.031   0.017  0.00  0.00    +0.000 A 
ENDBRANCH   2   3
BRANCH   1  16
ATOM     12  C   UNL     1       5.073  -1.585  -1.208  0.00  0.00    +0.000 C 
ATOM     13  C   UNL     1       4.471  -0.417  -0.417  0.00  0.00    +0.000 A 
ATOM     14  N   UNL     1       3.204  -0.299  -0.081  0.00  0.00    +0.000 NA
ATOM     15  C   UNL     1       2.803   0.749   0.600  0.00  0.00    +0.000 A 
ATOM     16  N   UNL     1       1.580   1.000   1.002  0.00  0.00    +0.000 NA
ATOM     17  S   UNL     1       4.242   1.640   0.799  0.00  0.00    +0.000 S 
ATOM     18  C   UNL     1       5.315   0.593  -0.023  0.00  0.00    +0.000 A 
ATOM     19  C   UNL     1       6.796   0.727  -0.262  0.00  0.00    +0.000 C 
ENDBRANCH   1  16
TORSDOF 2
