REMARK  Name = 
REMARK  1 active torsions:
REMARK  status: ('A' for Active; 'I' for Inactive)
REMARK    1  A    between atoms: C_5  and  N_6
REMARK                            x       y       z     vdW  Elec       q    Type
REMARK                         _______ _______ _______ _____ _____    ______ ____
ROOT
ATOM      1  N   UNL     1       0.693   0.487  -0.116  0.00  0.00    +0.000 NA
ATOM      2  C   UNL     1      -0.135  -0.567   0.402  0.00  0.00    +0.000 A 
ATOM      3  N   UNL     1       0.424  -1.665   0.931  0.00  0.00    +0.000 NA
ATOM      4  C   UNL     1      -0.243  -2.684   1.431  0.00  0.00    +0.000 A 
ATOM      5  N   UNL     1      -1.595  -2.596   1.399  0.00  0.00    +0.000 NA
ATOM      6  C   UNL     1      -2.213  -1.501   0.872  0.00  0.00    +0.000 A 
ATOM      7  S   UNL     1      -3.845  -1.053   0.668  0.00  0.00    +0.000 S 
ATOM      8  C   UNL     1      -3.630   0.464  -0.070  0.00  0.00    +0.000 A 
ATOM      9  C   UNL     1      -2.270   0.584  -0.139  0.00  0.00    +0.000 A 
ATOM     10  C   UNL     1      -1.532  -0.438   0.351  0.00  0.00    +0.000 A 
ATOM     11  C   UNL     1      -1.847   1.898  -0.780  0.00  0.00    +0.000 C 
ATOM     12  C   UNL     1      -2.524   1.972  -2.134  0.00  0.00    +0.000 C 
ATOM     13  C   UNL     1      -4.016   1.801  -2.039  0.00  0.00    +0.000 C 
ATOM     14  C   UNL     1      -4.482   1.585  -0.608  0.00  0.00    +0.000 C 
ENDROOT
BRANCH   1  19
ATOM     15  O   UNL     1       6.267   0.040   0.056  0.00  0.00    +0.000 OA
ATOM     16  C   UNL     1       4.881   0.173   0.003  0.00  0.00    +0.000 A 
ATOM     17  C   UNL     1       4.079  -0.840   0.501  0.00  0.00    +0.000 A 
ATOM     18  C   UNL     1       2.710  -0.727   0.457  0.00  0.00    +0.000 A 
ATOM     19  C   UNL     1       2.113   0.387  -0.079  0.00  0.00    +0.000 A 
ATOM     20  C   UNL     1       2.900   1.395  -0.574  0.00  0.00    +0.000 A 
ATOM     21  C   UNL     1       4.265   1.284  -0.531  0.00  0.00    +0.000 A 
ENDBRANCH   1  19
TORSDOF 1
