REMARK  Name = 
REMARK  5 active torsions:
REMARK  status: ('A' for Active; 'I' for Inactive)
REMARK    1  A    between atoms: C_2  and  C_4
REMARK    2  A    between atoms: C_4  and  C_5
REMARK    3  A    between atoms: C_5  and  O_6
REMARK    4  A    between atoms: O_6  and  C_7
REMARK    5  A    between atoms: C_10  and  C_11
REMARK                            x       y       z     vdW  Elec       q    Type
REMARK                         _______ _______ _______ _____ _____    ______ ____
ROOT
ATOM      1  C   UNL     1       1.756  -1.125   0.344  0.00  0.00    +0.000 A 
ATOM      2  C   UNL     1       1.280  -0.828  -0.903  0.00  0.00    +0.000 A 
ATOM      3  C   UNL     1      -0.054  -0.601  -1.102  0.00  0.00    +0.000 A 
ATOM      4  C   UNL     1      -0.957  -0.663  -0.061  0.00  0.00    +0.000 A 
ATOM      5  C   UNL     1      -0.514  -0.956   1.190  0.00  0.00    +0.000 A 
ATOM      6  C   UNL     1       0.835  -1.182   1.375  0.00  0.00    +0.000 A 
ENDROOT
BRANCH   4   7
ATOM      7  C   UNL     1      -2.378  -0.398  -0.395  0.00  0.00    +0.000 C 
ATOM      8  C   UNL     1      -2.989  -1.630  -1.026  0.00  0.00    +0.000 C 
ATOM      9  C   UNL     1      -3.196  -0.042   0.811  0.00  0.00    +0.000 C 
ATOM     10  C   UNL     1      -4.213   0.884   0.242  0.00  0.00    +0.000 C 
ATOM     11  O   UNL     1      -5.325   1.124   0.746  0.00  0.00    +0.000 OA
ATOM     12  N   UNL     1      -3.691   1.432  -0.958  0.00  0.00    +0.000 NA
ATOM     13  C   UNL     1      -2.467   0.787  -1.274  0.00  0.00    +0.000 C 
ATOM     14  O   UNL     1      -1.647   1.183  -2.142  0.00  0.00    +0.000 OA
ENDBRANCH   4   7
BRANCH   1  15
ATOM     15  O   UNL     1       3.097  -1.363   0.601  0.00  0.00    +0.000 OA
BRANCH  15  16
ATOM     16  C   UNL     1       4.021  -1.301  -0.459  0.00  0.00    +0.000 C 
BRANCH  16  17
ATOM     17  C   UNL     1       4.043   0.066  -1.115  0.00  0.00    +0.000 C 
BRANCH  17  19
ATOM     18  C   UNL     1       4.486   2.477  -0.606  0.00  0.00    +0.000 C 
ATOM     19  C   UNL     1       4.431   1.071  -0.061  0.00  0.00    +0.000 C 
ATOM     20  C   UNL     1       3.482   1.062   1.122  0.00  0.00    +0.000 C 
ENDBRANCH  17  19
ENDBRANCH  16  17
ENDBRANCH  15  16
ENDBRANCH   1  15
TORSDOF 5
