REMARK  Name = 
REMARK  2 active torsions:
REMARK  status: ('A' for Active; 'I' for Inactive)
REMARK    1  A    between atoms: C_3  and  C_4
REMARK    2  A    between atoms: C_4  and  C_5
REMARK                            x       y       z     vdW  Elec       q    Type
REMARK                         _______ _______ _______ _____ _____    ______ ____
ROOT
ATOM      1  N   UNL     1      -0.712  -2.020  -1.528  0.00  0.00    +0.000 NA
ATOM      2  N   UNL     1      -0.092  -1.280  -0.485  0.00  0.00    +0.000 N 
ATOM      3  C   UNL     1      -0.827  -1.037   0.594  0.00  0.00    +0.000 A 
ATOM      4  N   UNL     1      -0.231  -0.336   1.572  0.00  0.00    +0.000 NA
ATOM      5  C   UNL     1       1.069   0.095   1.444  0.00  0.00    +0.000 A 
ATOM      6  S   UNL     1       2.125   0.984   2.451  0.00  0.00    +0.000 S 
ATOM      7  C   UNL     1       3.499   1.025   1.456  0.00  0.00    +0.000 A 
ATOM      8  C   UNL     1       3.104   0.339   0.350  0.00  0.00    +0.000 A 
ATOM      9  C   UNL     1       1.832  -0.151   0.337  0.00  0.00    +0.000 A 
ATOM     10  C   UNL     1       1.178  -0.890  -0.677  0.00  0.00    +0.000 A 
ATOM     11  O   UNL     1       1.761  -1.193  -1.760  0.00  0.00    +0.000 OA
ATOM     12  C   UNL     1       4.317   0.346  -0.586  0.00  0.00    +0.000 C 
ATOM     13  C   UNL     1       5.011   1.632  -0.194  0.00  0.00    +0.000 C 
ATOM     14  C   UNL     1       4.926   1.507   1.333  0.00  0.00    +0.000 C 
ENDROOT
BRANCH   3  15
ATOM     15  C   UNL     1      -2.216  -1.517   0.691  0.00  0.00    +0.000 C 
BRANCH  15  16
ATOM     16  C   UNL     1      -3.189  -0.547   0.170  0.00  0.00    +0.000 A 
ATOM     17  C   UNL     1      -3.617  -0.497  -1.141  0.00  0.00    +0.000 A 
ATOM     18  C   UNL     1      -4.548   0.458  -1.564  0.00  0.00    +0.000 A 
ATOM     19  C   UNL     1      -5.045   1.365  -0.654  0.00  0.00    +0.000 A 
ATOM     20  C   UNL     1      -4.631   1.335   0.662  0.00  0.00    +0.000 A 
ATOM     21  C   UNL     1      -3.716   0.383   1.042  0.00  0.00    +0.000 A 
ENDBRANCH  15  16
ENDBRANCH   3  15
TORSDOF 2
