REMARK  Name = 
REMARK  4 active torsions:
REMARK  status: ('A' for Active; 'I' for Inactive)
REMARK    1  A    between atoms: C_2  and  C_3
REMARK    2  A    between atoms: C_4  and  N_5
REMARK    3  A    between atoms: N_5  and  C_6
REMARK    4  A    between atoms: C_6  and  C_7
REMARK                            x       y       z     vdW  Elec       q    Type
REMARK                         _______ _______ _______ _____ _____    ______ ____
ROOT
ATOM      1  C   UNL     1       1.119   0.296   0.193  0.00  0.00    +0.000 A 
ATOM      2  C   UNL     1       0.725   0.779  -1.020  0.00  0.00    +0.000 A 
ATOM      3  S   UNL     1       1.814  -0.002  -2.109  0.00  0.00    +0.000 S 
ATOM      4  C   UNL     1       2.719  -0.905  -0.981  0.00  0.00    +0.000 A 
ATOM      5  C   UNL     1       2.141  -0.568   0.215  0.00  0.00    +0.000 A 
ATOM      6  C   UNL     1       2.807  -1.276   1.379  0.00  0.00    +0.000 C 
ATOM      7  C   UNL     1       4.276  -0.919   1.277  0.00  0.00    +0.000 C 
ATOM      8  C   UNL     1       4.890  -1.341  -0.021  0.00  0.00    +0.000 C 
ATOM      9  C   UNL     1       3.876  -1.877  -1.008  0.00  0.00    +0.000 C 
ENDROOT
BRANCH   1  11
ATOM     10  N   UNL     1      -0.098   1.122   2.391  0.00  0.00    +0.000 NA
ATOM     11  C   UNL     1       0.433   0.749   1.406  0.00  0.00    +0.000 C 
ENDBRANCH   1  11
BRANCH   2  12
ATOM     12  N   UNL     1      -0.292   1.665  -1.432  0.00  0.00    +0.000 NA
BRANCH  12  13
ATOM     13  C   UNL     1      -1.268   2.279  -0.605  0.00  0.00    +0.000 C 
BRANCH  13  14
ATOM     14  C   UNL     1      -2.191   1.232  -0.096  0.00  0.00    +0.000 A 
ATOM     15  C   UNL     1      -3.098   1.581   0.899  0.00  0.00    +0.000 A 
ATOM     16  C   UNL     1      -3.961   0.586   1.359  0.00  0.00    +0.000 A 
ATOM     17  C   UNL     1      -3.912  -0.690   0.844  0.00  0.00    +0.000 A 
ATOM     18  O   UNL     1      -4.804  -1.623   1.355  0.00  0.00    +0.000 OA
ATOM     19  C   UNL     1      -3.009  -1.033  -0.145  0.00  0.00    +0.000 A 
ATOM     20  C   UNL     1      -2.165  -0.054  -0.592  0.00  0.00    +0.000 A 
ENDBRANCH  13  14
ENDBRANCH  12  13
ENDBRANCH   2  12
TORSDOF 4
