REMARK  Name = 
REMARK  3 active torsions:
REMARK  status: ('A' for Active; 'I' for Inactive)
REMARK    1  A    between atoms: O_2  and  C_3
REMARK    2  A    between atoms: C_6  and  C_7
REMARK    3  A    between atoms: N_9  and  C_10
REMARK                            x       y       z     vdW  Elec       q    Type
REMARK                         _______ _______ _______ _____ _____    ______ ____
ROOT
ATOM      1  C   UNL     1      -0.118   0.343  -0.273  0.00  0.00    +0.000 C 
ATOM      2  O   UNL     1      -0.621   1.357  -0.818  0.00  0.00    +0.000 OA
ATOM      3  N   UNL     1      -1.008  -0.607   0.300  0.00  0.00    +0.000 NA
ENDROOT
BRANCH   3   4
ATOM      4  C   UNL     1      -2.425  -0.398   0.248  0.00  0.00    +0.000 A 
ATOM      5  C   UNL     1      -2.993   0.708  -0.344  0.00  0.00    +0.000 A 
ATOM      6  C   UNL     1      -4.354   0.915  -0.398  0.00  0.00    +0.000 A 
ATOM      7  C   UNL     1      -4.949   2.125  -1.048  0.00  0.00    +0.000 C 
ATOM      8  C   UNL     1      -5.171  -0.038   0.174  0.00  0.00    +0.000 A 
ATOM      9  C   UNL     1      -4.636  -1.141   0.767  0.00  0.00    +0.000 A 
ATOM     10  C   UNL     1      -3.261  -1.337   0.813  0.00  0.00    +0.000 A 
ATOM     11  O   UNL     1      -2.814  -2.488   1.437  0.00  0.00    +0.000 OA
ENDBRANCH   3   4
BRANCH   1  15
ATOM     12  C   UNL     1       4.060  -0.153  -0.189  0.00  0.00    +0.000 A 
ATOM     13  C   UNL     1       3.238  -1.110   0.385  0.00  0.00    +0.000 A 
ATOM     14  C   UNL     1       1.859  -0.964   0.367  0.00  0.00    +0.000 A 
ATOM     15  C   UNL     1       1.344   0.156  -0.236  0.00  0.00    +0.000 A 
ATOM     16  C   UNL     1       2.147   1.096  -0.800  0.00  0.00    +0.000 A 
ATOM     17  C   UNL     1       3.530   0.969  -0.793  0.00  0.00    +0.000 A 
ATOM     18 CL   UNL     1       4.579   2.172  -1.516  0.00  0.00    +0.000 Cl
BRANCH  12  20
ATOM     19  C   UNL     1       6.147  -1.340   0.379  0.00  0.00    +0.000 C 
ATOM     20  O   UNL     1       5.447  -0.264  -0.192  0.00  0.00    +0.000 OA
ENDBRANCH  12  20
ENDBRANCH   1  15
TORSDOF 3
