REMARK  Name = 
REMARK  3 active torsions:
REMARK  status: ('A' for Active; 'I' for Inactive)
REMARK    1  A    between atoms: C_2  and  C_13
REMARK    2  A    between atoms: N_3  and  C_4
REMARK    3  A    between atoms: C_8  and  N_9
REMARK                            x       y       z     vdW  Elec       q    Type
REMARK                         _______ _______ _______ _____ _____    ______ ____
ROOT
ATOM      1  O   UNL     1      -0.428  -2.079   1.527  0.00  0.00    +0.000 OA
ATOM      2  C   UNL     1      -0.766  -1.024   0.946  0.00  0.00    +0.000 C 
ATOM      3  N   UNL     1       0.207  -0.225   0.340  0.00  0.00    +0.000 NA
ENDROOT
BRANCH   2   4
ATOM      4  C   UNL     1      -2.210  -0.705   0.951  0.00  0.00    +0.000 A 
ATOM      5  S   UNL     1      -3.475  -1.604   1.656  0.00  0.00    +0.000 S 
ATOM      6  C   UNL     1      -4.786  -0.598   1.235  0.00  0.00    +0.000 A 
ATOM      7  C   UNL     1      -4.190   0.418   0.551  0.00  0.00    +0.000 A 
ATOM      8  C   UNL     1      -2.847   0.359   0.405  0.00  0.00    +0.000 A 
ATOM      9  C   UNL     1      -2.242   1.518  -0.366  0.00  0.00    +0.000 C 
ATOM     10  C   UNL     1      -2.964   1.628  -1.695  0.00  0.00    +0.000 C 
ATOM     11  C   UNL     1      -4.464   1.654  -1.521  0.00  0.00    +0.000 C 
ATOM     12  C   UNL     1      -4.878   1.614  -0.067  0.00  0.00    +0.000 C 
ENDBRANCH   2   4
BRANCH   3  13
ATOM     13  C   UNL     1       1.599  -0.514   0.324  0.00  0.00    +0.000 A 
ATOM     14  C   UNL     1       2.154  -1.632   0.913  0.00  0.00    +0.000 A 
ATOM     15  C   UNL     1       3.503  -1.912   0.898  0.00  0.00    +0.000 A 
ATOM     16  C   UNL     1       4.364  -1.036   0.261  0.00  0.00    +0.000 A 
ATOM     17  C   UNL     1       3.844   0.092  -0.340  0.00  0.00    +0.000 A 
ATOM     18  C   UNL     1       2.479   0.342  -0.305  0.00  0.00    +0.000 A 
BRANCH  17  19
ATOM     19  N   UNL     1       4.741   0.974  -0.986  0.00  0.00    +0.000 N 
ATOM     20  O   UNL     1       4.273   1.995  -1.530  0.00  0.00    +0.000 OA
ATOM     21  O   UNL     1       6.084   0.734  -1.025  0.00  0.00    +0.000 OA
ENDBRANCH  17  19
ENDBRANCH   3  13
TORSDOF 3
