REMARK  Name = 
REMARK  4 active torsions:
REMARK  status: ('A' for Active; 'I' for Inactive)
REMARK    1  A    between atoms: C_6  and  N_7
REMARK    2  A    between atoms: N_7  and  C_8
REMARK    3  A    between atoms: N_11  and  C_12
REMARK    4  A    between atoms: C_12  and  C_13
REMARK                            x       y       z     vdW  Elec       q    Type
REMARK                         _______ _______ _______ _____ _____    ______ ____
ROOT
ATOM      1  C   UNL     1      -1.179  -3.790  -0.794  0.00  0.00    +0.000 C 
ATOM      2  N   UNL     1      -1.291  -2.426  -0.271  0.00  0.00    +0.000 N 
ATOM      3  C   UNL     1      -2.060  -2.153   0.793  0.00  0.00    +0.000 A 
ATOM      4  O   UNL     1      -2.683  -3.125   1.327  0.00  0.00    +0.000 OA
ATOM      5  C   UNL     1      -2.162  -0.874   1.276  0.00  0.00    +0.000 A 
ATOM      6  C   UNL     1      -1.438   0.145   0.626  0.00  0.00    +0.000 A 
ATOM      7  N   UNL     1      -0.670  -0.128  -0.434  0.00  0.00    +0.000 N 
ATOM      8  C   UNL     1      -0.621  -1.427  -0.856  0.00  0.00    +0.000 A 
ATOM      9  O   UNL     1       0.105  -1.690  -1.862  0.00  0.00    +0.000 OA
ENDROOT
BRANCH   6  10
ATOM     10  N   UNL     1      -1.598   1.464   1.123  0.00  0.00    +0.000 NA
BRANCH  10  11
ATOM     11  C   UNL     1      -0.959   2.571   0.479  0.00  0.00    +0.000 C 
ATOM     12  C   UNL     1      -1.096   3.949   0.958  0.00  0.00    +0.000 C 
ATOM     13  C   UNL     1      -1.788   3.506  -0.366  0.00  0.00    +0.000 C 
ENDBRANCH  10  11
ENDBRANCH   6  10
BRANCH   7  14
ATOM     14  C   UNL     1       0.162   0.858  -1.100  0.00  0.00    +0.000 C 
BRANCH  14  15
ATOM     15  C   UNL     1       1.540   0.733  -0.561  0.00  0.00    +0.000 A 
ATOM     16  C   UNL     1       2.395  -0.162  -1.232  0.00  0.00    +0.000 A 
ATOM     17  C   UNL     1       3.691  -0.352  -0.815  0.00  0.00    +0.000 A 
ATOM     18  C   UNL     1       4.212   0.318   0.271  0.00  0.00    +0.000 A 
ATOM     19  C   UNL     1       3.369   1.198   0.929  0.00  0.00    +0.000 A 
ATOM     20  C   UNL     1       2.071   1.387   0.509  0.00  0.00    +0.000 A 
ENDBRANCH  14  15
ENDBRANCH   7  14
TORSDOF 4
