REMARK  Name = 
REMARK  2 active torsions:
REMARK  status: ('A' for Active; 'I' for Inactive)
REMARK    1  A    between atoms: C_5  and  N_6
REMARK    2  A    between atoms: C_7  and  C_9
REMARK                            x       y       z     vdW  Elec       q    Type
REMARK                         _______ _______ _______ _____ _____    ______ ____
ROOT
ATOM      1  C   UNL     1      -0.969  -1.330  -0.281  0.00  0.00    +0.000 A 
ATOM      2  C   UNL     1      -1.240  -2.567  -0.790  0.00  0.00    +0.000 A 
ATOM      3  N   UNL     1      -0.331  -3.495  -1.374  0.00  0.00    +0.000 NA
ATOM      4  S   UNL     1      -2.917  -2.733  -0.561  0.00  0.00    +0.000 S 
ATOM      5  C   UNL     1      -3.222  -1.225   0.176  0.00  0.00    +0.000 A 
ATOM      6  C   UNL     1      -2.002  -0.633   0.221  0.00  0.00    +0.000 A 
ATOM      7  C   UNL     1      -1.849   0.754   0.820  0.00  0.00    +0.000 C 
ATOM      8  C   UNL     1      -3.007   1.627   0.465  0.00  0.00    +0.000 C 
ATOM      9  C   UNL     1      -3.826   1.146  -0.681  0.00  0.00    +0.000 C 
ATOM     10  C   UNL     1      -5.040   0.353  -0.257  0.00  0.00    +0.000 C 
ATOM     11  C   UNL     1      -4.594  -0.804   0.615  0.00  0.00    +0.000 C 
ENDROOT
BRANCH   1  13
ATOM     12  N   UNL     1       0.749   0.477   0.223  0.00  0.00    +0.000 NA
ATOM     13  C   UNL     1       0.418  -0.790  -0.289  0.00  0.00    +0.000 C 
ATOM     14  O   UNL     1       1.377  -1.453  -0.762  0.00  0.00    +0.000 OA
BRANCH  12  19
ATOM     15  C   UNL     1       6.121   2.239   0.043  0.00  0.00    +0.000 C 
ATOM     16  C   UNL     1       4.710   1.810   0.106  0.00  0.00    +0.000 A 
ATOM     17  C   UNL     1       4.368   0.571  -0.391  0.00  0.00    +0.000 A 
ATOM     18  C   UNL     1       3.055   0.189  -0.325  0.00  0.00    +0.000 A 
ATOM     19  C   UNL     1       2.067   1.013   0.226  0.00  0.00    +0.000 A 
ATOM     20  C   UNL     1       2.399   2.232   0.716  0.00  0.00    +0.000 A 
ATOM     21  C   UNL     1       3.735   2.618   0.648  0.00  0.00    +0.000 A 
ENDBRANCH  12  19
ENDBRANCH   1  13
TORSDOF 2
