REMARK  Name = 
REMARK  3 active torsions:
REMARK  status: ('A' for Active; 'I' for Inactive)
REMARK    1  A    between atoms: O_2  and  C_3
REMARK    2  A    between atoms: C_6  and  C_7
REMARK    3  A    between atoms: C_19  and  O_20
REMARK                            x       y       z     vdW  Elec       q    Type
REMARK                         _______ _______ _______ _____ _____    ______ ____
ROOT
ATOM      1  C   UNL     1      -0.295   0.220  -0.098  0.00  0.00    +0.000 A 
ATOM      2  C   UNL     1      -1.092   0.740   0.900  0.00  0.00    +0.000 A 
ATOM      3  C   UNL     1      -2.412   0.589   0.479  0.00  0.00    +0.000 A 
ATOM      4  C   UNL     1      -3.618   0.920   1.055  0.00  0.00    +0.000 A 
ATOM      5  C   UNL     1      -4.837   0.674   0.449  0.00  0.00    +0.000 A 
ATOM      6  C   UNL     1      -6.134   1.044   1.097  0.00  0.00    +0.000 C 
ATOM      7  N   UNL     1      -4.799   0.082  -0.761  0.00  0.00    +0.000 NA
ATOM      8  C   UNL     1      -3.622  -0.243  -1.328  0.00  0.00    +0.000 A 
ATOM      9  O   UNL     1      -3.685  -0.795  -2.464  0.00  0.00    +0.000 OA
ATOM     10  N   UNL     1      -2.435  -0.001  -0.732  0.00  0.00    +0.000 N 
ATOM     11  C   UNL     1      -1.162  -0.223  -1.079  0.00  0.00    +0.000 A 
ENDROOT
BRANCH   1  15
ATOM     12  C   UNL     1       3.906  -0.018  -0.245  0.00  0.00    +0.000 A 
ATOM     13  C   UNL     1       3.190   0.131  -1.422  0.00  0.00    +0.000 A 
ATOM     14  C   UNL     1       1.831   0.206  -1.357  0.00  0.00    +0.000 A 
ATOM     15  C   UNL     1       1.179   0.136  -0.144  0.00  0.00    +0.000 A 
ATOM     16  C   UNL     1       1.917  -0.010   0.990  0.00  0.00    +0.000 A 
ATOM     17  C   UNL     1       3.294  -0.092   0.984  0.00  0.00    +0.000 A 
BRANCH  12  19
ATOM     18  C   UNL     1       5.975  -0.025  -1.559  0.00  0.00    +0.000 C 
ATOM     19  O   UNL     1       5.288  -0.092  -0.345  0.00  0.00    +0.000 OA
ENDBRANCH  12  19
BRANCH  17  20
ATOM     20  O   UNL     1       4.040  -0.242   2.153  0.00  0.00    +0.000 OA
ATOM     21  C   UNL     1       3.470  -0.323   3.425  0.00  0.00    +0.000 C 
ENDBRANCH  17  20
ENDBRANCH   1  15
TORSDOF 3
