REMARK  Name = 
REMARK  3 active torsions:
REMARK  status: ('A' for Active; 'I' for Inactive)
REMARK    1  A    between atoms: N_8  and  C_9
REMARK    2  A    between atoms: C_9  and  C_10
REMARK    3  A    between atoms: C_10  and  C_11
REMARK                            x       y       z     vdW  Elec       q    Type
REMARK                         _______ _______ _______ _____ _____    ______ ____
ROOT
ATOM      1  C   UNL     1      -4.073   0.577  -2.415  0.00  0.00    +0.000 C 
ATOM      2  C   UNL     1      -3.525   0.466  -0.986  0.00  0.00    +0.000 C 
ATOM      3  C   UNL     1      -4.668   0.950  -0.085  0.00  0.00    +0.000 C 
ATOM      4  C   UNL     1      -3.184  -0.956  -0.748  0.00  0.00    +0.000 C 
ATOM      5  C   UNL     1      -1.969  -1.201   0.069  0.00  0.00    +0.000 C 
ATOM      6  C   UNL     1      -1.322  -2.494  -0.449  0.00  0.00    +0.000 C 
ATOM      7  O   UNL     1      -2.296  -1.415   1.413  0.00  0.00    +0.000 OA
ATOM      8  N   UNL     1      -0.970  -0.173  -0.040  0.00  0.00    +0.000 N 
ATOM      9  C   UNL     1      -1.273   1.152  -0.450  0.00  0.00    +0.000 C 
ATOM     10  S   UNL     1       0.004   2.411  -0.353  0.00  0.00    +0.000 S 
ATOM     11  N   UNL     1      -2.452   1.391  -0.873  0.00  0.00    +0.000 NA
ENDROOT
BRANCH   8  12
ATOM     12  C   UNL     1       0.399  -0.521   0.286  0.00  0.00    +0.000 C 
BRANCH  12  13
ATOM     13  C   UNL     1       1.311   0.657   0.122  0.00  0.00    +0.000 C 
BRANCH  13  14
ATOM     14  C   UNL     1       2.697   0.249   0.467  0.00  0.00    +0.000 A 
ATOM     15  C   UNL     1       3.551  -0.252  -0.504  0.00  0.00    +0.000 A 
ATOM     16  C   UNL     1       4.838  -0.643  -0.240  0.00  0.00    +0.000 A 
ATOM     17  C   UNL     1       5.301  -0.528   1.060  0.00  0.00    +0.000 A 
ATOM     18  C   UNL     1       4.463  -0.029   2.046  0.00  0.00    +0.000 A 
ATOM     19  C   UNL     1       3.169   0.358   1.753  0.00  0.00    +0.000 A 
ENDBRANCH  13  14
ENDBRANCH  12  13
ENDBRANCH   8  12
TORSDOF 3
