REMARK  Name = 
REMARK  3 active torsions:
REMARK  status: ('A' for Active; 'I' for Inactive)
REMARK    1  A    between atoms: O_2  and  C_3
REMARK    2  A    between atoms: C_3  and  C_6
REMARK    3  A    between atoms: C_8  and  C_9
REMARK                            x       y       z     vdW  Elec       q    Type
REMARK                         _______ _______ _______ _____ _____    ______ ____
ROOT
ATOM      1  C   UNL     1      -2.142  -0.350   0.150  0.00  0.00    +0.000 A 
ATOM      2  C   UNL     1      -0.790  -0.114   0.004  0.00  0.00    +0.000 A 
ATOM      3  C   UNL     1       0.096  -1.160  -0.129  0.00  0.00    +0.000 A 
ATOM      4  N   UNL     1      -0.433  -2.398  -0.107  0.00  0.00    +0.000 NA
ATOM      5  C   UNL     1      -1.760  -2.605   0.037  0.00  0.00    +0.000 A 
ATOM      6  N   UNL     1      -2.295  -3.932   0.056  0.00  0.00    +0.000 NA
ATOM      7  N   UNL     1      -2.642  -1.597   0.168  0.00  0.00    +0.000 NA
ENDROOT
BRANCH   3   8
ATOM      8  C   UNL     1       1.534  -0.922  -0.284  0.00  0.00    +0.000 A 
ATOM      9  C   UNL     1       2.429  -1.962  -0.419  0.00  0.00    +0.000 A 
ATOM     10  C   UNL     1       3.768  -1.676  -0.561  0.00  0.00    +0.000 A 
ATOM     11  C   UNL     1       4.234  -0.377  -0.573  0.00  0.00    +0.000 A 
ATOM     12  C   UNL     1       3.318   0.637  -0.437  0.00  0.00    +0.000 A 
ATOM     13  C   UNL     1       3.807   1.935  -0.451  0.00  0.00    +0.000 A 
ATOM     14  C   UNL     1       2.919   2.984  -0.318  0.00  0.00    +0.000 A 
ATOM     15  C   UNL     1       1.560   2.740  -0.172  0.00  0.00    +0.000 A 
ATOM     16  C   UNL     1       1.113   1.435  -0.163  0.00  0.00    +0.000 A 
ATOM     17  C   UNL     1       1.970   0.383  -0.292  0.00  0.00    +0.000 A 
ENDBRANCH   3   8
BRANCH   1  18
ATOM     18  C   UNL     1      -3.066   0.820   0.291  0.00  0.00    +0.000 C 
ATOM     19  C   UNL     1      -4.482   0.322   0.442  0.00  0.00    +0.000 C 
ATOM     20  C   UNL     1      -2.905   1.651  -0.958  0.00  0.00    +0.000 C 
BRANCH  18  22
ATOM     21  C   UNL     1      -3.555   2.642   1.557  0.00  0.00    +0.000 C 
ATOM     22  O   UNL     1      -2.677   1.546   1.423  0.00  0.00    +0.000 OA
ENDBRANCH  18  22
ENDBRANCH   1  18
TORSDOF 3
