REMARK  Name = 
REMARK  7 active torsions:
REMARK  status: ('A' for Active; 'I' for Inactive)
REMARK    1  A    between atoms: C_2  and  N_3
REMARK    2  A    between atoms: C_8  and  C_9
REMARK    3  A    between atoms: C_9  and  O_10
REMARK    4  A    between atoms: O_10  and  C_11
REMARK    5  A    between atoms: C_11  and  C_13
REMARK    6  A    between atoms: N_17  and  C_18
REMARK    7  A    between atoms: C_18  and  C_19
REMARK                            x       y       z     vdW  Elec       q    Type
REMARK                         _______ _______ _______ _____ _____    ______ ____
ROOT
ATOM      1  C   UNL     1       1.076   0.853  -0.119  0.00  0.00    +0.000 C 
ATOM      2  C   UNL     1       0.357   2.169   0.549  0.00  0.00    +0.000 C 
ATOM      3  C   UNL     1      -0.465   1.563   1.622  0.00  0.00    +0.000 C 
ATOM      4  C   UNL     1       0.422   0.500   2.115  0.00  0.00    +0.000 C 
ATOM      5  N   UNL     1       1.450   0.199   1.254  0.00  0.00    +0.000 NA
ENDROOT
BRANCH   1   6
ATOM      6  C   UNL     1      -0.293   0.075  -0.401  0.00  0.00    +0.000 C 
ATOM      7  O   UNL     1      -0.805   0.420  -1.521  0.00  0.00    +0.000 OA
BRANCH   6   8
ATOM      8  O   UNL     1      -0.828  -0.811   0.416  0.00  0.00    +0.000 OA
BRANCH   8   9
ATOM      9  C   UNL     1      -2.016  -1.473   0.139  0.00  0.00    +0.000 C 
BRANCH   9  15
ATOM     10  N   UNL     1      -4.421  -1.127  -0.281  0.00  0.00    +0.000 N 
ATOM     11  N   UNL     1      -5.261  -0.142  -0.401  0.00  0.00    +0.000 NA
ATOM     12  C   UNL     1      -4.657   1.036  -0.256  0.00  0.00    +0.000 A 
ATOM     13  C   UNL     1      -5.290   2.362  -0.329  0.00  0.00    +0.000 C 
ATOM     14  C   UNL     1      -3.314   0.773  -0.023  0.00  0.00    +0.000 A 
ATOM     15  C   UNL     1      -3.185  -0.600  -0.042  0.00  0.00    +0.000 A 
BRANCH  10  17
ATOM     16  C   UNL     1      -5.162  -3.047   1.003  0.00  0.00    +0.000 C 
ATOM     17  C   UNL     1      -4.783  -2.526  -0.388  0.00  0.00    +0.000 C 
ENDBRANCH  10  17
ENDBRANCH   9  15
ENDBRANCH   8   9
ENDBRANCH   6   8
ENDBRANCH   1   6
BRANCH   5  18
ATOM     18  C   UNL     1       2.703   0.822   1.594  0.00  0.00    +0.000 C 
BRANCH  18  19
ATOM     19  C   UNL     1       3.699   0.397   0.572  0.00  0.00    +0.000 A 
ATOM     20  C   UNL     1       4.441  -0.737   0.773  0.00  0.00    +0.000 A 
ATOM     21  C   UNL     1       5.374  -1.154  -0.164  0.00  0.00    +0.000 A 
ATOM     22  C   UNL     1       5.599  -0.453  -1.332  0.00  0.00    +0.000 A 
ATOM     23  C   UNL     1       6.598  -0.890  -2.345  0.00  0.00    +0.000 C 
ATOM     24  C   UNL     1       4.846   0.688  -1.525  0.00  0.00    +0.000 A 
ATOM     25  C   UNL     1       3.916   1.103  -0.592  0.00  0.00    +0.000 A 
ENDBRANCH  18  19
ENDBRANCH   5  18
TORSDOF 7
