REMARK  Name = 
REMARK  3 active torsions:
REMARK  status: ('A' for Active; 'I' for Inactive)
REMARK    1  A    between atoms: C_2  and  N_4
REMARK    2  A    between atoms: N_4  and  C_5
REMARK    3  A    between atoms: C_6  and  C_7
REMARK                            x       y       z     vdW  Elec       q    Type
REMARK                         _______ _______ _______ _____ _____    ______ ____
ROOT
ATOM      1  C   UNL     1       0.657   0.404  -0.108  0.00  0.00    +0.000 A 
ATOM      2  C   UNL     1      -0.431  -0.434  -0.124  0.00  0.00    +0.000 A 
ATOM      3  N   UNL     1       0.069  -1.705  -0.301  0.00  0.00    +0.000 NA
ATOM      4  C   UNL     1       1.383  -1.648  -0.388  0.00  0.00    +0.000 A 
ATOM      5  C   UNL     1       2.370  -2.617  -0.567  0.00  0.00    +0.000 A 
ATOM      6  C   UNL     1       3.719  -2.281  -0.625  0.00  0.00    +0.000 A 
ATOM      7  C   UNL     1       4.078  -0.954  -0.503  0.00  0.00    +0.000 A 
ATOM      8 CL   UNL     1       5.774  -0.460  -0.569  0.00  0.00    +0.000 Cl
ATOM      9  C   UNL     1       3.065  -0.034  -0.328  0.00  0.00    +0.000 A 
ATOM     10  N   UNL     1       1.768  -0.377  -0.274  0.00  0.00    +0.000 N 
ENDROOT
BRANCH   2  11
ATOM     11  C   UNL     1      -1.847  -0.121  -0.005  0.00  0.00    +0.000 A 
ATOM     12  C   UNL     1      -2.416   0.762  -0.892  0.00  0.00    +0.000 A 
ATOM     13  C   UNL     1      -3.761   1.090  -0.849  0.00  0.00    +0.000 A 
ATOM     14  C   UNL     1      -4.538   0.507   0.115  0.00  0.00    +0.000 A 
ATOM     15  C   UNL     1      -4.013  -0.391   1.035  0.00  0.00    +0.000 A 
ATOM     16  C   UNL     1      -2.642  -0.689   0.947  0.00  0.00    +0.000 A 
ATOM     17  O   UNL     1      -2.089  -1.594   1.865  0.00  0.00    +0.000 OA
ENDBRANCH   2  11
BRANCH   1  18
ATOM     18  N   UNL     1       0.618   1.797   0.085  0.00  0.00    +0.000 NA
BRANCH  18  20
ATOM     19  C   UNL     1      -1.027   2.167   1.795  0.00  0.00    +0.000 C 
ATOM     20  C   UNL     1      -0.558   2.563   0.383  0.00  0.00    +0.000 C 
ATOM     21  C   UNL     1      -0.180   4.017   0.410  0.00  0.00    +0.000 C 
ENDBRANCH  18  20
ENDBRANCH   1  18
TORSDOF 3
