REMARK  Name = 
REMARK  4 active torsions:
REMARK  status: ('A' for Active; 'I' for Inactive)
REMARK    1  A    between atoms: C_2  and  N_3
REMARK    2  A    between atoms: C_2  and  C_9
REMARK    3  A    between atoms: N_3  and  O_4
REMARK    4  A    between atoms: O_4  and  C_5
REMARK                            x       y       z     vdW  Elec       q    Type
REMARK                         _______ _______ _______ _____ _____    ______ ____
ROOT
ATOM      1  C   UNL     1      -0.406  -0.121   0.018  0.00  0.00    +0.000 A 
ATOM      2  S   UNL     1      -1.271  -1.448  -0.605  0.00  0.00    +0.000 S 
ATOM      3  C   UNL     1      -2.838  -1.051  -0.038  0.00  0.00    +0.000 A 
ATOM      4  C   UNL     1      -4.103  -1.654  -0.139  0.00  0.00    +0.000 A 
ATOM      5  C   UNL     1      -5.221  -1.091   0.435  0.00  0.00    +0.000 A 
ATOM      6  C   UNL     1      -5.000   0.092   1.105  0.00  0.00    +0.000 A 
ATOM      7  C   UNL     1      -3.777   0.694   1.214  0.00  0.00    +0.000 A 
ATOM      8  C   UNL     1      -2.633   0.117   0.626  0.00  0.00    +0.000 A 
ATOM      9  C   UNL     1      -1.371   0.605   0.658  0.00  0.00    +0.000 A 
ATOM     10  C   UNL     1      -0.961   1.898   1.355  0.00  0.00    +0.000 C 
ENDROOT
BRANCH   1  12
ATOM     11  C   UNL     1       1.558   1.267   0.448  0.00  0.00    +0.000 C 
ATOM     12  C   UNL     1       1.040   0.194  -0.093  0.00  0.00    +0.000 C 
BRANCH  12  13
ATOM     13  N   UNL     1       1.853  -0.716  -0.813  0.00  0.00    +0.000 NA
BRANCH  13  14
ATOM     14  O   UNL     1       3.179  -0.901  -0.506  0.00  0.00    +0.000 OA
BRANCH  14  15
ATOM     15  C   UNL     1       4.159   0.026  -0.824  0.00  0.00    +0.000 C 
ATOM     16  O   UNL     1       3.780   1.076  -1.423  0.00  0.00    +0.000 OA
ATOM     17  N   UNL     1       5.531  -0.148  -0.515  0.00  0.00    +0.000 NA
ATOM     18  C   UNL     1       6.480   0.903  -0.901  0.00  0.00    +0.000 C 
ENDBRANCH  14  15
ENDBRANCH  13  14
ENDBRANCH  12  13
ENDBRANCH   1  12
TORSDOF 4
