REMARK  Name = 
REMARK  4 active torsions:
REMARK  status: ('A' for Active; 'I' for Inactive)
REMARK    1  A    between atoms: C_4  and  O_5
REMARK    2  A    between atoms: O_5  and  C_6
REMARK    3  A    between atoms: C_6  and  N_7
REMARK    4  A    between atoms: C_16  and  C_17
REMARK                            x       y       z     vdW  Elec       q    Type
REMARK                         _______ _______ _______ _____ _____    ______ ____
ROOT
ATOM      1  C   UNL     1       3.504   2.357  -1.435  0.00  0.00    +0.000 C 
ATOM      2  C   UNL     1       2.826   1.208  -0.788  0.00  0.00    +0.000 A 
ATOM      3  C   UNL     1       1.439   1.165  -0.750  0.00  0.00    +0.000 A 
ATOM      4  C   UNL     1       0.784   0.120  -0.161  0.00  0.00    +0.000 A 
ATOM      5  C   UNL     1       1.544  -0.908   0.405  0.00  0.00    +0.000 A 
ATOM      6  C   UNL     1       2.941  -0.851   0.359  0.00  0.00    +0.000 A 
ATOM      7  C   UNL     1       3.590   0.209  -0.239  0.00  0.00    +0.000 A 
ENDROOT
BRANCH   7   8
ATOM      8  C   UNL     1       5.064   0.340  -0.328  0.00  0.00    +0.000 C 
ATOM      9  C   UNL     1       5.800  -0.728   0.456  0.00  0.00    +0.000 C 
ATOM     10  C   UNL     1       5.537   0.415  -1.764  0.00  0.00    +0.000 C 
ENDBRANCH   7   8
BRANCH   4  11
ATOM     11  O   UNL     1      -0.595   0.040  -0.099  0.00  0.00    +0.000 OA
BRANCH  11  12
ATOM     12  C   UNL     1      -1.317  -1.013   0.489  0.00  0.00    +0.000 C 
BRANCH  12  13
ATOM     13  N   UNL     1      -2.713  -0.699   0.354  0.00  0.00    +0.000 N 
ATOM     14  C   UNL     1      -3.491  -1.052  -0.695  0.00  0.00    +0.000 A 
ATOM     15  C   UNL     1      -4.779  -0.567  -0.463  0.00  0.00    +0.000 A 
ATOM     16 CL   UNL     1      -6.103  -0.803  -1.582  0.00  0.00    +0.000 Cl
ATOM     17  C   UNL     1      -4.736   0.069   0.731  0.00  0.00    +0.000 A 
ATOM     18  N   UNL     1      -5.818   0.719   1.371  0.00  0.00    +0.000 NA
ATOM     19  N   UNL     1      -3.478  -0.021   1.211  0.00  0.00    +0.000 NA
ENDBRANCH  12  13
ENDBRANCH  11  12
ENDBRANCH   4  11
TORSDOF 4
