REMARK  Name = 
REMARK  3 active torsions:
REMARK  status: ('A' for Active; 'I' for Inactive)
REMARK    1  A    between atoms: O_2  and  C_3
REMARK    2  A    between atoms: C_7  and  C_8
REMARK    3  A    between atoms: N_12  and  C_13
REMARK                            x       y       z     vdW  Elec       q    Type
REMARK                         _______ _______ _______ _____ _____    ______ ____
ROOT
ATOM      1  C   UNL     1      -0.089  -0.893   0.539  0.00  0.00    +0.000 C 
ATOM      2  C   UNL     1       0.503  -2.047   0.777  0.00  0.00    +0.000 C 
ATOM      3  S   UNL     1       2.300  -1.989   0.862  0.00  0.00    +0.000 S 
ATOM      4  C   UNL     1       2.716  -0.274   0.577  0.00  0.00    +0.000 C 
ATOM      5  N   UNL     1       4.082   0.064   0.589  0.00  0.00    +0.000 NA
ATOM      6  N   UNL     1       1.857   0.652   0.365  0.00  0.00    +0.000 NA
ATOM      7  N   UNL     1       0.514   0.349   0.348  0.00  0.00    +0.000 NA
ENDROOT
BRANCH   1  12
ATOM      8  C   UNL     1      -3.691   0.197   0.152  0.00  0.00    +0.000 A 
ATOM      9  C   UNL     1      -4.364  -0.994   0.330  0.00  0.00    +0.000 A 
ATOM     10  C   UNL     1      -3.647  -2.155   0.576  0.00  0.00    +0.000 A 
ATOM     11  C   UNL     1      -2.283  -2.089   0.637  0.00  0.00    +0.000 A 
ATOM     12  C   UNL     1      -1.567  -0.920   0.465  0.00  0.00    +0.000 A 
ATOM     13  C   UNL     1      -2.315   0.212   0.223  0.00  0.00    +0.000 A 
BRANCH   8  15
ATOM     14  C   UNL     1      -3.731   2.583  -0.277  0.00  0.00    +0.000 C 
ATOM     15  O   UNL     1      -4.428   1.365  -0.096  0.00  0.00    +0.000 OA
ENDBRANCH   8  15
ENDBRANCH   1  12
BRANCH   5  16
ATOM     16  C   UNL     1       4.563   1.408   0.879  0.00  0.00    +0.000 C 
ATOM     17  C   UNL     1       4.049   2.475  -0.093  0.00  0.00    +0.000 C 
ATOM     18  C   UNL     1       5.530   2.057  -0.079  0.00  0.00    +0.000 C 
ENDBRANCH   5  16
TORSDOF 3
