REMARK  Name = 
REMARK  4 active torsions:
REMARK  status: ('A' for Active; 'I' for Inactive)
REMARK    1  A    between atoms: C_4  and  O_5
REMARK    2  A    between atoms: O_5  and  C_6
REMARK    3  A    between atoms: C_6  and  C_8
REMARK    4  A    between atoms: C_8  and  C_10
REMARK                            x       y       z     vdW  Elec       q    Type
REMARK                         _______ _______ _______ _____ _____    ______ ____
ROOT
ATOM      1  O   UNL     1       0.303  -0.597   0.580  0.00  0.00    +0.000 OA
ENDROOT
BRANCH   1   5
ATOM      2  C   UNL     1       1.919   2.586   1.663  0.00  0.00    +0.000 C 
ATOM      3  C   UNL     1       3.083   1.471   1.923  0.00  0.00    +0.000 C 
ATOM      4  C   UNL     1       2.061   0.219   1.817  0.00  0.00    +0.000 C 
ATOM      5  C   UNL     1       1.374   0.461   0.339  0.00  0.00    +0.000 C 
ATOM      6  C   UNL     1       2.430  -0.571  -0.359  0.00  0.00    +0.000 C 
ATOM      7  C   UNL     1       3.699   0.243  -0.236  0.00  0.00    +0.000 C 
ATOM      8  C   UNL     1       4.027   0.614  -1.700  0.00  0.00    +0.000 C 
ATOM      9  C   UNL     1       4.891  -0.639   0.138  0.00  0.00    +0.000 C 
ATOM     10  C   UNL     1       3.623   1.532   0.403  0.00  0.00    +0.000 C 
ENDBRANCH   1   5
BRANCH   1  11
ATOM     11  C   UNL     1      -0.597  -0.799  -0.433  0.00  0.00    +0.000 C 
ATOM     12  O   UNL     1      -0.503  -0.131  -1.471  0.00  0.00    +0.000 OA
BRANCH  11  13
ATOM     13  C   UNL     1      -1.757  -1.865  -0.313  0.00  0.00    +0.000 C 
ATOM     14  O   UNL     1      -1.403  -2.339   1.064  0.00  0.00    +0.000 OA
BRANCH  13  15
ATOM     15  C   UNL     1      -2.877  -0.866   0.148  0.00  0.00    +0.000 A 
ATOM     16  C   UNL     1      -2.676  -0.034   1.186  0.00  0.00    +0.000 A 
ATOM     17  C   UNL     1      -3.680   0.836   1.571  0.00  0.00    +0.000 A 
ATOM     18  C   UNL     1      -4.850   0.822   0.879  0.00  0.00    +0.000 A 
ATOM     19  C   UNL     1      -5.044  -0.035  -0.183  0.00  0.00    +0.000 A 
ATOM     20  C   UNL     1      -4.023  -0.910  -0.564  0.00  0.00    +0.000 A 
ENDBRANCH  13  15
ENDBRANCH  11  13
ENDBRANCH   1  11
TORSDOF 4
