REMARK  Name = 
REMARK  5 active torsions:
REMARK  status: ('A' for Active; 'I' for Inactive)
REMARK    1  A    between atoms: N_2  and  C_3
REMARK    2  A    between atoms: C_3  and  N_5
REMARK    3  A    between atoms: N_5  and  C_6
REMARK    4  A    between atoms: C_7  and  C_8
REMARK    5  A    between atoms: C_8  and  O_10
REMARK                            x       y       z     vdW  Elec       q    Type
REMARK                         _______ _______ _______ _____ _____    ______ ____
ROOT
ATOM      1  C   UNL     1      -0.216  -0.154  -0.301  0.00  0.00    +0.000 A 
ATOM      2  C   UNL     1      -0.468  -1.440   0.123  0.00  0.00    +0.000 A 
ATOM      3  N   UNL     1       0.699  -2.114   0.047  0.00  0.00    +0.000 NA
ATOM      4  C   UNL     1       1.675  -1.307  -0.408  0.00  0.00    +0.000 A 
ATOM      5  C   UNL     1       3.030  -1.450  -0.680  0.00  0.00    +0.000 A 
ATOM      6  C   UNL     1       3.794  -0.406  -1.153  0.00  0.00    +0.000 A 
ATOM      7  C   UNL     1       3.232   0.833  -1.377  0.00  0.00    +0.000 A 
ATOM      8  C   UNL     1       4.036   1.985  -1.890  0.00  0.00    +0.000 C 
ATOM      9  C   UNL     1       1.887   0.987  -1.110  0.00  0.00    +0.000 A 
ATOM     10  C   UNL     1       1.134  -0.066  -0.637  0.00  0.00    +0.000 A 
ENDROOT
BRANCH   2  11
ATOM     11  C   UNL     1      -1.757  -1.954   0.567  0.00  0.00    +0.000 C 
ATOM     12  O   UNL     1      -1.865  -3.163   0.936  0.00  0.00    +0.000 OA
BRANCH  11  13
ATOM     13  O   UNL     1      -2.860  -1.130   0.587  0.00  0.00    +0.000 OA
ATOM     14  C   UNL     1      -4.107  -1.631   1.016  0.00  0.00    +0.000 C 
ENDBRANCH  11  13
ENDBRANCH   2  11
BRANCH   1  15
ATOM     15  N   UNL     1      -1.133   0.895  -0.388  0.00  0.00    +0.000 NA
BRANCH  15  16
ATOM     16  C   UNL     1      -1.429   1.818   0.628  0.00  0.00    +0.000 C 
ATOM     17  S   UNL     1      -0.635   1.663   2.047  0.00  0.00    +0.000 S 
BRANCH  16  19
ATOM     18  C   UNL     1      -2.645   3.780   1.531  0.00  0.00    +0.000 C 
ATOM     19  N   UNL     1      -2.372   2.854   0.461  0.00  0.00    +0.000 NA
ENDBRANCH  16  19
ENDBRANCH  15  16
ENDBRANCH   1  15
TORSDOF 5
