REMARK  Name = 
REMARK  5 active torsions:
REMARK  status: ('A' for Active; 'I' for Inactive)
REMARK    1  A    between atoms: O_2  and  C_3
REMARK    2  A    between atoms: C_3  and  C_5
REMARK    3  A    between atoms: C_8  and  C_9
REMARK    4  A    between atoms: C_9  and  S_10
REMARK    5  A    between atoms: S_10  and  C_11
REMARK                            x       y       z     vdW  Elec       q    Type
REMARK                         _______ _______ _______ _____ _____    ______ ____
ROOT
ATOM      1  C   UNL     1       2.343   0.440   0.193  0.00  0.00    +0.000 A 
ATOM      2  C   UNL     1       1.260   0.944   0.859  0.00  0.00    +0.000 A 
ATOM      3  C   UNL     1       0.313   0.089   1.355  0.00  0.00    +0.000 A 
ATOM      4  C   UNL     1       0.425  -1.268   1.198  0.00  0.00    +0.000 A 
ATOM      5  C   UNL     1       1.524  -1.759   0.523  0.00  0.00    +0.000 A 
ATOM      6  C   UNL     1       2.501  -0.939   0.008  0.00  0.00    +0.000 A 
ENDROOT
BRANCH   1   7
ATOM      7  C   UNL     1       3.348   1.371  -0.338  0.00  0.00    +0.000 C 
ATOM      8  O   UNL     1       3.187   2.604  -0.163  0.00  0.00    +0.000 OA
BRANCH   7  10
ATOM      9  C   UNL     1       5.441   1.836  -1.538  0.00  0.00    +0.000 C 
ATOM     10  O   UNL     1       4.474   0.947  -1.028  0.00  0.00    +0.000 OA
ENDBRANCH   7  10
ENDBRANCH   1   7
BRANCH   4  11
ATOM     11  C   UNL     1      -0.625  -2.205   1.743  0.00  0.00    +0.000 C 
BRANCH  11  12
ATOM     12  S   UNL     1      -1.888  -2.465   0.449  0.00  0.00    +0.000 S 
BRANCH  12  13
ATOM     13  C   UNL     1      -2.800  -1.001   0.086  0.00  0.00    +0.000 A 
ATOM     14  C   UNL     1      -3.959  -0.718   0.772  0.00  0.00    +0.000 A 
ATOM     15  C   UNL     1      -4.724   0.405   0.543  0.00  0.00    +0.000 A 
ATOM     16  C   UNL     1      -4.251   1.271  -0.451  0.00  0.00    +0.000 A 
ATOM     17  C   UNL     1      -3.092   0.993  -1.141  0.00  0.00    +0.000 A 
ATOM     18  C   UNL     1      -2.337  -0.129  -0.906  0.00  0.00    +0.000 A 
ATOM     19  N   UNL     1      -1.139  -0.414  -1.621  0.00  0.00    +0.000 NA
ENDBRANCH  12  13
ENDBRANCH  11  12
ENDBRANCH   4  11
TORSDOF 5
