REMARK  Name = 
REMARK  6 active torsions:
REMARK  status: ('A' for Active; 'I' for Inactive)
REMARK    1  A    between atoms: C_2  and  C_3
REMARK    2  A    between atoms: C_2  and  N_7
REMARK    3  A    between atoms: C_3  and  C_4
REMARK    4  A    between atoms: C_4  and  C_5
REMARK    5  A    between atoms: N_7  and  N_8
REMARK    6  A    between atoms: C_9  and  C_11
REMARK                            x       y       z     vdW  Elec       q    Type
REMARK                         _______ _______ _______ _____ _____    ______ ____
ROOT
ATOM      1  N   UNL     1       0.314  -0.859   0.943  0.00  0.00    +0.000 NA
ATOM      2  C   UNL     1      -0.511  -0.391  -0.094  0.00  0.00    +0.000 C 
ATOM      3  O   UNL     1       0.040  -0.166  -1.215  0.00  0.00    +0.000 OA
ENDROOT
BRANCH   2   4
ATOM      4  C   UNL     1      -1.937  -0.116  -0.073  0.00  0.00    +0.000 A 
ATOM      5  C   UNL     1      -2.804  -0.812  -0.895  0.00  0.00    +0.000 A 
ATOM      6  C   UNL     1      -4.156  -0.525  -0.896  0.00  0.00    +0.000 A 
ATOM      7  C   UNL     1      -4.638   0.491  -0.043  0.00  0.00    +0.000 A 
ATOM      8  C   UNL     1      -3.763   1.180   0.783  0.00  0.00    +0.000 A 
ATOM      9 BR   UNL     1      -4.438   2.561   1.924  0.00  0.00    +0.000 Br
ATOM     10  C   UNL     1      -2.425   0.885   0.769  0.00  0.00    +0.000 A 
ENDBRANCH   2   4
BRANCH   1  11
ATOM     11  N   UNL     1       1.600  -1.054   0.997  0.00  0.00    +0.000 NA
BRANCH  11  13
ATOM     12  C   UNL     1       3.559  -2.392   1.264  0.00  0.00    +0.000 C 
ATOM     13  C   UNL     1       2.796  -1.460   0.593  0.00  0.00    +0.000 C 
BRANCH  13  14
ATOM     14  C   UNL     1       3.426  -0.984  -0.668  0.00  0.00    +0.000 C 
BRANCH  14  15
ATOM     15  C   UNL     1       3.629   0.506  -0.564  0.00  0.00    +0.000 C 
BRANCH  15  16
ATOM     16  C   UNL     1       4.520   0.841   0.594  0.00  0.00    +0.000 C 
ATOM     17  C   UNL     1       4.789   2.294   0.743  0.00  0.00    +0.000 C 
ENDBRANCH  15  16
ENDBRANCH  14  15
ENDBRANCH  13  14
ENDBRANCH  11  13
ENDBRANCH   1  11
TORSDOF 6
