REMARK  Name = 
REMARK  5 active torsions:
REMARK  status: ('A' for Active; 'I' for Inactive)
REMARK    1  A    between atoms: C_2  and  O_3
REMARK    2  A    between atoms: O_3  and  C_4
REMARK    3  A    between atoms: C_6  and  O_7
REMARK    4  A    between atoms: O_7  and  C_8
REMARK    5  A    between atoms: C_16  and  C_17
REMARK                            x       y       z     vdW  Elec       q    Type
REMARK                         _______ _______ _______ _____ _____    ______ ____
ROOT
ATOM      1  C   UNL     1       0.362  -1.006   0.491  0.00  0.00    +0.000 A 
ATOM      2  C   UNL     1      -0.613  -1.835  -0.018  0.00  0.00    +0.000 A 
ATOM      3  C   UNL     1      -1.593  -1.358  -0.895  0.00  0.00    +0.000 A 
ATOM      4  C   UNL     1      -1.546  -0.021  -1.232  0.00  0.00    +0.000 A 
ATOM      5  C   UNL     1      -2.503   0.477  -2.099  0.00  0.00    +0.000 A 
ATOM      6  C   UNL     1      -2.479   1.813  -2.452  0.00  0.00    +0.000 A 
ATOM      7  C   UNL     1      -1.503   2.646  -1.944  0.00  0.00    +0.000 A 
ATOM      8  C   UNL     1      -0.570   2.112  -1.086  0.00  0.00    +0.000 A 
ATOM      9  C   UNL     1      -0.564   0.786  -0.713  0.00  0.00    +0.000 A 
ATOM     10  C   UNL     1       0.412   0.329   0.157  0.00  0.00    +0.000 A 
ENDROOT
BRANCH  10  11
ATOM     11  C   UNL     1       1.424   1.247   0.669  0.00  0.00    +0.000 A 
ATOM     12  C   UNL     1       1.398   2.028   1.807  0.00  0.00    +0.000 A 
ATOM     13  C   UNL     1       2.582   2.731   1.875  0.00  0.00    +0.000 A 
ATOM     14  N   UNL     1       2.987   3.668   2.894  0.00  0.00    +0.000 NA
ATOM     15  O   UNL     1       3.271   2.374   0.818  0.00  0.00    +0.000 OA
ATOM     16  N   UNL     1       2.624   1.514   0.100  0.00  0.00    +0.000 NA
ENDBRANCH  10  11
BRANCH   1  17
ATOM     17  O   UNL     1       1.329  -1.489   1.360  0.00  0.00    +0.000 OA
BRANCH  17  19
ATOM     18  C   UNL     1       1.502  -3.741   0.511  0.00  0.00    +0.000 C 
ATOM     19  C   UNL     1       1.342  -2.856   1.751  0.00  0.00    +0.000 C 
ENDBRANCH  17  19
ENDBRANCH   1  17
BRANCH   3  20
ATOM     20  O   UNL     1      -2.585  -2.176  -1.421  0.00  0.00    +0.000 OA
BRANCH  20  21
ATOM     21  C   UNL     1      -2.568  -3.535  -1.029  0.00  0.00    +0.000 C 
ATOM     22  C   UNL     1      -2.711  -3.708   0.458  0.00  0.00    +0.000 C 
ENDBRANCH  20  21
ENDBRANCH   3  20
TORSDOF 5
