REMARK  Name = 
REMARK  4 active torsions:
REMARK  status: ('A' for Active; 'I' for Inactive)
REMARK    1  A    between atoms: S_2  and  C_3
REMARK    2  A    between atoms: C_8  and  C_9
REMARK    3  A    between atoms: C_9  and  S_10
REMARK    4  A    between atoms: S_10  and  C_11
REMARK                            x       y       z     vdW  Elec       q    Type
REMARK                         _______ _______ _______ _____ _____    ______ ____
ROOT
ATOM      1  C   UNL     1       3.083  -0.640   0.105  0.00  0.00    +0.000 A 
ATOM      2  N   UNL     1       2.754   0.113   1.175  0.00  0.00    +0.000 NA
ATOM      3  C   UNL     1       1.707   0.980   1.154  0.00  0.00    +0.000 A 
ATOM      4  N   UNL     1       1.370   1.769   2.292  0.00  0.00    +0.000 NA
ATOM      5  N   UNL     1       1.008   1.049  -0.003  0.00  0.00    +0.000 NA
ATOM      6  C   UNL     1       1.305   0.320  -1.081  0.00  0.00    +0.000 A 
ATOM      7  N   UNL     1       2.340  -0.519  -1.020  0.00  0.00    +0.000 NA
ENDROOT
BRANCH   1   9
ATOM      8  C   UNL     1       5.957  -0.849  -0.305  0.00  0.00    +0.000 C 
ATOM      9  S   UNL     1       4.475  -1.757   0.211  0.00  0.00    +0.000 S 
ENDBRANCH   1   9
BRANCH   6  10
ATOM     10  C   UNL     1       0.449   0.499  -2.283  0.00  0.00    +0.000 C 
BRANCH  10  11
ATOM     11  S   UNL     1      -0.948  -0.620  -2.314  0.00  0.00    +0.000 S 
BRANCH  11  12
ATOM     12  C   UNL     1      -2.112  -0.302  -1.011  0.00  0.00    +0.000 A 
ATOM     13  C   UNL     1      -3.240  -1.088  -0.914  0.00  0.00    +0.000 A 
ATOM     14  C   UNL     1      -4.194  -0.910   0.066  0.00  0.00    +0.000 A 
ATOM     15  C   UNL     1      -4.025   0.099   1.002  0.00  0.00    +0.000 A 
ATOM     16  C   UNL     1      -5.065   0.274   2.051  0.00  0.00    +0.000 C 
ATOM     17  C   UNL     1      -2.905   0.883   0.911  0.00  0.00    +0.000 A 
ATOM     18  C   UNL     1      -1.959   0.697  -0.071  0.00  0.00    +0.000 A 
ENDBRANCH  11  12
ENDBRANCH  10  11
ENDBRANCH   6  10
TORSDOF 4
