REMARK  Name = 
REMARK  1 active torsions:
REMARK  status: ('A' for Active; 'I' for Inactive)
REMARK    1  A    between atoms: C_5  and  C_6
REMARK                            x       y       z     vdW  Elec       q    Type
REMARK                         _______ _______ _______ _____ _____    ______ ____
ROOT
ATOM      1  C   UNL     1       0.757  -0.269   0.126  0.00  0.00    +0.000 A 
ATOM      2  C   UNL     1       0.127  -1.158   0.963  0.00  0.00    +0.000 A 
ATOM      3  C   UNL     1      -1.240  -1.126   1.119  0.00  0.00    +0.000 A 
ATOM      4  N   UNL     1      -1.894  -1.922   1.880  0.00  0.00    +0.000 NA
ATOM      5  O   UNL     1      -3.272  -1.821   1.979  0.00  0.00    +0.000 OA
ATOM      6  C   UNL     1      -1.934  -0.173   0.405  0.00  0.00    +0.000 A 
ATOM      7  C   UNL     1      -3.307  -0.064   0.497  0.00  0.00    +0.000 A 
ATOM      8  C   UNL     1      -4.030   0.878  -0.203  0.00  0.00    +0.000 A 
ATOM      9  C   UNL     1      -5.505   1.003  -0.111  0.00  0.00    +0.000 C 
ATOM     10  C   UNL     1      -3.354   1.736  -1.020  0.00  0.00    +0.000 A 
ATOM     11  C   UNL     1      -1.995   1.653  -1.132  0.00  0.00    +0.000 A 
ATOM     12  C   UNL     1      -1.285   2.592  -2.021  0.00  0.00    +0.000 C 
ATOM     13  C   UNL     1      -1.269   0.720  -0.440  0.00  0.00    +0.000 A 
ATOM     14  O   UNL     1       0.031   0.609  -0.520  0.00  0.00    +0.000 OA
ENDROOT
BRANCH   1  19
ATOM     15  C   UNL     1       6.497  -0.484  -0.461  0.00  0.00    +0.000 C 
ATOM     16  C   UNL     1       5.014  -0.412  -0.323  0.00  0.00    +0.000 A 
ATOM     17  C   UNL     1       4.349  -1.289   0.508  0.00  0.00    +0.000 A 
ATOM     18  C   UNL     1       2.962  -1.239   0.652  0.00  0.00    +0.000 A 
ATOM     19  C   UNL     1       2.207  -0.311  -0.033  0.00  0.00    +0.000 A 
ATOM     20  C   UNL     1       2.882   0.560  -0.860  0.00  0.00    +0.000 A 
ATOM     21  C   UNL     1       4.259   0.516  -1.007  0.00  0.00    +0.000 A 
ENDBRANCH   1  19
TORSDOF 1
