REMARK  Name = 
REMARK  2 active torsions:
REMARK  status: ('A' for Active; 'I' for Inactive)
REMARK    1  A    between atoms: C_2  and  N_3
REMARK    2  A    between atoms: C_6  and  C_7
REMARK                            x       y       z     vdW  Elec       q    Type
REMARK                         _______ _______ _______ _____ _____    ______ ____
ROOT
ATOM      1  C   UNL     1      -0.560  -0.539  -0.564  0.00  0.00    +0.000 A 
ATOM      2  C   UNL     1      -0.924  -1.438  -1.533  0.00  0.00    +0.000 A 
ATOM      3  N   UNL     1      -2.260  -1.296  -1.793  0.00  0.00    +0.000 NA
ATOM      4  C   UNL     1      -2.755  -0.323  -1.007  0.00  0.00    +0.000 A 
ATOM      5  C   UNL     1      -4.009   0.243  -0.836  0.00  0.00    +0.000 A 
ATOM      6  C   UNL     1      -4.198   1.255   0.077  0.00  0.00    +0.000 A 
ATOM      7  C   UNL     1      -3.176   1.727   0.833  0.00  0.00    +0.000 A 
ATOM      8  C   UNL     1      -3.313   2.811   1.831  0.00  0.00    +0.000 C 
ATOM      9  C   UNL     1      -1.923   1.157   0.657  0.00  0.00    +0.000 A 
ATOM     10  C   UNL     1      -1.702   0.142  -0.249  0.00  0.00    +0.000 A 
ENDROOT
BRANCH   1  14
ATOM     11  N   UNL     1       4.282  -1.565  -0.112  0.00  0.00    +0.000 NA
ATOM     12  C   UNL     1       3.026  -0.880   0.172  0.00  0.00    +0.000 A 
ATOM     13  N   UNL     1       1.854  -1.086  -0.372  0.00  0.00    +0.000 NA
ATOM     14  C   UNL     1       0.815  -0.374   0.002  0.00  0.00    +0.000 A 
ATOM     15  C   UNL     1       1.061   0.572   0.981  0.00  0.00    +0.000 A 
ATOM     16  S   UNL     1       2.722   0.373   1.283  0.00  0.00    +0.000 S 
BRANCH  11  18
ATOM     17  C   UNL     1       5.633   0.346   0.342  0.00  0.00    +0.000 C 
ATOM     18  C   UNL     1       5.426  -1.126   0.647  0.00  0.00    +0.000 C 
ENDBRANCH  11  18
ENDBRANCH   1  14
TORSDOF 2
