REMARK  Name = 
REMARK  1 active torsions:
REMARK  status: ('A' for Active; 'I' for Inactive)
REMARK    1  A    between atoms: C_12  and  C_13
REMARK                            x       y       z     vdW  Elec       q    Type
REMARK                         _______ _______ _______ _____ _____    ______ ____
ROOT
ATOM      1  O   UNL     1       0.456  -2.254   0.051  0.00  0.00    +0.000 OA
ATOM      2  C   UNL     1      -0.669  -1.692   0.089  0.00  0.00    +0.000 C 
ATOM      3  N   UNL     1      -1.932  -2.366   0.301  0.00  0.00    +0.000 NA
ATOM      4  C   UNL     1      -2.986  -1.425   0.283  0.00  0.00    +0.000 A 
ATOM      5  C   UNL     1      -4.364  -1.610   0.443  0.00  0.00    +0.000 A 
ATOM      6  C   UNL     1      -5.207  -0.517   0.385  0.00  0.00    +0.000 A 
ATOM      7  C   UNL     1      -4.721   0.757   0.173  0.00  0.00    +0.000 A 
ATOM      8 CL   UNL     1      -5.857   2.089   0.114  0.00  0.00    +0.000 Cl
ATOM      9  C   UNL     1      -3.361   0.931   0.016  0.00  0.00    +0.000 A 
ATOM     10  C   UNL     1      -2.497  -0.165   0.072  0.00  0.00    +0.000 A 
ATOM     11  C   UNL     1      -1.024  -0.293  -0.056  0.00  0.00    +0.000 C 
ATOM     12  C   UNL     1      -0.216   0.692  -0.261  0.00  0.00    +0.000 C 
ENDROOT
BRANCH  12  13
ATOM     13  C   UNL     1       1.214   0.556  -0.382  0.00  0.00    +0.000 A 
ATOM     14  C   UNL     1       1.982   1.718  -0.575  0.00  0.00    +0.000 A 
ATOM     15  C   UNL     1       3.285   1.324  -0.654  0.00  0.00    +0.000 A 
ATOM     16  C   UNL     1       3.307  -0.032  -0.514  0.00  0.00    +0.000 A 
ATOM     17  N   UNL     1       2.065  -0.450  -0.355  0.00  0.00    +0.000 NA
ATOM     18  C   UNL     1       4.587  -0.833  -0.547  0.00  0.00    +0.000 C 
ATOM     19  C   UNL     1       5.790   0.042  -0.722  0.00  0.00    +0.000 C 
ATOM     20  C   UNL     1       5.610   1.397  -0.050  0.00  0.00    +0.000 C 
ATOM     21  C   UNL     1       4.538   2.130  -0.854  0.00  0.00    +0.000 C 
ENDBRANCH  12  13
TORSDOF 1
