REMARK  Name = 
REMARK  6 active torsions:
REMARK  status: ('A' for Active; 'I' for Inactive)
REMARK    1  A    between atoms: C_2  and  N_3
REMARK    2  A    between atoms: C_2  and  C_9
REMARK    3  A    between atoms: N_3  and  N_4
REMARK    4  A    between atoms: C_5  and  O_7
REMARK    5  A    between atoms: C_18  and  O_19
REMARK    6  A    between atoms: O_19  and  C_20
REMARK                            x       y       z     vdW  Elec       q    Type
REMARK                         _______ _______ _______ _____ _____    ______ ____
ROOT
ATOM      1  C   UNL     1       0.282  -0.293   0.331  0.00  0.00    +0.000 A 
ATOM      2  C   UNL     1       0.746   0.970   0.082  0.00  0.00    +0.000 A 
ATOM      3  C   UNL     1      -0.089   2.060   0.001  0.00  0.00    +0.000 A 
ATOM      4  C   UNL     1      -1.454   1.832   0.181  0.00  0.00    +0.000 A 
ATOM      5  C   UNL     1      -2.352   2.876   0.093  0.00  0.00    +0.000 A 
ATOM      6  C   UNL     1      -3.719   2.683   0.245  0.00  0.00    +0.000 A 
ATOM      7  C   UNL     1      -4.199   1.399   0.496  0.00  0.00    +0.000 A 
ATOM      8  C   UNL     1      -3.330   0.339   0.594  0.00  0.00    +0.000 A 
ATOM      9  C   UNL     1      -1.963   0.577   0.431  0.00  0.00    +0.000 A 
ATOM     10  C   UNL     1      -1.075  -0.489   0.502  0.00  0.00    +0.000 A 
ENDROOT
BRANCH   1  12
ATOM     11  C   UNL     1       0.694  -2.655   0.223  0.00  0.00    +0.000 C 
ATOM     12  C   UNL     1       1.225  -1.418   0.406  0.00  0.00    +0.000 C 
BRANCH  12  13
ATOM     13  N   UNL     1       2.540  -1.295   0.668  0.00  0.00    +0.000 NA
BRANCH  13  14
ATOM     14  N   UNL     1       3.488  -0.434   0.982  0.00  0.00    +0.000 NA
ATOM     15  C   UNL     1       4.078   0.447   0.056  0.00  0.00    +0.000 C 
ATOM     16  O   UNL     1       3.655   0.393  -1.141  0.00  0.00    +0.000 OA
BRANCH  15  17
ATOM     17  O   UNL     1       5.063   1.364   0.343  0.00  0.00    +0.000 OA
ATOM     18  C   UNL     1       5.614   2.233  -0.629  0.00  0.00    +0.000 C 
ENDBRANCH  15  17
ENDBRANCH  13  14
ENDBRANCH  12  13
ENDBRANCH   1  12
BRANCH  10  19
ATOM     19  O   UNL     1      -1.587  -1.731   0.748  0.00  0.00    +0.000 OA
BRANCH  19  20
ATOM     20  C   UNL     1      -2.102  -2.709  -0.062  0.00  0.00    +0.000 C 
ATOM     21  F   UNL     1      -2.540  -3.855   0.577  0.00  0.00    +0.000 F 
ATOM     22  F   UNL     1      -2.974  -2.294  -1.032  0.00  0.00    +0.000 F 
ENDBRANCH  19  20
ENDBRANCH  10  19
TORSDOF 6
