REMARK  Name = 
REMARK  3 active torsions:
REMARK  status: ('A' for Active; 'I' for Inactive)
REMARK    1  A    between atoms: C_2  and  O_5
REMARK    2  A    between atoms: O_5  and  C_6
REMARK    3  A    between atoms: C_10  and  C_11
REMARK                            x       y       z     vdW  Elec       q    Type
REMARK                         _______ _______ _______ _____ _____    ______ ____
ROOT
ATOM      1  C   UNL     1       1.576  -0.653  -0.608  0.00  0.00    +0.000 C 
ATOM      2  O   UNL     1       2.360  -1.422  -1.210  0.00  0.00    +0.000 OA
ATOM      3  N   UNL     1       0.168  -0.781  -0.543  0.00  0.00    +0.000 N 
ATOM      4  C   UNL     1      -0.469  -1.853  -1.197  0.00  0.00    +0.000 C 
ATOM      5  C   UNL     1      -1.843  -2.046  -0.354  0.00  0.00    +0.000 C 
ATOM      6  C   UNL     1      -1.935  -0.584   0.255  0.00  0.00    +0.000 A 
ATOM      7  C   UNL     1      -3.033  -0.015   0.854  0.00  0.00    +0.000 A 
ATOM      8  C   UNL     1      -2.916   1.292   1.342  0.00  0.00    +0.000 A 
ATOM      9  C   UNL     1      -1.740   1.962   1.216  0.00  0.00    +0.000 A 
ATOM     10  N   UNL     1      -1.600   3.301   1.710  0.00  0.00    +0.000 NA
ATOM     11  C   UNL     1      -0.672   1.329   0.601  0.00  0.00    +0.000 A 
ATOM     12  C   UNL     1      -0.762   0.046   0.113  0.00  0.00    +0.000 A 
ENDROOT
BRANCH   5  13
ATOM     13  C   UNL     1      -2.827  -1.721  -1.628  0.00  0.00    +0.000 C 
ATOM     14 CL   UNL     1      -4.412  -1.908  -0.800  0.00  0.00    +0.000 Cl
ENDBRANCH   5  13
BRANCH   1  15
ATOM     15  O   UNL     1       2.219   0.420   0.046  0.00  0.00    +0.000 OA
BRANCH  15  17
ATOM     16  C   UNL     1       4.136   0.775  -1.371  0.00  0.00    +0.000 C 
ATOM     17  C   UNL     1       3.590   0.600   0.020  0.00  0.00    +0.000 C 
ATOM     18  C   UNL     1       3.934   1.835   0.813  0.00  0.00    +0.000 C 
ATOM     19  C   UNL     1       4.226  -0.577   0.741  0.00  0.00    +0.000 C 
ENDBRANCH  15  17
ENDBRANCH   1  15
TORSDOF 3
