REMARK  Name = 
REMARK  5 active torsions:
REMARK  status: ('A' for Active; 'I' for Inactive)
REMARK    1  A    between atoms: C_2  and  C_3
REMARK    2  A    between atoms: C_3  and  C_5
REMARK    3  A    between atoms: C_3  and  O_7
REMARK    4  A    between atoms: O_7  and  C_8
REMARK    5  A    between atoms: C_11  and  C_13
REMARK                            x       y       z     vdW  Elec       q    Type
REMARK                         _______ _______ _______ _____ _____    ______ ____
ROOT
ATOM      1  C   UNL     1       1.144   0.287   0.070  0.00  0.00    +0.000 C 
ATOM      2  O   UNL     1       1.265   1.530   0.246  0.00  0.00    +0.000 OA
ATOM      3  N   UNL     1      -0.157  -0.255   0.185  0.00  0.00    +0.000 NA
ATOM      4  C   UNL     1      -1.318   0.477   0.479  0.00  0.00    +0.000 C 
ATOM      5  O   UNL     1      -1.196   1.734   0.657  0.00  0.00    +0.000 OA
ENDROOT
BRANCH   4   6
ATOM      6  C   UNL     1      -2.652  -0.102   0.594  0.00  0.00    +0.000 A 
ATOM      7  C   UNL     1      -3.465  -0.195  -0.516  0.00  0.00    +0.000 A 
ATOM      8  C   UNL     1      -4.735  -0.729  -0.486  0.00  0.00    +0.000 A 
ATOM      9  C   UNL     1      -5.212  -1.193   0.721  0.00  0.00    +0.000 A 
ATOM     10  C   UNL     1      -4.441  -1.124   1.862  0.00  0.00    +0.000 A 
ATOM     11  C   UNL     1      -3.168  -0.579   1.782  0.00  0.00    +0.000 A 
ATOM     12 CL   UNL     1      -2.134  -0.462   3.200  0.00  0.00    +0.000 Cl
ENDBRANCH   4   6
BRANCH   1  13
ATOM     13  O   UNL     1       2.265  -0.475  -0.222  0.00  0.00    +0.000 OA
BRANCH  13  14
ATOM     14  C   UNL     1       3.564   0.121  -0.329  0.00  0.00    +0.000 C 
ATOM     15  C   UNL     1       3.855   0.770   1.011  0.00  0.00    +0.000 C 
BRANCH  14  17
ATOM     16  C   UNL     1       3.493   1.945  -2.300  0.00  0.00    +0.000 C 
ATOM     17  C   UNL     1       3.530   1.131  -1.409  0.00  0.00    +0.000 C 
ENDBRANCH  14  17
BRANCH  14  18
ATOM     18  C   UNL     1       4.600  -0.889  -0.709  0.00  0.00    +0.000 C 
ATOM     19  C   UNL     1       4.763  -1.991   0.286  0.00  0.00    +0.000 C 
ENDBRANCH  14  18
ENDBRANCH  13  14
ENDBRANCH   1  13
TORSDOF 5
