REMARK  Name = 
REMARK  2 active torsions:
REMARK  status: ('A' for Active; 'I' for Inactive)
REMARK    1  A    between atoms: C_2  and  C_11
REMARK    2  A    between atoms: N_3  and  C_4
REMARK                            x       y       z     vdW  Elec       q    Type
REMARK                         _______ _______ _______ _____ _____    ______ ____
ROOT
ATOM      1  O   UNL     1       0.823  -1.488  -1.522  0.00  0.00    +0.000 OA
ATOM      2  C   UNL     1       0.201  -0.861  -0.634  0.00  0.00    +0.000 C 
ATOM      3  N   UNL     1       0.885   0.118   0.117  0.00  0.00    +0.000 NA
ENDROOT
BRANCH   2   4
ATOM      4  C   UNL     1      -1.232  -1.172  -0.404  0.00  0.00    +0.000 A 
ATOM      5  S   UNL     1      -2.206  -2.315  -1.212  0.00  0.00    +0.000 S 
ATOM      6  C   UNL     1      -3.671  -2.055  -0.379  0.00  0.00    +0.000 A 
ATOM      7  C   UNL     1      -3.352  -1.074   0.514  0.00  0.00    +0.000 A 
ATOM      8  C   UNL     1      -2.080  -0.619   0.495  0.00  0.00    +0.000 A 
ATOM      9  C   UNL     1      -1.776   0.468   1.504  0.00  0.00    +0.000 C 
ATOM     10  C   UNL     1      -2.788   1.571   1.269  0.00  0.00    +0.000 C 
ATOM     11  C   UNL     1      -4.210   1.065   1.332  0.00  0.00    +0.000 C 
ATOM     12  C   UNL     1      -4.272  -0.436   1.529  0.00  0.00    +0.000 C 
ENDBRANCH   2   4
BRANCH   3  13
ATOM     13  C   UNL     1       2.258   0.443  -0.075  0.00  0.00    +0.000 A 
ATOM     14  C   UNL     1       3.039  -0.183  -1.024  0.00  0.00    +0.000 A 
ATOM     15  C   UNL     1       4.364   0.165  -1.173  0.00  0.00    +0.000 A 
ATOM     16  C   UNL     1       4.955   1.146  -0.385  0.00  0.00    +0.000 A 
ATOM     17  C   UNL     1       4.181   1.776   0.566  0.00  0.00    +0.000 A 
ATOM     18  C   UNL     1       2.836   1.417   0.711  0.00  0.00    +0.000 A 
ATOM     19  O   UNL     1       2.047   2.035   1.655  0.00  0.00    +0.000 OA
ENDBRANCH   3  13
TORSDOF 2
