REMARK  Name = 
REMARK  3 active torsions:
REMARK  status: ('A' for Active; 'I' for Inactive)
REMARK    1  A    between atoms: C_2  and  O_3
REMARK    2  A    between atoms: O_3  and  C_4
REMARK    3  A    between atoms: C_4  and  C_6
REMARK                            x       y       z     vdW  Elec       q    Type
REMARK                         _______ _______ _______ _____ _____    ______ ____
ROOT
ATOM      1  C   UNL     1       1.480   0.365  -0.037  0.00  0.00    +0.000 A 
ATOM      2  C   UNL     1       1.358   1.549  -0.750  0.00  0.00    +0.000 A 
ATOM      3  C   UNL     1       2.523   2.336  -1.207  0.00  0.00    +0.000 C 
ATOM      4  O   UNL     1       0.069   1.791  -0.914  0.00  0.00    +0.000 OA
ATOM      5  C   UNL     1      -0.640   0.828  -0.345  0.00  0.00    +0.000 A 
ATOM      6  C   UNL     1       0.209  -0.090   0.219  0.00  0.00    +0.000 A 
ATOM      7  C   UNL     1      -0.297  -1.192   0.875  0.00  0.00    +0.000 A 
ATOM      8  C   UNL     1      -1.656  -1.419   0.992  0.00  0.00    +0.000 A 
ATOM      9  O   UNL     1      -2.205  -2.502   1.636  0.00  0.00    +0.000 OA
ATOM     10  C   UNL     1      -2.501  -0.489   0.420  0.00  0.00    +0.000 A 
ATOM     11  C   UNL     1      -3.886  -0.667   0.508  0.00  0.00    +0.000 A 
ATOM     12  C   UNL     1      -4.721   0.262  -0.063  0.00  0.00    +0.000 A 
ATOM     13  C   UNL     1      -4.225   1.359  -0.716  0.00  0.00    +0.000 A 
ATOM     14  C   UNL     1      -2.874   1.540  -0.805  0.00  0.00    +0.000 A 
ATOM     15  C   UNL     1      -2.017   0.618  -0.239  0.00  0.00    +0.000 A 
ENDROOT
BRANCH   1  16
ATOM     16  C   UNL     1       2.686  -0.305   0.384  0.00  0.00    +0.000 C 
ATOM     17  O   UNL     1       3.207  -0.037   1.511  0.00  0.00    +0.000 OA
BRANCH  16  18
ATOM     18  O   UNL     1       3.345  -1.260  -0.382  0.00  0.00    +0.000 OA
BRANCH  18  20
ATOM     19  C   UNL     1       5.606  -0.810   0.361  0.00  0.00    +0.000 C 
ATOM     20  C   UNL     1       4.538  -1.878   0.111  0.00  0.00    +0.000 C 
ENDBRANCH  18  20
ENDBRANCH  16  18
ENDBRANCH   1  16
TORSDOF 3
