REMARK  Name = 
REMARK  3 active torsions:
REMARK  status: ('A' for Active; 'I' for Inactive)
REMARK    1  A    between atoms: C_5  and  C_6
REMARK    2  A    between atoms: C_10  and  O_11
REMARK    3  A    between atoms: O_11  and  C_12
REMARK                            x       y       z     vdW  Elec       q    Type
REMARK                         _______ _______ _______ _____ _____    ______ ____
ROOT
ATOM      1  C   UNL     1       1.391  -3.608   1.089  0.00  0.00    +0.000 C 
ATOM      2  C   UNL     1       1.763  -2.257   0.648  0.00  0.00    +0.000 A 
ATOM      3  C   UNL     1       3.066  -1.880   0.519  0.00  0.00    +0.000 A 
ATOM      4  C   UNL     1       3.426  -0.607   0.103  0.00  0.00    +0.000 A 
ATOM      5  C   UNL     1       2.465   0.337  -0.199  0.00  0.00    +0.000 A 
ATOM      6  C   UNL     1       1.152  -0.065  -0.063  0.00  0.00    +0.000 A 
ATOM      7  C   UNL     1       0.774  -1.325   0.349  0.00  0.00    +0.000 A 
ENDROOT
BRANCH   5   8
ATOM      8  C   UNL     1       2.866   1.700  -0.645  0.00  0.00    +0.000 C 
ATOM      9  C   UNL     1       3.719   2.377   0.394  0.00  0.00    +0.000 C 
ATOM     10  C   UNL     1       1.711   2.515  -1.114  0.00  0.00    +0.000 C 
ENDBRANCH   5   8
BRANCH   7  11
ATOM     11  O   UNL     1      -0.569  -1.653   0.462  0.00  0.00    +0.000 OA
BRANCH  11  12
ATOM     12  C   UNL     1      -1.529  -0.676   0.148  0.00  0.00    +0.000 A 
ATOM     13  C   UNL     1      -1.931   0.258   1.088  0.00  0.00    +0.000 A 
ATOM     14  C   UNL     1      -2.876   1.214   0.771  0.00  0.00    +0.000 A 
ATOM     15 CL   UNL     1      -3.324   2.355   2.018  0.00  0.00    +0.000 Cl
ATOM     16  N   UNL     1      -3.406   1.232  -0.463  0.00  0.00    +0.000 NA
ATOM     17  C   UNL     1      -3.007   0.320  -1.363  0.00  0.00    +0.000 A 
ATOM     18  N   UNL     1      -3.600   0.369  -2.682  0.00  0.00    +0.000 NA
ATOM     19  N   UNL     1      -2.093  -0.607  -1.060  0.00  0.00    +0.000 NA
ENDBRANCH  11  12
ENDBRANCH   7  11
TORSDOF 3
