REMARK  Name = 
REMARK  3 active torsions:
REMARK  status: ('A' for Active; 'I' for Inactive)
REMARK    1  A    between atoms: C_7  and  C_8
REMARK    2  A    between atoms: N_10  and  C_11
REMARK    3  A    between atoms: C_17  and  C_18
REMARK                            x       y       z     vdW  Elec       q    Type
REMARK                         _______ _______ _______ _____ _____    ______ ____
ROOT
ATOM      1  C   UNL     1       1.192  -0.827   0.026  0.00  0.00    +0.000 C 
ATOM      2  O   UNL     1       0.812  -2.021   0.064  0.00  0.00    +0.000 OA
ATOM      3  N   UNL     1       0.221   0.191  -0.069  0.00  0.00    +0.000 NA
ENDROOT
BRANCH   1  10
ATOM      4  C   UNL     1       2.107   1.942  -0.059  0.00  0.00    +0.000 C 
ATOM      5  C   UNL     1       3.033   0.781   0.041  0.00  0.00    +0.000 A 
ATOM      6  C   UNL     1       4.396   1.025   0.096  0.00  0.00    +0.000 A 
ATOM      7  C   UNL     1       5.311   0.006   0.189  0.00  0.00    +0.000 A 
ATOM      8  C   UNL     1       4.875  -1.299   0.229  0.00  0.00    +0.000 A 
ATOM      9  C   UNL     1       3.520  -1.526   0.173  0.00  0.00    +0.000 A 
ATOM     10  C   UNL     1       2.603  -0.510   0.081  0.00  0.00    +0.000 A 
ENDBRANCH   1  10
BRANCH   3  11
ATOM     11  C   UNL     1      -1.154  -0.222  -0.117  0.00  0.00    +0.000 A 
ATOM     12  S   UNL     1      -1.756  -1.825  -0.071  0.00  0.00    +0.000 S 
ATOM     13  C   UNL     1      -3.423  -1.495  -0.169  0.00  0.00    +0.000 A 
ATOM     14  C   UNL     1      -4.524  -2.501  -0.175  0.00  0.00    +0.000 C 
ATOM     15  C   UNL     1      -3.462  -0.130  -0.235  0.00  0.00    +0.000 A 
ATOM     16  C   UNL     1      -4.826   0.523  -0.332  0.00  0.00    +0.000 C 
ATOM     17  C   UNL     1      -2.305   0.537  -0.209  0.00  0.00    +0.000 A 
BRANCH  17  18
ATOM     18  C   UNL     1      -2.181   2.006  -0.272  0.00  0.00    +0.000 C 
ATOM     19  N   UNL     1      -3.382   2.783  -0.368  0.00  0.00    +0.000 NA
ATOM     20  O   UNL     1      -1.056   2.564  -0.243  0.00  0.00    +0.000 OA
ENDBRANCH  17  18
ENDBRANCH   3  11
TORSDOF 3
