REMARK  Name = 
REMARK  3 active torsions:
REMARK  status: ('A' for Active; 'I' for Inactive)
REMARK    1  A    between atoms: C_6  and  N_7
REMARK    2  A    between atoms: C_8  and  C_10
REMARK    3  A    between atoms: C_13  and  N_14
REMARK                            x       y       z     vdW  Elec       q    Type
REMARK                         _______ _______ _______ _____ _____    ______ ____
ROOT
ATOM      1  N   UNL     1      -0.863  -0.189  -0.549  0.00  0.00    +0.000 NA
ATOM      2  C   UNL     1      -0.099   0.126   0.604  0.00  0.00    +0.000 C 
ATOM      3  O   UNL     1      -0.714   0.261   1.687  0.00  0.00    +0.000 OA
ENDROOT
BRANCH   1   9
ATOM      4  C   UNL     1      -6.489  -1.007  -0.377  0.00  0.00    +0.000 C 
ATOM      5  C   UNL     1      -5.026  -0.753  -0.430  0.00  0.00    +0.000 A 
ATOM      6  C   UNL     1      -4.186  -1.813  -0.226  0.00  0.00    +0.000 A 
ATOM      7  C   UNL     1      -2.828  -1.595  -0.272  0.00  0.00    +0.000 A 
ATOM      8  C   UNL     1      -1.908  -2.738  -0.052  0.00  0.00    +0.000 C 
ATOM      9  C   UNL     1      -2.276  -0.353  -0.514  0.00  0.00    +0.000 A 
ATOM     10  C   UNL     1      -3.114   0.716  -0.719  0.00  0.00    +0.000 A 
ATOM     11  C   UNL     1      -2.546   2.065  -0.982  0.00  0.00    +0.000 C 
ATOM     12  C   UNL     1      -4.495   0.498  -0.673  0.00  0.00    +0.000 A 
ENDBRANCH   1   9
BRANCH   2  13
ATOM     13  C   UNL     1       1.347   0.276   0.479  0.00  0.00    +0.000 A 
ATOM     14  C   UNL     1       2.148   0.583   1.560  0.00  0.00    +0.000 A 
ATOM     15  C   UNL     1       3.516   0.725   1.441  0.00  0.00    +0.000 A 
ATOM     16  C   UNL     1       4.157   0.568   0.232  0.00  0.00    +0.000 A 
ATOM     17  C   UNL     1       3.365   0.262  -0.854  0.00  0.00    +0.000 A 
ATOM     18  C   UNL     1       1.999   0.121  -0.728  0.00  0.00    +0.000 A 
BRANCH  16  19
ATOM     19  N   UNL     1       5.570   0.711   0.091  0.00  0.00    +0.000 N 
ATOM     20  O   UNL     1       6.280   0.988   1.077  0.00  0.00    +0.000 OA
ATOM     21  O   UNL     1       6.160   0.548  -1.116  0.00  0.00    +0.000 OA
ENDBRANCH  16  19
ENDBRANCH   2  13
TORSDOF 3
