REMARK  Name = 
REMARK  2 active torsions:
REMARK  status: ('A' for Active; 'I' for Inactive)
REMARK    1  A    between atoms: C_7  and  N_8
REMARK    2  A    between atoms: C_9  and  C_11
REMARK                            x       y       z     vdW  Elec       q    Type
REMARK                         _______ _______ _______ _____ _____    ______ ____
ROOT
ATOM      1  N   UNL     1      -5.207  -1.273  -0.807  0.00  0.00    +0.000 NA
ATOM      2  C   UNL     1      -4.129  -0.569  -0.212  0.00  0.00    +0.000 A 
ATOM      3  C   UNL     1      -4.420   0.525   0.570  0.00  0.00    +0.000 A 
ATOM      4  C   UNL     1      -3.413   1.255   1.180  0.00  0.00    +0.000 A 
ATOM      5  C   UNL     1      -2.105   0.904   1.016  0.00  0.00    +0.000 A 
ATOM      6  C   UNL     1      -1.805  -0.191   0.235  0.00  0.00    +0.000 A 
ATOM      7  C   UNL     1      -0.471  -0.502   0.103  0.00  0.00    +0.000 A 
ATOM      8  C   UNL     1      -0.160  -1.596  -0.677  0.00  0.00    +0.000 A 
ATOM      9  C   UNL     1      -1.147  -2.350  -1.302  0.00  0.00    +0.000 A 
ATOM     10  C   UNL     1      -2.489  -2.026  -1.162  0.00  0.00    +0.000 A 
ATOM     11  C   UNL     1      -2.812  -0.934  -0.384  0.00  0.00    +0.000 A 
ENDROOT
BRANCH   7  12
ATOM     12  N   UNL     1       0.527   0.291   0.758  0.00  0.00    +0.000 NA
ATOM     13  C   UNL     1       1.829  -0.054   0.600  0.00  0.00    +0.000 C 
ATOM     14  O   UNL     1       2.240  -1.014  -0.077  0.00  0.00    +0.000 OA
BRANCH  13  15
ATOM     15  C   UNL     1       2.990   0.813   1.324  0.00  0.00    +0.000 C 
ATOM     16  C   UNL     1       2.624   2.255   0.599  0.00  0.00    +0.000 C 
ATOM     17  C   UNL     1       3.763   1.289  -0.021  0.00  0.00    +0.000 C 
ATOM     18  C   UNL     1       3.757   0.703  -1.247  0.00  0.00    +0.000 C 
ATOM     19  C   UNL     1       5.298   0.800  -1.204  0.00  0.00    +0.000 C 
ATOM     20  C   UNL     1       5.130   1.676   0.058  0.00  0.00    +0.000 C 
ENDBRANCH  13  15
ENDBRANCH   7  12
TORSDOF 2
