REMARK  Name = 
REMARK  3 active torsions:
REMARK  status: ('A' for Active; 'I' for Inactive)
REMARK    1  A    between atoms: C_6  and  N_7
REMARK    2  A    between atoms: C_8  and  C_10
REMARK    3  A    between atoms: C_14  and  N_15
REMARK                            x       y       z     vdW  Elec       q    Type
REMARK                         _______ _______ _______ _____ _____    ______ ____
ROOT
ATOM      1  N   UNL     1      -0.801   0.076   0.176  0.00  0.00    +0.000 NA
ATOM      2  C   UNL     1       0.000   0.882   1.011  0.00  0.00    +0.000 C 
ATOM      3  O   UNL     1      -0.550   1.678   1.800  0.00  0.00    +0.000 OA
ENDROOT
BRANCH   1   9
ATOM      4  C   UNL     1      -5.146  -1.377  -1.405  0.00  0.00    +0.000 C 
ATOM      5  C   UNL     1      -4.330  -0.508  -0.507  0.00  0.00    +0.000 A 
ATOM      6  C   UNL     1      -4.919   0.376   0.373  0.00  0.00    +0.000 A 
ATOM      7  C   UNL     1      -4.187   1.196   1.220  0.00  0.00    +0.000 A 
ATOM      8  C   UNL     1      -2.809   1.090   1.148  0.00  0.00    +0.000 A 
ATOM      9  C   UNL     1      -2.214   0.205   0.269  0.00  0.00    +0.000 A 
ATOM     10  C   UNL     1      -2.973  -0.600  -0.565  0.00  0.00    +0.000 A 
ATOM     11  C   UNL     1      -2.295  -1.550  -1.507  0.00  0.00    +0.000 C 
ENDBRANCH   1   9
BRANCH   2  12
ATOM     12  C   UNL     1       1.453   0.766   0.932  0.00  0.00    +0.000 A 
ATOM     13  C   UNL     1       2.267   1.552   1.730  0.00  0.00    +0.000 A 
ATOM     14  C   UNL     1       3.624   1.442   1.653  0.00  0.00    +0.000 A 
ATOM     15  C   UNL     1       4.178   0.538   0.772  0.00  0.00    +0.000 A 
ATOM     16  C   UNL     1       3.355  -0.255  -0.033  0.00  0.00    +0.000 A 
ATOM     17  C   UNL     1       1.990  -0.143   0.046  0.00  0.00    +0.000 A 
ATOM     18  C   UNL     1       1.076  -0.975  -0.800  0.00  0.00    +0.000 C 
BRANCH  16  19
ATOM     19  N   UNL     1       3.948  -1.181  -0.935  0.00  0.00    +0.000 N 
ATOM     20  O   UNL     1       5.094  -0.913  -1.361  0.00  0.00    +0.000 OA
ATOM     21  O   UNL     1       3.240  -2.299  -1.281  0.00  0.00    +0.000 OA
ENDBRANCH  16  19
ENDBRANCH   2  12
TORSDOF 3
