REMARK  Name = 
REMARK  2 active torsions:
REMARK  status: ('A' for Active; 'I' for Inactive)
REMARK    1  A    between atoms: C_4  and  N_5
REMARK    2  A    between atoms: N_5  and  C_6
REMARK                            x       y       z     vdW  Elec       q    Type
REMARK                         _______ _______ _______ _____ _____    ______ ____
ROOT
ATOM      1  C   UNL     1       0.110  -3.985  -1.322  0.00  0.00    +0.000 C 
ATOM      2  C   UNL     1      -0.403  -2.650  -0.998  0.00  0.00    +0.000 A 
ATOM      3  N   UNL     1       0.340  -1.592  -0.685  0.00  0.00    +0.000 NA
ATOM      4  C   UNL     1      -0.123  -0.369  -0.389  0.00  0.00    +0.000 A 
ATOM      5  C   UNL     1      -1.508  -0.143  -0.398  0.00  0.00    +0.000 A 
ATOM      6  C   UNL     1      -2.163   0.995  -0.132  0.00  0.00    +0.000 A 
ATOM      7  C   UNL     1      -3.534   0.973  -0.206  0.00  0.00    +0.000 A 
ATOM      8  S   UNL     1      -3.862  -0.644  -0.644  0.00  0.00    +0.000 S 
ATOM      9  C   UNL     1      -2.264  -1.239  -0.721  0.00  0.00    +0.000 A 
ATOM     10  N   UNL     1      -1.733  -2.464  -1.015  0.00  0.00    +0.000 NA
ATOM     11  C   UNL     1      -4.351   2.211   0.078  0.00  0.00    +0.000 C 
ATOM     12  C   UNL     1      -3.849   2.917   1.305  0.00  0.00    +0.000 C 
ATOM     13  C   UNL     1      -2.365   2.761   1.515  0.00  0.00    +0.000 C 
ATOM     14  C   UNL     1      -1.643   2.372   0.253  0.00  0.00    +0.000 C 
ENDROOT
BRANCH   4  15
ATOM     15  N   UNL     1       0.814   0.635  -0.080  0.00  0.00    +0.000 NA
BRANCH  15  16
ATOM     16  C   UNL     1       2.201   0.476  -0.053  0.00  0.00    +0.000 A 
ATOM     17  C   UNL     1       3.000   1.553   0.268  0.00  0.00    +0.000 A 
ATOM     18  C   UNL     1       4.376   1.464   0.312  0.00  0.00    +0.000 A 
ATOM     19  C   UNL     1       5.007   0.273   0.032  0.00  0.00    +0.000 A 
ATOM     20  C   UNL     1       4.226  -0.813  -0.291  0.00  0.00    +0.000 A 
ATOM     21  O   UNL     1       4.877  -2.022  -0.574  0.00  0.00    +0.000 OA
ATOM     22  C   UNL     1       2.848  -0.709  -0.331  0.00  0.00    +0.000 A 
ENDBRANCH  15  16
ENDBRANCH   4  15
TORSDOF 2
