REMARK  Name = 
REMARK  5 active torsions:
REMARK  status: ('A' for Active; 'I' for Inactive)
REMARK    1  A    between atoms: C_2  and  N_3
REMARK    2  A    between atoms: C_2  and  C_10
REMARK    3  A    between atoms: N_3  and  N_4
REMARK    4  A    between atoms: C_5  and  O_7
REMARK    5  A    between atoms: O_7  and  C_8
REMARK                            x       y       z     vdW  Elec       q    Type
REMARK                         _______ _______ _______ _____ _____    ______ ____
ROOT
ATOM      1  C   UNL     1       0.240  -3.531   0.425  0.00  0.00    +0.000 C 
ATOM      2  C   UNL     1       0.312  -2.374  -0.173  0.00  0.00    +0.000 C 
ENDROOT
BRANCH   2   3
ATOM      3  C   UNL     1      -0.807  -1.429  -0.111  0.00  0.00    +0.000 A 
ATOM      4  C   UNL     1      -0.874  -0.157  -0.575  0.00  0.00    +0.000 A 
ATOM      5  C   UNL     1      -2.005   0.538  -0.417  0.00  0.00    +0.000 A 
ATOM      6  C   UNL     1      -2.219   1.858  -0.842  0.00  0.00    +0.000 A 
ATOM      7  C   UNL     1      -3.424   2.461  -0.618  0.00  0.00    +0.000 A 
ATOM      8  C   UNL     1      -4.481   1.857   0.012  0.00  0.00    +0.000 A 
ATOM      9  C   UNL     1      -4.268   0.551   0.431  0.00  0.00    +0.000 A 
ATOM     10  C   UNL     1      -3.040  -0.092   0.215  0.00  0.00    +0.000 A 
ATOM     11  S   UNL     1      -2.380  -1.631   0.558  0.00  0.00    +0.000 S 
ENDBRANCH   2   3
BRANCH   2  12
ATOM     12  N   UNL     1       1.455  -1.992  -0.907  0.00  0.00    +0.000 NA
BRANCH  12  13
ATOM     13  N   UNL     1       1.747  -0.614  -0.945  0.00  0.00    +0.000 NA
ATOM     14  C   UNL     1       3.025  -0.175  -0.519  0.00  0.00    +0.000 C 
ATOM     15  O   UNL     1       3.842  -1.021  -0.133  0.00  0.00    +0.000 OA
BRANCH  14  16
ATOM     16  O   UNL     1       3.390   1.174  -0.521  0.00  0.00    +0.000 OA
BRANCH  16  17
ATOM     17  C   UNL     1       4.691   1.542  -0.082  0.00  0.00    +0.000 C 
ATOM     18  C   UNL     1       4.794   3.034  -0.184  0.00  0.00    +0.000 C 
ENDBRANCH  16  17
ENDBRANCH  14  16
ENDBRANCH  12  13
ENDBRANCH   2  12
TORSDOF 5
