REMARK  Name = 
REMARK  1 active torsions:
REMARK  status: ('A' for Active; 'I' for Inactive)
REMARK    1  A    between atoms: C_11  and  C_12
REMARK                            x       y       z     vdW  Elec       q    Type
REMARK                         _______ _______ _______ _____ _____    ______ ____
ROOT
ATOM      1  C   UNL     1      -2.590  -2.638   0.172  0.00  0.00    +0.000 C 
ATOM      2  C   UNL     1      -1.292  -1.911   0.152  0.00  0.00    +0.000 A 
ATOM      3  N   UNL     1      -0.037  -2.406   0.215  0.00  0.00    +0.000 NA
ATOM      4  N   UNL     1       0.863  -1.435   0.171  0.00  0.00    +0.000 N 
ATOM      5  C   UNL     1       2.204  -1.527   0.208  0.00  0.00    +0.000 A 
ATOM      6  N   UNL     1       2.929  -2.739   0.309  0.00  0.00    +0.000 NA
ATOM      7  C   UNL     1       2.908  -0.339   0.144  0.00  0.00    +0.000 A 
ATOM      8  C   UNL     1       2.201   0.859   0.046  0.00  0.00    +0.000 A 
ATOM      9  N   UNL     1       0.866   0.880   0.014  0.00  0.00    +0.000 NA
ATOM     10  C   UNL     1       0.192  -0.278   0.077  0.00  0.00    +0.000 A 
ATOM     11  C   UNL     1      -1.186  -0.544   0.062  0.00  0.00    +0.000 A 
ATOM     12  C   UNL     1       3.139   2.013  -0.010  0.00  0.00    +0.000 C 
ATOM     13  C   UNL     1       4.429   1.360  -0.428  0.00  0.00    +0.000 C 
ATOM     14  C   UNL     1       4.356  -0.034   0.159  0.00  0.00    +0.000 C 
ENDROOT
BRANCH  11  15
ATOM     15  C   UNL     1      -2.197   0.476  -0.038  0.00  0.00    +0.000 A 
ATOM     16  C   UNL     1      -2.781   0.742  -1.248  0.00  0.00    +0.000 A 
ATOM     17  C   UNL     1      -3.756   1.727  -1.376  0.00  0.00    +0.000 A 
ATOM     18  C   UNL     1      -4.134   2.442  -0.262  0.00  0.00    +0.000 A 
ATOM     19  C   UNL     1      -3.541   2.166   0.947  0.00  0.00    +0.000 A 
ATOM     20  C   UNL     1      -2.573   1.185   1.066  0.00  0.00    +0.000 A 
ENDBRANCH  11  15
TORSDOF 1
