REMARK  Name = 
REMARK  2 active torsions:
REMARK  status: ('A' for Active; 'I' for Inactive)
REMARK    1  A    between atoms: C_4  and  N_5
REMARK    2  A    between atoms: N_5  and  N_6
REMARK                            x       y       z     vdW  Elec       q    Type
REMARK                         _______ _______ _______ _____ _____    ______ ____
ROOT
ATOM      1  N   UNL     1      -0.280  -1.142   0.182  0.00  0.00    +0.000 NA
ATOM      2  C   UNL     1       1.048  -0.647   0.263  0.00  0.00    +0.000 A 
ATOM      3  N   UNL     1       1.863  -0.408  -0.720  0.00  0.00    +0.000 NA
ATOM      4  C   UNL     1       3.062   0.061  -0.471  0.00  0.00    +0.000 A 
ATOM      5  C   UNL     1       4.028   0.360  -1.446  0.00  0.00    +0.000 A 
ATOM      6  C   UNL     1       5.240   0.843  -1.066  0.00  0.00    +0.000 A 
ATOM      7  C   UNL     1       5.628   1.079   0.268  0.00  0.00    +0.000 A 
ATOM      8  C   UNL     1       4.660   0.776   1.201  0.00  0.00    +0.000 A 
ATOM      9  C   UNL     1       3.428   0.286   0.818  0.00  0.00    +0.000 A 
ATOM     10  S   UNL     1       1.966  -0.210   1.634  0.00  0.00    +0.000 S 
ENDROOT
BRANCH   1  11
ATOM     11  N   UNL     1      -1.362  -0.343   0.395  0.00  0.00    +0.000 NA
BRANCH  11  15
ATOM     12  C   UNL     1      -5.875  -1.511   0.640  0.00  0.00    +0.000 C 
ATOM     13  C   UNL     1      -4.977  -0.800  -0.528  0.00  0.00    +0.000 C 
ATOM     14  C   UNL     1      -3.584  -1.093   0.234  0.00  0.00    +0.000 C 
ATOM     15  C   UNL     1      -2.625  -0.275  -0.121  0.00  0.00    +0.000 C 
ATOM     16  C   UNL     1      -2.979   0.759  -1.135  0.00  0.00    +0.000 C 
ATOM     17  C   UNL     1      -4.109   1.565  -0.534  0.00  0.00    +0.000 C 
ATOM     18  C   UNL     1      -5.133   0.699   0.160  0.00  0.00    +0.000 C 
ENDBRANCH  11  15
ENDBRANCH   1  11
TORSDOF 2
