REMARK  Name = 
REMARK  3 active torsions:
REMARK  status: ('A' for Active; 'I' for Inactive)
REMARK    1  A    between atoms: C_2  and  C_13
REMARK    2  A    between atoms: N_3  and  N_4
REMARK    3  A    between atoms: N_4  and  C_5
REMARK                            x       y       z     vdW  Elec       q    Type
REMARK                         _______ _______ _______ _____ _____    ______ ____
ROOT
ATOM      1  O   UNL     1       0.307  -0.685  -0.765  0.00  0.00    +0.000 OA
ATOM      2  C   UNL     1       1.083  -0.139   0.058  0.00  0.00    +0.000 C 
ATOM      3  N   UNL     1       0.525   0.598   1.129  0.00  0.00    +0.000 NA
ENDROOT
BRANCH   2   4
ATOM      4  C   UNL     1       2.519  -0.287  -0.129  0.00  0.00    +0.000 A 
ATOM      5  C   UNL     1       3.436   0.320   0.726  0.00  0.00    +0.000 A 
ATOM      6  C   UNL     1       4.775   0.189   0.565  0.00  0.00    +0.000 A 
ATOM      7  C   UNL     1       5.275  -0.550  -0.456  0.00  0.00    +0.000 A 
ATOM      8 CL   UNL     1       7.009  -0.695  -0.631  0.00  0.00    +0.000 Cl
ATOM      9  C   UNL     1       4.402  -1.176  -1.337  0.00  0.00    +0.000 A 
ATOM     10  C   UNL     1       3.050  -1.031  -1.156  0.00  0.00    +0.000 A 
ENDBRANCH   2   4
BRANCH   3  11
ATOM     11  N   UNL     1      -0.875   0.733   1.295  0.00  0.00    +0.000 NA
BRANCH  11  12
ATOM     12  C   UNL     1      -1.643   1.130   0.161  0.00  0.00    +0.000 C 
ATOM     13  C   UNL     1      -2.860   0.866  -0.073  0.00  0.00    +0.000 C 
ATOM     14  C   UNL     1      -3.768   1.127  -1.047  0.00  0.00    +0.000 C 
ATOM     15  C   UNL     1      -4.697  -0.209  -1.244  0.00  0.00    +0.000 C 
ATOM     16  C   UNL     1      -5.840   0.188  -0.133  0.00  0.00    +0.000 C 
ATOM     17  C   UNL     1      -5.088   0.782   0.870  0.00  0.00    +0.000 C 
ATOM     18  C   UNL     1      -3.655  -0.014   1.015  0.00  0.00    +0.000 C 
ATOM     19  C   UNL     1      -3.954  -1.145  -0.131  0.00  0.00    +0.000 C 
ENDBRANCH  11  12
ENDBRANCH   3  11
TORSDOF 3
