REMARK  Name = 
REMARK  1 active torsions:
REMARK  status: ('A' for Active; 'I' for Inactive)
REMARK    1  A    between atoms: N_10  and  C_11
REMARK                            x       y       z     vdW  Elec       q    Type
REMARK                         _______ _______ _______ _____ _____    ______ ____
ROOT
ATOM      1  C   UNL     1      -2.408   3.219  -0.071  0.00  0.00    +0.000 C 
ATOM      2  C   UNL     1      -2.600   1.752   0.047  0.00  0.00    +0.000 A 
ATOM      3  N   UNL     1      -3.807   1.161   0.058  0.00  0.00    +0.000 NA
ATOM      4  N   UNL     1      -3.971  -0.157   0.165  0.00  0.00    +0.000 NA
ATOM      5  C   UNL     1      -2.920  -0.987   0.270  0.00  0.00    +0.000 A 
ATOM      6  C   UNL     1      -3.095  -2.455   0.389  0.00  0.00    +0.000 C 
ATOM      7  C   UNL     1      -1.665  -0.414   0.262  0.00  0.00    +0.000 A 
ATOM      8  C   UNL     1      -0.401  -0.968   0.350  0.00  0.00    +0.000 A 
ATOM      9  C   UNL     1      -0.167  -2.439   0.482  0.00  0.00    +0.000 C 
ATOM     10  N   UNL     1       0.520   0.011   0.296  0.00  0.00    +0.000 N 
ATOM     11  C   UNL     1      -0.114   1.192   0.175  0.00  0.00    +0.000 A 
ATOM     12  C   UNL     1       0.511   2.535   0.082  0.00  0.00    +0.000 C 
ATOM     13  C   UNL     1      -1.482   0.953   0.151  0.00  0.00    +0.000 A 
ENDROOT
BRANCH  10  14
ATOM     14  C   UNL     1       1.927  -0.184   0.359  0.00  0.00    +0.000 A 
ATOM     15  C   UNL     1       2.673   0.168   1.470  0.00  0.00    +0.000 A 
ATOM     16  C   UNL     1       4.033  -0.017   1.539  0.00  0.00    +0.000 A 
ATOM     17  C   UNL     1       4.670  -0.577   0.451  0.00  0.00    +0.000 A 
ATOM     18  C   UNL     1       3.941  -0.940  -0.679  0.00  0.00    +0.000 A 
ATOM     19  C   UNL     1       2.562  -0.745  -0.732  0.00  0.00    +0.000 A 
ATOM     20  N   UNL     1       1.794  -1.109  -1.877  0.00  0.00    +0.000 NA
ENDBRANCH  10  14
TORSDOF 1
