REMARK  Name = 
REMARK  3 active torsions:
REMARK  status: ('A' for Active; 'I' for Inactive)
REMARK    1  A    between atoms: C_4  and  C_5
REMARK    2  A    between atoms: N_13  and  C_14
REMARK    3  A    between atoms: C_14  and  C_15
REMARK                            x       y       z     vdW  Elec       q    Type
REMARK                         _______ _______ _______ _____ _____    ______ ____
ROOT
ATOM      1  O   UNL     1       0.887  -2.693   0.838  0.00  0.00    +0.000 OA
ATOM      2  C   UNL     1       0.096  -1.769   0.414  0.00  0.00    +0.000 C 
ATOM      3  N   UNL     1      -1.207  -1.593   0.885  0.00  0.00    +0.000 NA
ATOM      4  C   UNL     1      -1.629  -0.144   0.473  0.00  0.00    +0.000 C 
ATOM      5  C   UNL     1      -0.657   0.003  -0.782  0.00  0.00    +0.000 C 
ATOM      6  O   UNL     1      -0.930   0.766  -1.744  0.00  0.00    +0.000 OA
ATOM      7  N   UNL     1       0.441  -0.831  -0.575  0.00  0.00    +0.000 N 
ENDROOT
BRANCH   4   8
ATOM      8  C   UNL     1      -2.889  -0.692  -0.503  0.00  0.00    +0.000 C 
ATOM      9  C   UNL     1      -3.808  -1.403   0.413  0.00  0.00    +0.000 C 
ATOM     10  C   UNL     1      -4.232  -0.521   1.523  0.00  0.00    +0.000 C 
ATOM     11  C   UNL     1      -4.335   0.906   1.258  0.00  0.00    +0.000 C 
ATOM     12  C   UNL     1      -4.140   1.438  -0.079  0.00  0.00    +0.000 C 
ATOM     13  C   UNL     1      -3.456   0.553  -1.074  0.00  0.00    +0.000 C 
ENDBRANCH   4   8
BRANCH   7  14
ATOM     14  C   UNL     1       1.648  -0.696  -1.335  0.00  0.00    +0.000 C 
BRANCH  14  15
ATOM     15  C   UNL     1       2.704   0.104  -0.741  0.00  0.00    +0.000 A 
ATOM     16  C   UNL     1       3.982  -0.490  -0.762  0.00  0.00    +0.000 A 
ATOM     17  C   UNL     1       5.100   0.205  -0.287  0.00  0.00    +0.000 A 
ATOM     18  C   UNL     1       4.879   1.479   0.189  0.00  0.00    +0.000 A 
ATOM     19  C   UNL     1       3.641   2.068   0.212  0.00  0.00    +0.000 A 
ATOM     20  C   UNL     1       2.558   1.370  -0.254  0.00  0.00    +0.000 A 
ATOM     21  F   UNL     1       1.345   1.938  -0.191  0.00  0.00    +0.000 F 
ENDBRANCH  14  15
ENDBRANCH   7  14
TORSDOF 3
