REMARK  Name = 
REMARK  3 active torsions:
REMARK  status: ('A' for Active; 'I' for Inactive)
REMARK    1  A    between atoms: C_5  and  N_6
REMARK    2  A    between atoms: C_7  and  C_9
REMARK    3  A    between atoms: C_17  and  N_18
REMARK                            x       y       z     vdW  Elec       q    Type
REMARK                         _______ _______ _______ _____ _____    ______ ____
ROOT
ATOM      1  C   UNL     1       4.824  -0.795  -1.372  0.00  0.00    +0.000 C 
ATOM      2  C   UNL     1       3.371  -0.750  -0.990  0.00  0.00    +0.000 A 
ATOM      3  C   UNL     1       2.557  -1.833  -1.165  0.00  0.00    +0.000 A 
ATOM      4  C   UNL     1       1.229  -1.748  -0.800  0.00  0.00    +0.000 A 
ATOM      5  C   UNL     1       0.668  -0.610  -0.258  0.00  0.00    +0.000 A 
ATOM      6  C   UNL     1       1.488   0.485  -0.080  0.00  0.00    +0.000 A 
ATOM      7  C   UNL     1       2.829   0.412  -0.445  0.00  0.00    +0.000 A 
ENDROOT
BRANCH   5   8
ATOM      8  N   UNL     1      -0.716  -0.608   0.092  0.00  0.00    +0.000 NA
ATOM      9  C   UNL     1      -1.378   0.498   0.648  0.00  0.00    +0.000 C 
ATOM     10  O   UNL     1      -0.728   1.552   0.854  0.00  0.00    +0.000 OA
BRANCH   9  11
ATOM     11  C   UNL     1      -2.827   0.502   1.015  0.00  0.00    +0.000 C 
ATOM     12  C   UNL     1      -3.851   0.263  -0.029  0.00  0.00    +0.000 C 
ATOM     13  C   UNL     1      -5.236   0.822   0.171  0.00  0.00    +0.000 C 
ATOM     14  C   UNL     1      -3.402   0.211  -1.463  0.00  0.00    +0.000 C 
ATOM     15  C   UNL     1      -3.519  -0.892   0.881  0.00  0.00    +0.000 C 
ATOM     16  C   UNL     1      -2.656  -2.007   0.338  0.00  0.00    +0.000 C 
ATOM     17  C   UNL     1      -4.415  -1.164   2.067  0.00  0.00    +0.000 C 
ENDBRANCH   9  11
ENDBRANCH   5   8
BRANCH   7  18
ATOM     18  N   UNL     1       3.655   1.550  -0.254  0.00  0.00    +0.000 N 
ATOM     19  O   UNL     1       3.355   2.349   0.650  0.00  0.00    +0.000 OA
ATOM     20  O   UNL     1       4.753   1.761  -1.046  0.00  0.00    +0.000 OA
ENDBRANCH   7  18
TORSDOF 3
