REMARK  Name = 
REMARK  3 active torsions:
REMARK  status: ('A' for Active; 'I' for Inactive)
REMARK    1  A    between atoms: C_2  and  C_3
REMARK    2  A    between atoms: C_7  and  C_8
REMARK    3  A    between atoms: C_10  and  N_11
REMARK                            x       y       z     vdW  Elec       q    Type
REMARK                         _______ _______ _______ _____ _____    ______ ____
ROOT
ATOM      1  N   UNL     1      -0.349   0.421  -0.604  0.00  0.00    +0.000 NA
ATOM      2  C   UNL     1       0.639  -0.105   0.271  0.00  0.00    +0.000 A 
ATOM      3  N   UNL     1       0.336  -0.769   1.404  0.00  0.00    +0.000 NA
ATOM      4  C   UNL     1       1.323  -1.263   2.211  0.00  0.00    +0.000 A 
ATOM      5  N   UNL     1       2.624  -1.089   1.878  0.00  0.00    +0.000 NA
ATOM      6  C   UNL     1       2.990  -0.435   0.760  0.00  0.00    +0.000 A 
ATOM      7  C   UNL     1       1.972   0.058  -0.044  0.00  0.00    +0.000 A 
ATOM      8  C   UNL     1       2.619   0.674  -1.105  0.00  0.00    +0.000 A 
ATOM      9  N   UNL     1       3.961   0.532  -0.905  0.00  0.00    +0.000 NA
ATOM     10  N   UNL     1       4.182  -0.134   0.213  0.00  0.00    +0.000 N 
ATOM     11  C   UNL     1       5.509  -0.446   0.703  0.00  0.00    +0.000 C 
ENDROOT
BRANCH   1  17
ATOM     12  C   UNL     1      -2.323   1.315   0.413  0.00  0.00    +0.000 A 
ATOM     13  C   UNL     1      -3.651   1.280   0.748  0.00  0.00    +0.000 A 
ATOM     14  C   UNL     1      -4.402   0.189   0.340  0.00  0.00    +0.000 A 
ATOM     15  C   UNL     1      -3.814  -0.822  -0.381  0.00  0.00    +0.000 A 
ATOM     16  C   UNL     1      -2.490  -0.794  -0.719  0.00  0.00    +0.000 A 
ATOM     17  C   UNL     1      -1.731   0.284  -0.319  0.00  0.00    +0.000 A 
BRANCH  12  19
ATOM     18  C   UNL     1      -1.252   3.434  -0.305  0.00  0.00    +0.000 C 
ATOM     19  C   UNL     1      -1.510   2.487   0.842  0.00  0.00    +0.000 C 
ENDBRANCH  12  19
BRANCH  16  20
ATOM     20  C   UNL     1      -1.824  -1.869  -1.496  0.00  0.00    +0.000 C 
ATOM     21  C   UNL     1      -2.808  -2.947  -1.863  0.00  0.00    +0.000 C 
ENDBRANCH  16  20
ENDBRANCH   1  17
TORSDOF 3
