REMARK  Name = 
REMARK  0 active torsions:
REMARK  status: ('A' for Active; 'I' for Inactive)
REMARK                            x       y       z     vdW  Elec       q    Type
REMARK                         _______ _______ _______ _____ _____    ______ ____
ROOT
ATOM      1  C   UNL     1       3.653   1.841   0.180  0.00  0.00    +0.000 C 
ATOM      2  C   UNL     1       2.533   0.959  -0.361  0.00  0.00    +0.000 C 
ATOM      3  C   UNL     1       1.629   1.728  -1.287  0.00  0.00    +0.000 C 
ATOM      4  C   UNL     1       3.082  -0.238  -0.931  0.00  0.00    +0.000 C 
ATOM      5  O   UNL     1       4.189  -0.271  -1.453  0.00  0.00    +0.000 OA
ATOM      6  C   UNL     1       2.214  -1.455  -0.851  0.00  0.00    +0.000 C 
ATOM      7  C   UNL     1       0.823  -0.975  -0.775  0.00  0.00    +0.000 C 
ATOM      8  C   UNL     1       0.419  -0.041   0.245  0.00  0.00    +0.000 C 
ATOM      9  O   UNL     1      -0.302   1.087  -0.279  0.00  0.00    +0.000 OA
ATOM     10  C   UNL     1      -1.599   0.847  -0.725  0.00  0.00    +0.000 A 
ATOM     11  C   UNL     1      -2.104   1.343  -1.910  0.00  0.00    +0.000 A 
ATOM     12  C   UNL     1      -3.397   1.072  -2.302  0.00  0.00    +0.000 A 
ATOM     13  C   UNL     1      -4.164   0.289  -1.469  0.00  0.00    +0.000 A 
ATOM     14  C   UNL     1      -3.693  -0.217  -0.288  0.00  0.00    +0.000 A 
ATOM     15  O   UNL     1      -4.432  -1.009   0.578  0.00  0.00    +0.000 OA
ATOM     16  C   UNL     1      -2.389   0.069   0.085  0.00  0.00    +0.000 A 
ATOM     17  C   UNL     1      -1.825  -0.437   1.347  0.00  0.00    +0.000 C 
ATOM     18  C   UNL     1      -0.365  -0.745   1.319  0.00  0.00    +0.000 C 
ATOM     19  C   UNL     1      -0.245  -2.267   1.143  0.00  0.00    +0.000 C 
ATOM     20  C   UNL     1       0.266  -0.466   2.687  0.00  0.00    +0.000 C 
ATOM     21  C   UNL     1       1.652  -1.063   2.672  0.00  0.00    +0.000 C 
ATOM     22  C   UNL     1       2.381  -0.721   1.401  0.00  0.00    +0.000 C 
ATOM     23  C   UNL     1       1.675   0.671   0.971  0.00  0.00    +0.000 C 
ENDROOT
TORSDOF 0
