REMARK  Name = 
REMARK  2 active torsions:
REMARK  status: ('A' for Active; 'I' for Inactive)
REMARK    1  A    between atoms: C_2  and  N_5
REMARK    2  A    between atoms: C_7  and  C_8
REMARK                            x       y       z     vdW  Elec       q    Type
REMARK                         _______ _______ _______ _____ _____    ______ ____
ROOT
ATOM      1  N   UNL     1      -1.894   0.823   0.040  0.00  0.00    +0.000 N 
ATOM      2  N   UNL     1      -0.662   1.277   0.098  0.00  0.00    +0.000 NA
ATOM      3  C   UNL     1       0.196   0.233  -0.015  0.00  0.00    +0.000 A 
ATOM      4  C   UNL     1      -0.577  -0.895  -0.148  0.00  0.00    +0.000 A 
ATOM      5  C   UNL     1      -0.225  -2.221  -0.298  0.00  0.00    +0.000 A 
ATOM      6  N   UNL     1       1.123  -2.640  -0.343  0.00  0.00    +0.000 NA
ATOM      7  N   UNL     1      -1.209  -3.129  -0.407  0.00  0.00    +0.000 NA
ATOM      8  C   UNL     1      -2.516  -2.756  -0.372  0.00  0.00    +0.000 A 
ATOM      9  N   UNL     1      -2.852  -1.460  -0.226  0.00  0.00    +0.000 NA
ATOM     10  C   UNL     1      -1.911  -0.510  -0.111  0.00  0.00    +0.000 A 
ENDROOT
BRANCH   3  11
ATOM     11  C   UNL     1       1.663   0.317  -0.001  0.00  0.00    +0.000 A 
ATOM     12  C   UNL     1       2.233   1.295  -0.783  0.00  0.00    +0.000 A 
ATOM     13  C   UNL     1       3.590   1.507  -0.869  0.00  0.00    +0.000 A 
ATOM     14  C   UNL     1       4.402   0.681  -0.120  0.00  0.00    +0.000 A 
ATOM     15  F   UNL     1       5.773   0.828  -0.150  0.00  0.00    +0.000 F 
ATOM     16  C   UNL     1       3.839  -0.300   0.666  0.00  0.00    +0.000 A 
ATOM     17  C   UNL     1       2.484  -0.492   0.734  0.00  0.00    +0.000 A 
ENDBRANCH   3  11
BRANCH   1  19
ATOM     18  C   UNL     1      -3.417   1.779   1.609  0.00  0.00    +0.000 C 
ATOM     19  C   UNL     1      -3.085   1.659   0.128  0.00  0.00    +0.000 C 
ATOM     20  C   UNL     1      -2.737   3.008  -0.444  0.00  0.00    +0.000 C 
ATOM     21  C   UNL     1      -4.219   0.997  -0.623  0.00  0.00    +0.000 C 
ENDBRANCH   1  19
TORSDOF 2
