REMARK  Name = 
REMARK  3 active torsions:
REMARK  status: ('A' for Active; 'I' for Inactive)
REMARK    1  A    between atoms: C_6  and  N_7
REMARK    2  A    between atoms: C_9  and  N_11
REMARK    3  A    between atoms: C_13  and  C_14
REMARK                            x       y       z     vdW  Elec       q    Type
REMARK                         _______ _______ _______ _____ _____    ______ ____
ROOT
ATOM      1  C   UNL     1      -5.266   1.013   0.452  0.00  0.00    +0.000 C 
ATOM      2  C   UNL     1      -3.977   0.242   0.262  0.00  0.00    +0.000 C 
ATOM      3  C   UNL     1      -3.995  -1.039   0.559  0.00  0.00    +0.000 C 
ATOM      4  C   UNL     1      -3.441   0.479  -1.345  0.00  0.00    +0.000 C 
ATOM      5  C   UNL     1      -2.367  -0.587  -1.606  0.00  0.00    +0.000 C 
ATOM      6  C   UNL     1      -1.384  -1.054  -1.026  0.00  0.00    +0.000 C 
ATOM      7  C   UNL     1      -1.074  -0.481   0.295  0.00  0.00    +0.000 C 
ATOM      8  C   UNL     1      -1.337  -1.355   1.493  0.00  0.00    +0.000 C 
ATOM      9  C   UNL     1      -1.439   0.847   0.272  0.00  0.00    +0.000 C 
ATOM     10  C   UNL     1      -2.845   1.418  -0.070  0.00  0.00    +0.000 C 
ENDROOT
BRANCH   7  11
ATOM     11  N   UNL     1       0.415  -0.474   0.332  0.00  0.00    +0.000 N 
ATOM     12  O   UNL     1       1.092  -1.660   0.210  0.00  0.00    +0.000 OA
ATOM     13  C   UNL     1       1.133   0.549   0.469  0.00  0.00    +0.000 C 
BRANCH  13  14
ATOM     14  C   UNL     1       2.597   0.579   0.508  0.00  0.00    +0.000 A 
ATOM     15  C   UNL     1       3.400  -0.500   0.401  0.00  0.00    +0.000 A 
ATOM     16  C   UNL     1       4.771  -0.357   0.451  0.00  0.00    +0.000 A 
ATOM     17  C   UNL     1       5.294   0.910   0.612  0.00  0.00    +0.000 A 
ATOM     18  C   UNL     1       4.503   2.033   0.724  0.00  0.00    +0.000 A 
ATOM     19  C   UNL     1       3.134   1.843   0.669  0.00  0.00    +0.000 A 
ATOM     20  F   UNL     1       2.340   2.961   0.781  0.00  0.00    +0.000 F 
ENDBRANCH  13  14
ENDBRANCH   7  11
BRANCH   6  21
ATOM     21  N   UNL     1      -0.535  -2.102  -1.561  0.00  0.00    +0.000 NA
ATOM     22  O   UNL     1      -1.018  -3.264  -2.021  0.00  0.00    +0.000 OA
ENDBRANCH   6  21
TORSDOF 3
