REMARK  Name = 
REMARK  4 active torsions:
REMARK  status: ('A' for Active; 'I' for Inactive)
REMARK    1  A    between atoms: C_4  and  N_5
REMARK    2  A    between atoms: C_6  and  C_8
REMARK    3  A    between atoms: C_8  and  C_9
REMARK    4  A    between atoms: C_14  and  C_15
REMARK                            x       y       z     vdW  Elec       q    Type
REMARK                         _______ _______ _______ _____ _____    ______ ____
ROOT
ATOM      1  C   UNL     1      -3.417   3.368   0.946  0.00  0.00    +0.000 C 
ATOM      2  C   UNL     1      -2.752   2.061   0.585  0.00  0.00    +0.000 A 
ATOM      3  S   UNL     1      -1.090   1.708   0.466  0.00  0.00    +0.000 S 
ATOM      4  C   UNL     1      -1.191   0.065   0.025  0.00  0.00    +0.000 A 
ATOM      5  C   UNL     1      -2.542  -0.163  -0.018  0.00  0.00    +0.000 A 
ATOM      6  C   UNL     1      -3.345   0.867   0.271  0.00  0.00    +0.000 A 
ATOM      7  C   UNL     1      -4.868   0.790   0.271  0.00  0.00    +0.000 C 
ENDROOT
BRANCH   4   8
ATOM      8  N   UNL     1      -0.123  -0.876  -0.244  0.00  0.00    +0.000 NA
ATOM      9  C   UNL     1       1.225  -0.509  -0.164  0.00  0.00    +0.000 C 
ATOM     10  O   UNL     1       1.509   0.672   0.151  0.00  0.00    +0.000 OA
BRANCH   9  11
ATOM     11  C   UNL     1       2.325  -1.462  -0.436  0.00  0.00    +0.000 C 
BRANCH  11  12
ATOM     12  C   UNL     1       3.648  -0.758  -0.265  0.00  0.00    +0.000 A 
ATOM     13  C   UNL     1       4.393  -0.650   0.873  0.00  0.00    +0.000 A 
ATOM     14  C   UNL     1       5.544   0.026   0.801  0.00  0.00    +0.000 A 
ATOM     15  C   UNL     1       5.891   0.557  -0.404  0.00  0.00    +0.000 A 
ATOM     16  S   UNL     1       4.590   0.094  -1.403  0.00  0.00    +0.000 S 
ENDBRANCH  11  12
ENDBRANCH   9  11
ENDBRANCH   4   8
BRANCH   5  17
ATOM     17  C   UNL     1      -3.062  -1.515  -0.376  0.00  0.00    +0.000 C 
ATOM     18  N   UNL     1      -4.443  -1.807  -0.435  0.00  0.00    +0.000 NA
ATOM     19  O   UNL     1      -2.292  -2.468  -0.643  0.00  0.00    +0.000 OA
ENDBRANCH   5  17
TORSDOF 4
