REMARK  Name = 
REMARK  4 active torsions:
REMARK  status: ('A' for Active; 'I' for Inactive)
REMARK    1  A    between atoms: O_2  and  C_3
REMARK    2  A    between atoms: C_3  and  C_5
REMARK    3  A    between atoms: C_12  and  C_13
REMARK    4  A    between atoms: C_14  and  O_15
REMARK                            x       y       z     vdW  Elec       q    Type
REMARK                         _______ _______ _______ _____ _____    ______ ____
ROOT
ATOM      1  C   UNL     1       1.603   0.402  -0.273  0.00  0.00    +0.000 C 
ATOM      2  C   UNL     1       2.324   1.463  -0.203  0.00  0.00    +0.000 C 
ATOM      3  C   UNL     1       3.496   1.473   0.726  0.00  0.00    +0.000 C 
ATOM      4  N   UNL     1       2.057   2.671  -0.884  0.00  0.00    +0.000 NA
ATOM      5  C   UNL     1       0.883   2.687  -1.693  0.00  0.00    +0.000 C 
ATOM      6  O   UNL     1       0.615   3.791  -2.341  0.00  0.00    +0.000 OA
ATOM      7  N   UNL     1       0.100   1.582  -1.764  0.00  0.00    +0.000 NA
ATOM      8  C   UNL     1       0.416   0.233  -1.271  0.00  0.00    +0.000 C 
ENDROOT
BRANCH   8   9
ATOM      9  C   UNL     1      -0.718  -0.093  -0.201  0.00  0.00    +0.000 A 
ATOM     10  C   UNL     1      -0.869   0.591   0.932  0.00  0.00    +0.000 A 
ATOM     11  C   UNL     1      -1.860   0.267   1.814  0.00  0.00    +0.000 A 
ATOM     12  C   UNL     1      -2.712  -0.761   1.551  0.00  0.00    +0.000 A 
ATOM     13  C   UNL     1      -2.573  -1.478   0.389  0.00  0.00    +0.000 A 
ATOM     14  C   UNL     1      -3.442  -2.513   0.138  0.00  0.00    +0.000 A 
ATOM     15  C   UNL     1      -3.337  -3.247  -1.004  0.00  0.00    +0.000 A 
ATOM     16  C   UNL     1      -2.341  -2.933  -1.905  0.00  0.00    +0.000 A 
ATOM     17  C   UNL     1      -1.470  -1.893  -1.650  0.00  0.00    +0.000 A 
ATOM     18  C   UNL     1      -1.549  -1.133  -0.508  0.00  0.00    +0.000 A 
BRANCH  10  19
ATOM     19  O   UNL     1      -0.026   1.625   1.216  0.00  0.00    +0.000 OA
ATOM     20  C   UNL     1      -0.172   2.356   2.405  0.00  0.00    +0.000 C 
ENDBRANCH  10  19
ENDBRANCH   8   9
BRANCH   1  21
ATOM     21  C   UNL     1       1.945  -0.745   0.558  0.00  0.00    +0.000 C 
ATOM     22  O   UNL     1       1.231  -1.766   0.476  0.00  0.00    +0.000 OA
BRANCH  21  24
ATOM     23  C   UNL     1       3.384  -1.828   2.244  0.00  0.00    +0.000 C 
ATOM     24  O   UNL     1       3.017  -0.752   1.427  0.00  0.00    +0.000 OA
ENDBRANCH  21  24
ENDBRANCH   1  21
TORSDOF 4
