REMARK  Name = 
REMARK  2 active torsions:
REMARK  status: ('A' for Active; 'I' for Inactive)
REMARK    1  A    between atoms: C_5  and  C_6
REMARK    2  A    between atoms: C_6  and  N_7
REMARK                            x       y       z     vdW  Elec       q    Type
REMARK                         _______ _______ _______ _____ _____    ______ ____
ROOT
ATOM      1  N   UNL     1       0.350   0.323  -1.458  0.00  0.00    +0.000 NA
ATOM      2  C   UNL     1      -0.278  -0.529  -0.490  0.00  0.00    +0.000 A 
ATOM      3  N   UNL     1       0.347  -1.671  -0.184  0.00  0.00    +0.000 NA
ATOM      4  C   UNL     1      -0.118  -2.558   0.691  0.00  0.00    +0.000 A 
ATOM      5  N   UNL     1      -1.288  -2.277   1.299  0.00  0.00    +0.000 NA
ATOM      6  C   UNL     1      -1.952  -1.116   1.008  0.00  0.00    +0.000 A 
ATOM      7  S   UNL     1      -3.421  -0.441   1.566  0.00  0.00    +0.000 S 
ATOM      8  C   UNL     1      -3.433   0.996   0.662  0.00  0.00    +0.000 A 
ATOM      9  C   UNL     1      -2.285   0.918  -0.060  0.00  0.00    +0.000 A 
ATOM     10  C   UNL     1      -1.503  -0.184   0.114  0.00  0.00    +0.000 A 
ATOM     11  C   UNL     1      -2.254   2.195  -0.892  0.00  0.00    +0.000 C 
ATOM     12  C   UNL     1      -3.128   3.165  -0.165  0.00  0.00    +0.000 C 
ATOM     13  C   UNL     1      -4.199   2.252   0.380  0.00  0.00    +0.000 C 
ENDROOT
BRANCH   1  14
ATOM     14  C   UNL     1       1.587   0.001  -2.079  0.00  0.00    +0.000 C 
BRANCH  14  19
ATOM     15  C   UNL     1       4.865  -0.581  -0.387  0.00  0.00    +0.000 A 
ATOM     16  C   UNL     1       4.515  -0.254   0.900  0.00  0.00    +0.000 A 
ATOM     17  N   UNL     1       3.282   0.140   1.233  0.00  0.00    +0.000 NA
ATOM     18  C   UNL     1       2.352   0.218   0.269  0.00  0.00    +0.000 A 
ATOM     19  C   UNL     1       2.644  -0.097  -1.035  0.00  0.00    +0.000 A 
ATOM     20  C   UNL     1       3.916  -0.502  -1.370  0.00  0.00    +0.000 A 
ENDBRANCH  14  19
ENDBRANCH   1  14
TORSDOF 2
