REMARK  Name = 
REMARK  5 active torsions:
REMARK  status: ('A' for Active; 'I' for Inactive)
REMARK    1  A    between atoms: C_3  and  C_4
REMARK    2  A    between atoms: C_4  and  O_6
REMARK    3  A    between atoms: O_6  and  C_7
REMARK    4  A    between atoms: C_7  and  C_8
REMARK    5  A    between atoms: C_11  and  C_12
REMARK                            x       y       z     vdW  Elec       q    Type
REMARK                         _______ _______ _______ _____ _____    ______ ____
ROOT
ATOM      1  C   UNL     1       1.682  -2.787  -0.016  0.00  0.00    +0.000 C 
ATOM      2  C   UNL     1       0.201  -2.450   0.014  0.00  0.00    +0.000 C 
ATOM      3  C   UNL     1      -0.081  -1.274   0.447  0.00  0.00    +0.000 C 
ATOM      4  C   UNL     1      -1.571  -0.893   0.749  0.00  0.00    +0.000 C 
ATOM      5  N   UNL     1      -2.321  -1.561  -0.308  0.00  0.00    +0.000 NA
ATOM      6  C   UNL     1      -2.017  -2.848  -0.740  0.00  0.00    +0.000 C 
ATOM      7  O   UNL     1      -2.861  -3.639  -1.274  0.00  0.00    +0.000 OA
ATOM      8  N   UNL     1      -0.701  -3.359  -0.600  0.00  0.00    +0.000 NA
ENDROOT
BRANCH   4   9
ATOM      9  C   UNL     1      -1.601   0.587   0.318  0.00  0.00    +0.000 A 
ATOM     10  C   UNL     1      -1.898   1.478   1.304  0.00  0.00    +0.000 A 
ATOM     11  C   UNL     1      -1.964   2.852   1.073  0.00  0.00    +0.000 A 
ATOM     12  C   UNL     1      -1.715   3.294  -0.199  0.00  0.00    +0.000 A 
ATOM     13  C   UNL     1      -1.416   2.429  -1.201  0.00  0.00    +0.000 A 
ATOM     14  O   UNL     1      -1.170   2.902  -2.475  0.00  0.00    +0.000 OA
ATOM     15  C   UNL     1      -1.362   1.063  -0.924  0.00  0.00    +0.000 A 
ENDBRANCH   4   9
BRANCH   3  16
ATOM     16  C   UNL     1       0.964  -0.368   0.841  0.00  0.00    +0.000 C 
ATOM     17  O   UNL     1       0.766   0.781   1.269  0.00  0.00    +0.000 OA
BRANCH  16  18
ATOM     18  O   UNL     1       2.260  -0.764   0.752  0.00  0.00    +0.000 OA
BRANCH  18  19
ATOM     19  C   UNL     1       3.358   0.017   1.101  0.00  0.00    +0.000 C 
BRANCH  19  20
ATOM     20  C   UNL     1       3.469   1.295   0.317  0.00  0.00    +0.000 C 
ATOM     21  C   UNL     1       4.648   2.119   0.703  0.00  0.00    +0.000 C 
ATOM     22  C   UNL     1       3.330   1.125  -1.152  0.00  0.00    +0.000 C 
ENDBRANCH  19  20
ENDBRANCH  18  19
ENDBRANCH  16  18
ENDBRANCH   3  16
TORSDOF 5
