REMARK  Name = 
REMARK  0 active torsions:
REMARK  status: ('A' for Active; 'I' for Inactive)
REMARK                            x       y       z     vdW  Elec       q    Type
REMARK                         _______ _______ _______ _____ _____    ______ ____
ROOT
ATOM      1  C   UNL     1       2.208  -1.893   1.539  0.00  0.00    +0.000 C 
ATOM      2  C   UNL     1       2.463  -0.744   0.635  0.00  0.00    +0.000 A 
ATOM      3  C   UNL     1       3.754  -0.605   0.158  0.00  0.00    +0.000 A 
ATOM      4  C   UNL     1       4.101   0.416  -0.681  0.00  0.00    +0.000 A 
ATOM      5  O   UNL     1       5.365   0.621  -1.198  0.00  0.00    +0.000 OA
ATOM      6  C   UNL     1       3.117   1.307  -1.038  0.00  0.00    +0.000 A 
ATOM      7  C   UNL     1       1.797   1.182  -0.564  0.00  0.00    +0.000 A 
ATOM      8  C   UNL     1       1.483   0.172   0.258  0.00  0.00    +0.000 A 
ATOM      9  C   UNL     1       0.127  -0.145   0.870  0.00  0.00    +0.000 C 
ATOM     10  C   UNL     1      -0.211  -1.427  -0.059  0.00  0.00    +0.000 C 
ATOM     11  C   UNL     1      -1.450  -1.718   0.787  0.00  0.00    +0.000 C 
ATOM     12  C   UNL     1      -2.505  -0.998   0.087  0.00  0.00    +0.000 C 
ATOM     13  C   UNL     1      -2.764  -2.014  -1.034  0.00  0.00    +0.000 C 
ATOM     14  C   UNL     1      -3.689  -0.528   0.601  0.00  0.00    +0.000 C 
ATOM     15  O   UNL     1      -4.717  -1.053   0.920  0.00  0.00    +0.000 OA
ATOM     16  C   UNL     1      -3.592   0.947   0.763  0.00  0.00    +0.000 C 
ATOM     17  C   UNL     1      -3.068   1.235  -0.630  0.00  0.00    +0.000 C 
ATOM     18  C   UNL     1      -1.841   0.205  -0.784  0.00  0.00    +0.000 C 
ATOM     19  C   UNL     1      -0.947   0.960   0.421  0.00  0.00    +0.000 C 
ATOM     20  C   UNL     1      -0.396   1.990  -0.489  0.00  0.00    +0.000 C 
ATOM     21  C   UNL     1       0.766   2.088  -0.907  0.00  0.00    +0.000 C 
ENDROOT
TORSDOF 0
