REMARK  Name = 
REMARK  3 active torsions:
REMARK  status: ('A' for Active; 'I' for Inactive)
REMARK    1  A    between atoms: C_7  and  N_8
REMARK    2  A    between atoms: N_8  and  N_9
REMARK    3  A    between atoms: C_10  and  C_12
REMARK                            x       y       z     vdW  Elec       q    Type
REMARK                         _______ _______ _______ _____ _____    ______ ____
ROOT
ATOM      1  N   UNL     1      -0.033   0.573   0.435  0.00  0.00    +0.000 NA
ATOM      2  C   UNL     1       1.040   0.520  -0.498  0.00  0.00    +0.000 C 
ATOM      3  O   UNL     1       0.991   1.138  -1.583  0.00  0.00    +0.000 OA
ENDROOT
BRANCH   2   4
ATOM      4  C   UNL     1       2.208  -0.278  -0.149  0.00  0.00    +0.000 A 
ATOM      5  C   UNL     1       2.254  -1.621  -0.466  0.00  0.00    +0.000 A 
ATOM      6  C   UNL     1       3.331  -2.414  -0.150  0.00  0.00    +0.000 A 
ATOM      7  C   UNL     1       4.431  -1.868   0.514  0.00  0.00    +0.000 A 
ATOM      8  C   UNL     1       4.380  -0.542   0.823  0.00  0.00    +0.000 A 
ATOM      9  C   UNL     1       3.292   0.266   0.505  0.00  0.00    +0.000 A 
ATOM     10 CL   UNL     1       3.292   1.976   0.922  0.00  0.00    +0.000 Cl
ENDBRANCH   2   4
BRANCH   1  11
ATOM     11  N   UNL     1      -1.147   1.313   0.168  0.00  0.00    +0.000 NA
BRANCH  11  18
ATOM     12  C   UNL     1      -1.595  -1.281   0.707  0.00  0.00    +0.000 C 
ATOM     13  C   UNL     1      -2.807  -0.672  -0.230  0.00  0.00    +0.000 C 
ATOM     14  C   UNL     1      -3.869  -0.570   1.051  0.00  0.00    +0.000 C 
ATOM     15  C   UNL     1      -5.111   0.046   0.464  0.00  0.00    +0.000 C 
ATOM     16  C   UNL     1      -4.798   0.986  -0.709  0.00  0.00    +0.000 C 
ATOM     17  C   UNL     1      -3.467   1.570  -0.385  0.00  0.00    +0.000 C 
ATOM     18  C   UNL     1      -2.392   0.860  -0.124  0.00  0.00    +0.000 C 
ENDBRANCH  11  18
ENDBRANCH   1  11
TORSDOF 3
