REMARK  Name = 
REMARK  5 active torsions:
REMARK  status: ('A' for Active; 'I' for Inactive)
REMARK    1  A    between atoms: C_2  and  C_3
REMARK    2  A    between atoms: C_2  and  N_7
REMARK    3  A    between atoms: C_3  and  C_4
REMARK    4  A    between atoms: N_7  and  N_8
REMARK    5  A    between atoms: C_9  and  C_11
REMARK                            x       y       z     vdW  Elec       q    Type
REMARK                         _______ _______ _______ _____ _____    ______ ____
ROOT
ATOM      1  N   UNL     1       0.685   0.075  -0.477  0.00  0.00    +0.000 NA
ATOM      2  C   UNL     1      -0.418  -0.783  -0.625  0.00  0.00    +0.000 C 
ATOM      3  O   UNL     1      -0.251  -1.914  -1.135  0.00  0.00    +0.000 OA
ENDROOT
BRANCH   2   4
ATOM      4  C   UNL     1      -1.740  -0.364  -0.188  0.00  0.00    +0.000 A 
ATOM      5  C   UNL     1      -2.845  -1.192  -0.323  0.00  0.00    +0.000 A 
ATOM      6  C   UNL     1      -4.107  -0.813   0.085  0.00  0.00    +0.000 A 
ATOM      7  C   UNL     1      -4.278   0.436   0.647  0.00  0.00    +0.000 A 
ATOM      8 CL   UNL     1      -5.900   0.869   1.147  0.00  0.00    +0.000 Cl
ATOM      9  C   UNL     1      -3.207   1.301   0.804  0.00  0.00    +0.000 A 
ATOM     10  C   UNL     1      -1.967   0.872   0.379  0.00  0.00    +0.000 A 
ATOM     11  O   UNL     1      -0.831   1.695   0.505  0.00  0.00    +0.000 OA
ENDBRANCH   2   4
BRANCH   1  12
ATOM     12  N   UNL     1       1.978  -0.268  -0.876  0.00  0.00    +0.000 NA
BRANCH  12  14
ATOM     13  C   UNL     1       2.956  -2.165   0.111  0.00  0.00    +0.000 C 
ATOM     14  C   UNL     1       2.832  -0.854   0.091  0.00  0.00    +0.000 C 
BRANCH  14  15
ATOM     15  C   UNL     1       3.551   0.019   1.039  0.00  0.00    +0.000 C 
BRANCH  15  16
ATOM     16  C   UNL     1       4.466   0.996   0.324  0.00  0.00    +0.000 C 
ATOM     17  C   UNL     1       3.610   1.872  -0.604  0.00  0.00    +0.000 C 
ATOM     18  C   UNL     1       5.466   0.219  -0.543  0.00  0.00    +0.000 C 
ENDBRANCH  15  16
ENDBRANCH  14  15
ENDBRANCH  12  14
ENDBRANCH   1  12
TORSDOF 5
