REMARK  Name = 
REMARK  2 active torsions:
REMARK  status: ('A' for Active; 'I' for Inactive)
REMARK    1  A    between atoms: C_4  and  C_5
REMARK    2  A    between atoms: N_15  and  C_16
REMARK                            x       y       z     vdW  Elec       q    Type
REMARK                         _______ _______ _______ _____ _____    ______ ____
ROOT
ATOM      1  C   UNL     1      -1.441  -0.094   2.833  0.00  0.00    +0.000 C 
ATOM      2  C   UNL     1      -0.779  -0.312   1.523  0.00  0.00    +0.000 A 
ATOM      3  C   UNL     1       0.501  -0.788   1.391  0.00  0.00    +0.000 A 
ATOM      4  C   UNL     1       0.781  -0.861   0.050  0.00  0.00    +0.000 A 
ATOM      5  C   UNL     1      -0.385  -0.409  -0.582  0.00  0.00    +0.000 A 
ATOM      6  C   UNL     1      -0.610  -0.291  -2.051  0.00  0.00    +0.000 C 
ATOM      7  N   UNL     1      -1.314  -0.083   0.320  0.00  0.00    +0.000 N 
ENDROOT
BRANCH   4   8
ATOM      8  C   UNL     1       1.937  -1.264  -0.708  0.00  0.00    +0.000 C 
ATOM      9  C   UNL     1       3.171  -0.944  -0.433  0.00  0.00    +0.000 C 
ATOM     10  N   UNL     1       4.364  -1.318  -1.150  0.00  0.00    +0.000 NA
ATOM     11  C   UNL     1       5.506  -0.743  -0.535  0.00  0.00    +0.000 C 
ATOM     12  O   UNL     1       6.701  -0.884  -0.927  0.00  0.00    +0.000 OA
ATOM     13  N   UNL     1       5.061   0.005   0.583  0.00  0.00    +0.000 NA
ATOM     14  C   UNL     1       3.626  -0.109   0.658  0.00  0.00    +0.000 C 
ATOM     15  O   UNL     1       2.875   0.418   1.514  0.00  0.00    +0.000 OA
ENDBRANCH   4   8
BRANCH   7  16
ATOM     16  C   UNL     1      -2.635   0.424   0.077  0.00  0.00    +0.000 A 
ATOM     17  C   UNL     1      -3.763  -0.236   0.472  0.00  0.00    +0.000 A 
ATOM     18  C   UNL     1      -5.052   0.257   0.242  0.00  0.00    +0.000 A 
ATOM     19  C   UNL     1      -5.205   1.468  -0.412  0.00  0.00    +0.000 A 
ATOM     20  F   UNL     1      -6.455   1.986  -0.654  0.00  0.00    +0.000 F 
ATOM     21  C   UNL     1      -4.082   2.138  -0.812  0.00  0.00    +0.000 A 
ATOM     22  C   UNL     1      -2.800   1.641  -0.580  0.00  0.00    +0.000 A 
ENDBRANCH   7  16
TORSDOF 2
