REMARK  Name = 
REMARK  4 active torsions:
REMARK  status: ('A' for Active; 'I' for Inactive)
REMARK    1  A    between atoms: C_2  and  C_4
REMARK    2  A    between atoms: C_4  and  C_5
REMARK    3  A    between atoms: C_5  and  C_6
REMARK    4  A    between atoms: C_9  and  C_10
REMARK                            x       y       z     vdW  Elec       q    Type
REMARK                         _______ _______ _______ _____ _____    ______ ____
ROOT
ATOM      1  C   UNL     1      -1.829  -0.918  -1.035  0.00  0.00    +0.000 A 
ATOM      2  C   UNL     1      -0.876  -0.557  -1.990  0.00  0.00    +0.000 A 
ATOM      3  C   UNL     1       0.437  -0.416  -1.582  0.00  0.00    +0.000 A 
ATOM      4  C   UNL     1       0.789  -0.627  -0.266  0.00  0.00    +0.000 A 
ATOM      5  C   UNL     1      -0.169  -0.984   0.672  0.00  0.00    +0.000 A 
ATOM      6  C   UNL     1      -1.479  -1.131   0.291  0.00  0.00    +0.000 A 
ENDROOT
BRANCH   4   7
ATOM      7  C   UNL     1       2.193  -0.479   0.189  0.00  0.00    +0.000 C 
ATOM      8  C   UNL     1       2.872  -1.816   0.309  0.00  0.00    +0.000 C 
ATOM      9  N   UNL     1       2.894   0.376  -0.774  0.00  0.00    +0.000 NA
ATOM     10  C   UNL     1       3.739   1.240  -0.036  0.00  0.00    +0.000 C 
ATOM     11  O   UNL     1       4.686   1.957  -0.455  0.00  0.00    +0.000 OA
ATOM     12  N   UNL     1       3.344   1.182   1.331  0.00  0.00    +0.000 NA
ATOM     13  C   UNL     1       2.256   0.288   1.461  0.00  0.00    +0.000 C 
ATOM     14  O   UNL     1       1.508   0.180   2.456  0.00  0.00    +0.000 OA
ENDBRANCH   4   7
BRANCH   1  15
ATOM     15  C   UNL     1      -3.230  -1.060  -1.513  0.00  0.00    +0.000 C 
BRANCH  15  16
ATOM     16  C   UNL     1      -3.959   0.252  -1.401  0.00  0.00    +0.000 C 
BRANCH  16  18
ATOM     17  C   UNL     1      -4.676  -0.293   0.937  0.00  0.00    +0.000 C 
ATOM     18  C   UNL     1      -3.981   0.711   0.051  0.00  0.00    +0.000 C 
ATOM     19  C   UNL     1      -4.519   2.098   0.188  0.00  0.00    +0.000 C 
ENDBRANCH  16  18
ENDBRANCH  15  16
ENDBRANCH   1  15
TORSDOF 4
