REMARK  Name = 
REMARK  2 active torsions:
REMARK  status: ('A' for Active; 'I' for Inactive)
REMARK    1  A    between atoms: C_7  and  C_8
REMARK    2  A    between atoms: C_8  and  C_10
REMARK                            x       y       z     vdW  Elec       q    Type
REMARK                         _______ _______ _______ _____ _____    ______ ____
ROOT
ATOM      1  C   UNL     1      -4.194   1.546   0.578  0.00  0.00    +0.000 C 
ATOM      2  C   UNL     1      -2.975   0.726   0.292  0.00  0.00    +0.000 A 
ATOM      3  C   UNL     1      -2.297   0.096   1.320  0.00  0.00    +0.000 A 
ATOM      4  C   UNL     1      -2.802   0.230   2.702  0.00  0.00    +0.000 C 
ATOM      5  C   UNL     1      -1.188  -0.667   1.047  0.00  0.00    +0.000 A 
ATOM      6  C   UNL     1      -0.464  -1.330   2.157  0.00  0.00    +0.000 C 
ATOM      7  C   UNL     1      -0.725  -0.832  -0.261  0.00  0.00    +0.000 A 
ATOM      8  C   UNL     1      -1.387  -0.226  -1.244  0.00  0.00    +0.000 A 
ATOM      9  C   UNL     1      -0.934  -0.376  -2.684  0.00  0.00    +0.000 C 
ATOM     10  C   UNL     1      -2.530   0.577  -1.014  0.00  0.00    +0.000 A 
ATOM     11  C   UNL     1      -3.194   1.274  -2.171  0.00  0.00    +0.000 C 
ENDROOT
BRANCH   7  12
ATOM     12  C   UNL     1       0.554  -1.544  -0.401  0.00  0.00    +0.000 C 
ATOM     13  O   UNL     1       0.705  -2.719  -0.651  0.00  0.00    +0.000 OA
BRANCH  12  14
ATOM     14  C   UNL     1       1.754  -0.680  -0.181  0.00  0.00    +0.000 A 
ATOM     15  C   UNL     1       2.913  -1.139   0.390  0.00  0.00    +0.000 A 
ATOM     16  C   UNL     1       3.914  -0.198   0.554  0.00  0.00    +0.000 A 
ATOM     17  C   UNL     1       3.784   1.100   0.177  0.00  0.00    +0.000 A 
ATOM     18  N   UNL     1       4.899   1.993   0.396  0.00  0.00    +0.000 NA
ATOM     19  C   UNL     1       2.597   1.533  -0.414  0.00  0.00    +0.000 A 
ATOM     20  C   UNL     1       1.570   0.638  -0.592  0.00  0.00    +0.000 A 
ENDBRANCH  12  14
ENDBRANCH   7  12
TORSDOF 2
