REMARK  Name = 
REMARK  4 active torsions:
REMARK  status: ('A' for Active; 'I' for Inactive)
REMARK    1  A    between atoms: O_2  and  C_3
REMARK    2  A    between atoms: C_6  and  C_7
REMARK    3  A    between atoms: C_7  and  N_8
REMARK    4  A    between atoms: C_13  and  C_14
REMARK                            x       y       z     vdW  Elec       q    Type
REMARK                         _______ _______ _______ _____ _____    ______ ____
ROOT
ATOM      1  N   UNL     1      -1.145  -0.715  -0.551  0.00  0.00    +0.000 N 
ATOM      2  C   UNL     1      -1.610   0.203  -1.385  0.00  0.00    +0.000 A 
ATOM      3  C   UNL     1      -1.092   0.477  -2.755  0.00  0.00    +0.000 C 
ATOM      4  C   UNL     1      -2.662   0.901  -0.826  0.00  0.00    +0.000 A 
ATOM      5  C   UNL     1      -3.476   2.005  -1.393  0.00  0.00    +0.000 C 
ATOM      6  C   UNL     1      -2.838   0.358   0.435  0.00  0.00    +0.000 A 
ATOM      7  C   UNL     1      -1.882  -0.640   0.574  0.00  0.00    +0.000 A 
ATOM      8  N   UNL     1      -1.750  -1.438   1.762  0.00  0.00    +0.000 NA
ENDROOT
BRANCH   6   9
ATOM      9  C   UNL     1      -3.832   0.781   1.382  0.00  0.00    +0.000 C 
ATOM     10  N   UNL     1      -4.627   1.128   2.165  0.00  0.00    +0.000 NA
ENDBRANCH   6   9
BRANCH   1  11
ATOM     11  C   UNL     1      -0.048  -1.669  -0.734  0.00  0.00    +0.000 C 
BRANCH  11  15
ATOM     12  C   UNL     1       3.632   0.013   0.664  0.00  0.00    +0.000 A 
ATOM     13  C   UNL     1       2.797  -0.709   1.504  0.00  0.00    +0.000 A 
ATOM     14  C   UNL     1       1.619  -1.240   1.029  0.00  0.00    +0.000 A 
ATOM     15  C   UNL     1       1.216  -1.083  -0.280  0.00  0.00    +0.000 A 
ATOM     16  C   UNL     1       2.038  -0.368  -1.124  0.00  0.00    +0.000 A 
ATOM     17  C   UNL     1       3.216   0.161  -0.642  0.00  0.00    +0.000 A 
BRANCH  12  19
ATOM     18  C   UNL     1       5.613   1.277   0.195  0.00  0.00    +0.000 C 
ATOM     19  O   UNL     1       4.831   0.558   1.127  0.00  0.00    +0.000 OA
ENDBRANCH  12  19
ENDBRANCH  11  15
ENDBRANCH   1  11
TORSDOF 4
