REMARK  Name = 
REMARK  3 active torsions:
REMARK  status: ('A' for Active; 'I' for Inactive)
REMARK    1  A    between atoms: C_4  and  N_5
REMARK    2  A    between atoms: N_5  and  C_6
REMARK    3  A    between atoms: C_10  and  N_11
REMARK                            x       y       z     vdW  Elec       q    Type
REMARK                         _______ _______ _______ _____ _____    ______ ____
ROOT
ATOM      1  C   UNL     1      -2.312   3.017   1.996  0.00  0.00    +0.000 C 
ATOM      2  C   UNL     1      -2.271   1.759   1.211  0.00  0.00    +0.000 A 
ATOM      3  N   UNL     1      -1.160   1.177   0.788  0.00  0.00    +0.000 NA
ATOM      4  C   UNL     1      -1.075   0.056   0.086  0.00  0.00    +0.000 A 
ATOM      5  C   UNL     1      -2.257  -0.617  -0.269  0.00  0.00    +0.000 A 
ATOM      6  C   UNL     1      -2.365  -1.766  -0.978  0.00  0.00    +0.000 A 
ATOM      7  C   UNL     1      -1.196  -2.571  -1.543  0.00  0.00    +0.000 C 
ATOM      8  C   UNL     1      -3.629  -2.240  -1.204  0.00  0.00    +0.000 A 
ATOM      9  C   UNL     1      -4.074  -3.470  -1.946  0.00  0.00    +0.000 C 
ATOM     10  S   UNL     1      -4.615  -1.085  -0.432  0.00  0.00    +0.000 S 
ATOM     11  C   UNL     1      -3.412  -0.034   0.157  0.00  0.00    +0.000 A 
ATOM     12  N   UNL     1      -3.429   1.118   0.875  0.00  0.00    +0.000 NA
ENDROOT
BRANCH   4  13
ATOM     13  N   UNL     1       0.201  -0.408  -0.273  0.00  0.00    +0.000 NA
BRANCH  13  14
ATOM     14  C   UNL     1       1.404   0.264   0.080  0.00  0.00    +0.000 A 
ATOM     15  C   UNL     1       1.282   1.432   0.814  0.00  0.00    +0.000 A 
ATOM     16  C   UNL     1       2.429   2.092   1.162  0.00  0.00    +0.000 A 
ATOM     17  C   UNL     1       3.652   1.599   0.788  0.00  0.00    +0.000 A 
ATOM     18  C   UNL     1       3.789   0.443   0.061  0.00  0.00    +0.000 A 
ATOM     19  C   UNL     1       2.639  -0.226  -0.292  0.00  0.00    +0.000 A 
BRANCH  18  20
ATOM     20  N   UNL     1       5.074  -0.066  -0.325  0.00  0.00    +0.000 N 
ATOM     21  O   UNL     1       5.141  -1.106  -0.976  0.00  0.00    +0.000 OA
ATOM     22  O   UNL     1       6.182   0.635   0.050  0.00  0.00    +0.000 OA
ENDBRANCH  18  20
ENDBRANCH  13  14
ENDBRANCH   4  13
TORSDOF 3
