REMARK  Name = 
REMARK  5 active torsions:
REMARK  status: ('A' for Active; 'I' for Inactive)
REMARK    1  A    between atoms: C_2  and  O_3
REMARK    2  A    between atoms: O_3  and  C_4
REMARK    3  A    between atoms: C_4  and  C_6
REMARK    4  A    between atoms: C_7  and  C_8
REMARK    5  A    between atoms: C_14  and  C_15
REMARK                            x       y       z     vdW  Elec       q    Type
REMARK                         _______ _______ _______ _____ _____    ______ ____
ROOT
ATOM      1  C   UNL     1      -0.846   0.010   0.095  0.00  0.00    +0.000 C 
ATOM      2  C   UNL     1      -1.139  -1.214   0.171  0.00  0.00    +0.000 C 
ATOM      3  N   UNL     1      -0.633  -2.134   1.100  0.00  0.00    +0.000 NA
ATOM      4  C   UNL     1       0.301  -1.610   2.044  0.00  0.00    +0.000 C 
ATOM      5  O   UNL     1       0.829  -2.353   2.934  0.00  0.00    +0.000 OA
ATOM      6  N   UNL     1       0.629  -0.311   1.993  0.00  0.00    +0.000 NA
ATOM      7  C   UNL     1       0.232   0.769   0.998  0.00  0.00    +0.000 C 
ENDROOT
BRANCH   7   8
ATOM      8  C   UNL     1       1.499   0.701  -0.004  0.00  0.00    +0.000 A 
ATOM      9  C   UNL     1       1.302   0.983  -1.304  0.00  0.00    +0.000 A 
ATOM     10  C   UNL     1       2.394   0.920  -2.150  0.00  0.00    +0.000 A 
ATOM     11  C   UNL     1       3.636   0.576  -1.656  0.00  0.00    +0.000 A 
ATOM     12  C   UNL     1       3.786   0.296  -0.319  0.00  0.00    +0.000 A 
ATOM     13  C   UNL     1       2.686   0.361   0.527  0.00  0.00    +0.000 A 
ATOM     14  O   UNL     1       2.891   0.067   1.882  0.00  0.00    +0.000 OA
ENDBRANCH   7   8
BRANCH   1  15
ATOM     15  C   UNL     1      -1.468   0.926  -0.908  0.00  0.00    +0.000 C 
ATOM     16  O   UNL     1      -1.176   2.119  -0.973  0.00  0.00    +0.000 OA
BRANCH  15  17
ATOM     17  O   UNL     1      -2.386   0.392  -1.767  0.00  0.00    +0.000 OA
BRANCH  17  19
ATOM     18  C   UNL     1      -3.763   2.339  -2.022  0.00  0.00    +0.000 C 
ATOM     19  C   UNL     1      -3.013   1.222  -2.747  0.00  0.00    +0.000 C 
ENDBRANCH  17  19
ENDBRANCH  15  17
ENDBRANCH   1  15
BRANCH   2  20
ATOM     20  C   UNL     1      -2.171  -1.701  -0.833  0.00  0.00    +0.000 C 
ATOM     21 CL   UNL     1      -3.591  -2.356   0.001  0.00  0.00    +0.000 Cl
ENDBRANCH   2  20
TORSDOF 5
