REMARK  Name = 
REMARK  4 active torsions:
REMARK  status: ('A' for Active; 'I' for Inactive)
REMARK    1  A    between atoms: C_2  and  C_3
REMARK    2  A    between atoms: C_3  and  C_4
REMARK    3  A    between atoms: C_7  and  C_8
REMARK    4  A    between atoms: C_14  and  C_15
REMARK                            x       y       z     vdW  Elec       q    Type
REMARK                         _______ _______ _______ _____ _____    ______ ____
ROOT
ATOM      1  C   UNL     1       2.612  -0.850  -0.585  0.00  0.00    +0.000 A 
ATOM      2  C   UNL     1       2.188   0.315  -1.150  0.00  0.00    +0.000 A 
ATOM      3  C   UNL     1       0.912   0.791  -0.834  0.00  0.00    +0.000 A 
ATOM      4  C   UNL     1       0.088   0.111   0.026  0.00  0.00    +0.000 A 
ATOM      5  C   UNL     1       0.556  -1.065   0.575  0.00  0.00    +0.000 A 
ATOM      6  C   UNL     1       1.820  -1.554   0.273  0.00  0.00    +0.000 A 
ENDROOT
BRANCH   4   7
ATOM      7  C   UNL     1      -1.289   0.608   0.338  0.00  0.00    +0.000 A 
ATOM      8  C   UNL     1      -1.458   1.766   1.044  0.00  0.00    +0.000 A 
ATOM      9  C   UNL     1      -0.383   2.689   1.580  0.00  0.00    +0.000 C 
ATOM     10  S   UNL     1      -3.138   1.922   1.175  0.00  0.00    +0.000 S 
ATOM     11  C   UNL     1      -3.614   0.522   0.333  0.00  0.00    +0.000 A 
ATOM     12  N   UNL     1      -4.948   0.021   0.055  0.00  0.00    +0.000 NA
ATOM     13  C   UNL     1      -2.420  -0.044  -0.035  0.00  0.00    +0.000 A 
BRANCH  13  14
ATOM     14  C   UNL     1      -2.410  -1.310  -0.798  0.00  0.00    +0.000 C 
ATOM     15  N   UNL     1      -2.412  -2.312  -1.412  0.00  0.00    +0.000 NA
ENDBRANCH  13  14
ENDBRANCH   4   7
BRANCH   1  16
ATOM     16  C   UNL     1       3.965  -1.397  -0.887  0.00  0.00    +0.000 C 
BRANCH  16  18
ATOM     17  C   UNL     1       5.005   0.651   0.149  0.00  0.00    +0.000 C 
ATOM     18  C   UNL     1       4.926  -0.864   0.152  0.00  0.00    +0.000 C 
ENDBRANCH  16  18
ENDBRANCH   1  16
TORSDOF 4
