REMARK  Name = 
REMARK  2 active torsions:
REMARK  status: ('A' for Active; 'I' for Inactive)
REMARK    1  A    between atoms: C_5  and  N_6
REMARK    2  A    between atoms: C_7  and  C_9
REMARK                            x       y       z     vdW  Elec       q    Type
REMARK                         _______ _______ _______ _____ _____    ______ ____
ROOT
ATOM      1  N   UNL     1       0.481  -0.451   0.471  0.00  0.00    +0.000 NA
ATOM      2  C   UNL     1      -0.410   0.205  -0.421  0.00  0.00    +0.000 C 
ATOM      3  O   UNL     1       0.096   0.944  -1.329  0.00  0.00    +0.000 OA
ENDROOT
BRANCH   2   4
ATOM      4  C   UNL     1      -1.849   0.066  -0.338  0.00  0.00    +0.000 A 
ATOM      5  C   UNL     1      -2.414  -0.724   0.628  0.00  0.00    +0.000 A 
ATOM      6  C   UNL     1      -3.778  -0.898   0.761  0.00  0.00    +0.000 A 
ATOM      7  C   UNL     1      -4.402  -1.749   1.803  0.00  0.00    +0.000 C 
ATOM      8  C   UNL     1      -4.587  -0.240  -0.130  0.00  0.00    +0.000 A 
ATOM      9  C   UNL     1      -4.048   0.558  -1.109  0.00  0.00    +0.000 A 
ATOM     10  C   UNL     1      -2.674   0.717  -1.222  0.00  0.00    +0.000 A 
ATOM     11  N   UNL     1      -2.170   1.560  -2.261  0.00  0.00    +0.000 NA
ENDBRANCH   2   4
BRANCH   1  16
ATOM     12  C   UNL     1       6.127   0.354  -0.183  0.00  0.00    +0.000 C 
ATOM     13  C   UNL     1       4.664   0.134   0.002  0.00  0.00    +0.000 A 
ATOM     14  C   UNL     1       3.741   0.744  -0.835  0.00  0.00    +0.000 A 
ATOM     15  C   UNL     1       2.381   0.562  -0.694  0.00  0.00    +0.000 A 
ATOM     16  C   UNL     1       1.891  -0.250   0.308  0.00  0.00    +0.000 A 
ATOM     17  C   UNL     1       2.795  -0.858   1.141  0.00  0.00    +0.000 A 
ATOM     18  C   UNL     1       4.155  -0.675   0.997  0.00  0.00    +0.000 A 
ENDBRANCH   1  16
TORSDOF 2
