REMARK  Name = 
REMARK  3 active torsions:
REMARK  status: ('A' for Active; 'I' for Inactive)
REMARK    1  A    between atoms: C_6  and  C_7
REMARK    2  A    between atoms: N_9  and  C_10
REMARK    3  A    between atoms: C_17  and  N_18
REMARK                            x       y       z     vdW  Elec       q    Type
REMARK                         _______ _______ _______ _____ _____    ______ ____
ROOT
ATOM      1  C   UNL     1      -5.001   0.422  -0.693  0.00  0.00    +0.000 C 
ATOM      2  C   UNL     1      -3.713   0.690  -0.003  0.00  0.00    +0.000 A 
ATOM      3  C   UNL     1      -3.745   1.457   1.135  0.00  0.00    +0.000 A 
ATOM      4  C   UNL     1      -2.535   1.709   1.785  0.00  0.00    +0.000 A 
ATOM      5  C   UNL     1      -1.333   1.210   1.308  0.00  0.00    +0.000 A 
ATOM      6  C   UNL     1      -1.300   0.437   0.159  0.00  0.00    +0.000 A 
ATOM      7  C   UNL     1      -2.499   0.195  -0.472  0.00  0.00    +0.000 A 
ENDROOT
BRANCH   6   8
ATOM      8  C   UNL     1      -0.034  -0.088  -0.336  0.00  0.00    +0.000 C 
ATOM      9  O   UNL     1       0.258  -0.151  -1.559  0.00  0.00    +0.000 OA
ATOM     10  N   UNL     1       0.931  -0.556   0.596  0.00  0.00    +0.000 NA
BRANCH  10  11
ATOM     11  C   UNL     1       2.213  -1.087   0.094  0.00  0.00    +0.000 C 
ATOM     12  C   UNL     1       3.052  -1.542   1.223  0.00  0.00    +0.000 C 
ATOM     13  C   UNL     1       4.480  -1.109   1.066  0.00  0.00    +0.000 C 
ATOM     14  C   UNL     1       4.629   0.402   1.058  0.00  0.00    +0.000 C 
ATOM     15  C   UNL     1       5.046   0.757  -0.383  0.00  0.00    +0.000 C 
ATOM     16  C   UNL     1       4.191  -0.211  -1.231  0.00  0.00    +0.000 C 
ATOM     17  C   UNL     1       2.789  -0.021  -0.759  0.00  0.00    +0.000 C 
ENDBRANCH  10  11
ENDBRANCH   6   8
BRANCH   7  18
ATOM     18  N   UNL     1      -2.481  -0.585  -1.636  0.00  0.00    +0.000 N 
ATOM     19  O   UNL     1      -2.306  -1.828  -1.523  0.00  0.00    +0.000 OA
ATOM     20  O   UNL     1      -2.641  -0.100  -2.901  0.00  0.00    +0.000 OA
ENDBRANCH   7  18
TORSDOF 3
