REMARK  Name = 
REMARK  2 active torsions:
REMARK  status: ('A' for Active; 'I' for Inactive)
REMARK    1  A    between atoms: N_6  and  C_7
REMARK    2  A    between atoms: C_10  and  C_11
REMARK                            x       y       z     vdW  Elec       q    Type
REMARK                         _______ _______ _______ _____ _____    ______ ____
ROOT
ATOM      1  C   UNL     1      -5.795   1.681  -0.424  0.00  0.00    +0.000 C 
ATOM      2  C   UNL     1      -4.545   0.958  -0.076  0.00  0.00    +0.000 A 
ATOM      3  C   UNL     1      -3.362   1.423  -0.608  0.00  0.00    +0.000 A 
ATOM      4  C   UNL     1      -2.179   0.806  -0.330  0.00  0.00    +0.000 A 
ATOM      5  N   UNL     1      -0.882   0.965  -0.651  0.00  0.00    +0.000 NA
ATOM      6  N   UNL     1      -0.138   0.043  -0.076  0.00  0.00    +0.000 N 
ATOM      7  N   UNL     1      -0.962  -0.720   0.624  0.00  0.00    +0.000 NA
ATOM      8  C   UNL     1      -2.231  -0.296   0.503  0.00  0.00    +0.000 A 
ATOM      9  C   UNL     1      -3.402  -0.766   1.038  0.00  0.00    +0.000 A 
ATOM     10  C   UNL     1      -4.598  -0.142   0.756  0.00  0.00    +0.000 A 
ATOM     11  N   UNL     1      -5.838  -0.610   1.300  0.00  0.00    +0.000 NA
ENDROOT
BRANCH   6  12
ATOM     12  C   UNL     1       1.274  -0.100  -0.188  0.00  0.00    +0.000 A 
ATOM     13  C   UNL     1       1.861  -1.340  -0.056  0.00  0.00    +0.000 A 
ATOM     14  C   UNL     1       3.226  -1.530  -0.156  0.00  0.00    +0.000 A 
ATOM     15  C   UNL     1       4.073  -0.469  -0.397  0.00  0.00    +0.000 A 
ATOM     16  C   UNL     1       3.482   0.772  -0.529  0.00  0.00    +0.000 A 
ATOM     17  C   UNL     1       2.119   0.963  -0.429  0.00  0.00    +0.000 A 
BRANCH  15  18
ATOM     18  C   UNL     1       5.542  -0.612  -0.515  0.00  0.00    +0.000 C 
ATOM     19  C   UNL     1       6.088  -1.692   0.393  0.00  0.00    +0.000 C 
ATOM     20  C   UNL     1       6.265   0.666  -0.178  0.00  0.00    +0.000 C 
ENDBRANCH  15  18
ENDBRANCH   6  12
TORSDOF 2
