REMARK  Name = 
REMARK  3 active torsions:
REMARK  status: ('A' for Active; 'I' for Inactive)
REMARK    1  A    between atoms: C_2  and  C_12
REMARK    2  A    between atoms: N_3  and  N_4
REMARK    3  A    between atoms: N_4  and  C_5
REMARK                            x       y       z     vdW  Elec       q    Type
REMARK                         _______ _______ _______ _____ _____    ______ ____
ROOT
ATOM      1  O   UNL     1      -0.124   1.037   0.927  0.00  0.00    +0.000 OA
ATOM      2  C   UNL     1      -0.879   0.169   0.389  0.00  0.00    +0.000 C 
ATOM      3  N   UNL     1      -0.262  -0.975  -0.211  0.00  0.00    +0.000 NA
ENDROOT
BRANCH   2   4
ATOM      4  C   UNL     1      -2.330   0.359   0.397  0.00  0.00    +0.000 A 
ATOM      5  C   UNL     1      -3.159  -0.370  -0.436  0.00  0.00    +0.000 A 
ATOM      6  C   UNL     1      -4.536  -0.191  -0.423  0.00  0.00    +0.000 A 
ATOM      7  C   UNL     1      -5.143   0.716   0.416  0.00  0.00    +0.000 A 
ATOM      8 CL   UNL     1      -6.880   0.972   0.451  0.00  0.00    +0.000 Cl
ATOM      9  C   UNL     1      -4.301   1.442   1.248  0.00  0.00    +0.000 A 
ATOM     10  C   UNL     1      -2.935   1.266   1.237  0.00  0.00    +0.000 A 
ENDBRANCH   2   4
BRANCH   3  11
ATOM     11  N   UNL     1       1.136  -1.150  -0.208  0.00  0.00    +0.000 NA
BRANCH  11  12
ATOM     12  C   UNL     1       2.005  -0.262  -0.894  0.00  0.00    +0.000 C 
ATOM     13  C   UNL     1       3.300  -0.471  -0.916  0.00  0.00    +0.000 C 
ATOM     14  C   UNL     1       3.840  -1.654  -0.211  0.00  0.00    +0.000 C 
ATOM     15  C   UNL     1       4.718  -1.171   0.920  0.00  0.00    +0.000 C 
ATOM     16  C   UNL     1       5.635  -0.086   0.413  0.00  0.00    +0.000 C 
ATOM     17  C   UNL     1       5.650  -0.049  -1.125  0.00  0.00    +0.000 C 
ATOM     18  C   UNL     1       4.268   0.416  -1.613  0.00  0.00    +0.000 C 
ENDBRANCH  11  12
ENDBRANCH   3  11
TORSDOF 3
