REMARK  Name = 
REMARK  4 active torsions:
REMARK  status: ('A' for Active; 'I' for Inactive)
REMARK    1  A    between atoms: C_2  and  C_3
REMARK    2  A    between atoms: C_3  and  N_4
REMARK    3  A    between atoms: C_7  and  C_8
REMARK    4  A    between atoms: C_13  and  O_14
REMARK                            x       y       z     vdW  Elec       q    Type
REMARK                         _______ _______ _______ _____ _____    ______ ____
ROOT
ATOM      1  C   UNL     1      -0.471  -1.051  -0.382  0.00  0.00    +0.000 A 
ATOM      2  C   UNL     1      -1.067  -2.078  -1.067  0.00  0.00    +0.000 A 
ATOM      3  N   UNL     1      -2.373  -1.803  -1.130  0.00  0.00    +0.000 NA
ATOM      4  C   UNL     1      -2.638  -0.638  -0.511  0.00  0.00    +0.000 A 
ATOM      5  C   UNL     1      -3.828   0.058  -0.315  0.00  0.00    +0.000 A 
ATOM      6  C   UNL     1      -3.827   1.251   0.365  0.00  0.00    +0.000 A 
ATOM      7  C   UNL     1      -2.629   1.731   0.840  0.00  0.00    +0.000 A 
ATOM      8  C   UNL     1      -1.426   1.046   0.652  0.00  0.00    +0.000 A 
ATOM      9  C   UNL     1      -1.451  -0.148  -0.032  0.00  0.00    +0.000 A 
ENDROOT
BRANCH   1  13
ATOM     10  N   UNL     1       3.549   1.074   1.505  0.00  0.00    +0.000 NA
ATOM     11  C   UNL     1       2.799   0.052   0.797  0.00  0.00    +0.000 A 
ATOM     12  N   UNL     1       1.498   0.021   0.561  0.00  0.00    +0.000 NA
ATOM     13  C   UNL     1       0.988  -0.980  -0.096  0.00  0.00    +0.000 A 
ATOM     14  C   UNL     1       1.859  -1.960  -0.507  0.00  0.00    +0.000 A 
ATOM     15  S   UNL     1       3.356  -1.387   0.071  0.00  0.00    +0.000 S 
BRANCH  10  16
ATOM     16  C   UNL     1       4.980   0.889   1.641  0.00  0.00    +0.000 C 
BRANCH  16  18
ATOM     17  C   UNL     1       6.301  -0.286  -0.056  0.00  0.00    +0.000 C 
ATOM     18  C   UNL     1       5.621   0.813   0.302  0.00  0.00    +0.000 C 
ENDBRANCH  16  18
ENDBRANCH  10  16
ENDBRANCH   1  13
BRANCH   6  19
ATOM     19  O   UNL     1      -5.020   1.966   0.572  0.00  0.00    +0.000 OA
ATOM     20  C   UNL     1      -6.223   1.429   0.063  0.00  0.00    +0.000 C 
ENDBRANCH   6  19
TORSDOF 4
