REMARK  Name = 
REMARK  4 active torsions:
REMARK  status: ('A' for Active; 'I' for Inactive)
REMARK    1  A    between atoms: C_2  and  C_3
REMARK    2  A    between atoms: C_3  and  C_4
REMARK    3  A    between atoms: C_7  and  C_8
REMARK    4  A    between atoms: C_8  and  N_9
REMARK                            x       y       z     vdW  Elec       q    Type
REMARK                         _______ _______ _______ _____ _____    ______ ____
ROOT
ATOM      1  C   UNL     1       2.555  -0.586   0.567  0.00  0.00    +0.000 A 
ATOM      2  N   UNL     1       2.251  -0.591  -0.740  0.00  0.00    +0.000 NA
ATOM      3  C   UNL     1       1.036  -0.858  -1.246  0.00  0.00    +0.000 A 
ATOM      4  C   UNL     1       0.025  -1.151  -0.344  0.00  0.00    +0.000 A 
ATOM      5  C   UNL     1       0.339  -1.147   1.000  0.00  0.00    +0.000 A 
ATOM      6  N   UNL     1      -0.727  -1.461   1.893  0.00  0.00    +0.000 NA
ATOM      7  N   UNL     1       1.588  -0.867   1.440  0.00  0.00    +0.000 NA
ENDROOT
BRANCH   1   8
ATOM      8  C   UNL     1       3.955  -0.267   0.959  0.00  0.00    +0.000 C 
BRANCH   8  10
ATOM      9  C   UNL     1       5.524   1.533   1.552  0.00  0.00    +0.000 C 
ATOM     10  C   UNL     1       4.101   1.239   1.161  0.00  0.00    +0.000 C 
ENDBRANCH   8  10
ENDBRANCH   1   8
BRANCH   4  11
ATOM     11  C   UNL     1      -1.365  -1.453  -0.831  0.00  0.00    +0.000 C 
BRANCH  11  12
ATOM     12  N   UNL     1      -2.183  -0.269  -0.622  0.00  0.00    +0.000 N 
ATOM     13  C   UNL     1      -2.857  -0.091   0.518  0.00  0.00    +0.000 A 
ATOM     14  C   UNL     1      -3.630   1.008   0.737  0.00  0.00    +0.000 A 
ATOM     15  C   UNL     1      -3.748   1.983  -0.211  0.00  0.00    +0.000 A 
ATOM     16  C   UNL     1      -3.048   1.794  -1.390  0.00  0.00    +0.000 A 
ATOM     17  C   UNL     1      -2.286   0.686  -1.577  0.00  0.00    +0.000 A 
ATOM     18  C   UNL     1      -1.532   0.497  -2.868  0.00  0.00    +0.000 C 
ENDBRANCH  11  12
ENDBRANCH   4  11
TORSDOF 4
