REMARK  Name = 
REMARK  4 active torsions:
REMARK  status: ('A' for Active; 'I' for Inactive)
REMARK    1  A    between atoms: C_3  and  C_4
REMARK    2  A    between atoms: C_4  and  O_6
REMARK    3  A    between atoms: O_6  and  C_7
REMARK    4  A    between atoms: C_11  and  C_12
REMARK                            x       y       z     vdW  Elec       q    Type
REMARK                         _______ _______ _______ _____ _____    ______ ____
ROOT
ATOM      1  C   UNL     1      -1.851   0.920   1.889  0.00  0.00    +0.000 C 
ATOM      2  C   UNL     1      -0.636   1.436   1.138  0.00  0.00    +0.000 C 
ATOM      3  C   UNL     1      -0.498   1.040  -0.047  0.00  0.00    +0.000 C 
ATOM      4  C   UNL     1       0.663   1.393  -1.065  0.00  0.00    +0.000 C 
ATOM      5  N   UNL     1       1.530   2.359  -0.266  0.00  0.00    +0.000 NA
ATOM      6  C   UNL     1       1.349   2.764   1.017  0.00  0.00    +0.000 C 
ATOM      7  O   UNL     1       2.196   3.564   1.529  0.00  0.00    +0.000 OA
ATOM      8  N   UNL     1       0.248   2.315   1.779  0.00  0.00    +0.000 NA
ENDROOT
BRANCH   4   9
ATOM      9  C   UNL     1       1.578   0.109  -0.933  0.00  0.00    +0.000 A 
ATOM     10  C   UNL     1       0.972  -1.078  -0.641  0.00  0.00    +0.000 A 
ATOM     11  C   UNL     1       1.733  -2.253  -0.511  0.00  0.00    +0.000 A 
ATOM     12  C   UNL     1       3.091  -2.188  -0.682  0.00  0.00    +0.000 A 
ATOM     13  O   UNL     1       3.893  -3.314  -0.566  0.00  0.00    +0.000 OA
ATOM     14  C   UNL     1       3.676  -0.979  -0.975  0.00  0.00    +0.000 A 
ATOM     15  C   UNL     1       2.910   0.188  -1.103  0.00  0.00    +0.000 A 
ENDBRANCH   4   9
BRANCH   3  16
ATOM     16  C   UNL     1      -1.498   0.101  -0.677  0.00  0.00    +0.000 C 
ATOM     17  O   UNL     1      -1.380  -0.304  -1.852  0.00  0.00    +0.000 OA
BRANCH  16  18
ATOM     18  O   UNL     1      -2.567  -0.319   0.065  0.00  0.00    +0.000 OA
BRANCH  18  19
ATOM     19  C   UNL     1      -3.567  -1.202  -0.428  0.00  0.00    +0.000 C 
ATOM     20  C   UNL     1      -4.585  -1.434   0.688  0.00  0.00    +0.000 C 
ATOM     21  C   UNL     1      -2.953  -2.510  -0.880  0.00  0.00    +0.000 C 
ATOM     22  C   UNL     1      -4.306  -0.608  -1.607  0.00  0.00    +0.000 C 
ENDBRANCH  18  19
ENDBRANCH  16  18
ENDBRANCH   3  16
TORSDOF 4
