REMARK  Name = 
REMARK  3 active torsions:
REMARK  status: ('A' for Active; 'I' for Inactive)
REMARK    1  A    between atoms: C_2  and  C_3
REMARK    2  A    between atoms: C_3  and  N_5
REMARK    3  A    between atoms: C_8  and  C_9
REMARK                            x       y       z     vdW  Elec       q    Type
REMARK                         _______ _______ _______ _____ _____    ______ ____
ROOT
ATOM      1  N   UNL     1       3.612  -0.127   0.801  0.00  0.00    +0.000 NA
ATOM      2  C   UNL     1       2.209  -0.241   0.808  0.00  0.00    +0.000 A 
ATOM      3  N   UNL     1       1.233   0.083   0.009  0.00  0.00    +0.000 NA
ATOM      4  C   UNL     1      -0.008  -0.188   0.353  0.00  0.00    +0.000 A 
ATOM      5  C   UNL     1      -0.194  -0.811   1.565  0.00  0.00    +0.000 A 
ATOM      6  S   UNL     1       1.415  -0.964   2.123  0.00  0.00    +0.000 S 
ENDROOT
BRANCH   4   7
ATOM      7  C   UNL     1      -1.214   0.135  -0.478  0.00  0.00    +0.000 A 
ATOM      8  C   UNL     1      -1.232   0.752  -1.711  0.00  0.00    +0.000 A 
ATOM      9  N   UNL     1      -2.531   0.857  -2.123  0.00  0.00    +0.000 NA
ATOM     10  C   UNL     1      -3.345   0.334  -1.210  0.00  0.00    +0.000 A 
ATOM     11  C   UNL     1      -4.714   0.192  -1.142  0.00  0.00    +0.000 A 
ATOM     12  C   UNL     1      -5.314  -0.400  -0.058  0.00  0.00    +0.000 A 
ATOM     13  C   UNL     1      -4.516  -0.853   0.969  0.00  0.00    +0.000 A 
ATOM     14  C   UNL     1      -3.151  -0.708   0.895  0.00  0.00    +0.000 A 
ATOM     15  C   UNL     1      -2.530  -0.116  -0.185  0.00  0.00    +0.000 A 
ENDBRANCH   4   7
BRANCH   1  16
ATOM     16  C   UNL     1       4.234   0.566  -0.480  0.00  0.00    +0.000 C 
ATOM     17  C   UNL     1       4.074   2.088   0.167  0.00  0.00    +0.000 C 
BRANCH  16  19
ATOM     18  C   UNL     1       6.183  -0.995  -0.396  0.00  0.00    +0.000 C 
ATOM     19  C   UNL     1       5.790   0.400   0.095  0.00  0.00    +0.000 C 
ENDBRANCH  16  19
ENDBRANCH   1  16
TORSDOF 3
