REMARK  Name = 
REMARK  4 active torsions:
REMARK  status: ('A' for Active; 'I' for Inactive)
REMARK    1  A    between atoms: C_2  and  N_3
REMARK    2  A    between atoms: N_3  and  C_4
REMARK    3  A    between atoms: N_3  and  C_6
REMARK    4  A    between atoms: C_9  and  N_10
REMARK                            x       y       z     vdW  Elec       q    Type
REMARK                         _______ _______ _______ _____ _____    ______ ____
ROOT
ATOM      1  C   UNL     1      -2.972   0.157  -0.281  0.00  0.00    +0.000 A 
ATOM      2  C   UNL     1      -2.534  -0.158   0.982  0.00  0.00    +0.000 A 
ATOM      3  C   UNL     1      -1.209  -0.483   1.185  0.00  0.00    +0.000 A 
ATOM      4  C   UNL     1      -0.277  -0.510   0.165  0.00  0.00    +0.000 A 
ATOM      5  C   UNL     1      -0.717  -0.194  -1.100  0.00  0.00    +0.000 A 
ATOM      6  C   UNL     1      -2.044   0.131  -1.302  0.00  0.00    +0.000 A 
ENDROOT
BRANCH   4   7
ATOM      7  N   UNL     1       1.095  -0.856   0.428  0.00  0.00    +0.000 N 
ATOM      8  C   UNL     1       1.546  -1.897   1.153  0.00  0.00    +0.000 A 
ATOM      9  N   UNL     1       2.890  -1.890   1.173  0.00  0.00    +0.000 NA
ATOM     10  C   UNL     1       3.341  -0.833   0.455  0.00  0.00    +0.000 A 
ATOM     11  C   UNL     1       4.617  -0.368   0.160  0.00  0.00    +0.000 A 
ATOM     12  C   UNL     1       4.732   0.761  -0.615  0.00  0.00    +0.000 A 
ATOM     13  N   UNL     1       6.000   1.314  -0.971  0.00  0.00    +0.000 NA
ATOM     14  C   UNL     1       3.585   1.383  -1.064  0.00  0.00    +0.000 A 
ATOM     15  C   UNL     1       2.318   0.924  -0.772  0.00  0.00    +0.000 A 
ATOM     16  C   UNL     1       2.197  -0.208   0.004  0.00  0.00    +0.000 A 
ENDBRANCH   4   7
BRANCH   1  17
ATOM     17  N   UNL     1      -4.326   0.483  -0.453  0.00  0.00    +0.000 N 
BRANCH  17  19
ATOM     18  C   UNL     1      -3.551   2.763  -0.014  0.00  0.00    +0.000 C 
ATOM     19  C   UNL     1      -4.729   1.872  -0.326  0.00  0.00    +0.000 C 
ENDBRANCH  17  19
BRANCH  17  20
ATOM     20  C   UNL     1      -5.317  -0.522  -0.751  0.00  0.00    +0.000 C 
ATOM     21  C   UNL     1      -4.644  -1.869  -0.829  0.00  0.00    +0.000 C 
ENDBRANCH  17  20
ENDBRANCH   1  17
TORSDOF 4
