REMARK  Name = 
REMARK  3 active torsions:
REMARK  status: ('A' for Active; 'I' for Inactive)
REMARK    1  A    between atoms: C_4  and  N_5
REMARK    2  A    between atoms: N_5  and  N_6
REMARK    3  A    between atoms: C_7  and  C_9
REMARK                            x       y       z     vdW  Elec       q    Type
REMARK                         _______ _______ _______ _____ _____    ______ ____
ROOT
ATOM      1  N   UNL     1      -0.288   0.484  -1.245  0.00  0.00    +0.000 NA
ATOM      2  C   UNL     1       0.594   0.862  -0.196  0.00  0.00    +0.000 C 
ATOM      3  O   UNL     1       0.154   1.649   0.662  0.00  0.00    +0.000 OA
ENDROOT
BRANCH   2   4
ATOM      4  C   UNL     1       1.960   0.346  -0.130  0.00  0.00    +0.000 A 
ATOM      5  C   UNL     1       2.436  -0.526  -1.083  0.00  0.00    +0.000 A 
ATOM      6  C   UNL     1       3.727  -1.026  -1.034  0.00  0.00    +0.000 A 
ATOM      7 CL   UNL     1       4.368  -2.131  -2.222  0.00  0.00    +0.000 Cl
ATOM      8  C   UNL     1       4.527  -0.624   0.002  0.00  0.00    +0.000 A 
ATOM      9  C   UNL     1       4.062   0.249   0.964  0.00  0.00    +0.000 A 
ATOM     10  C   UNL     1       2.767   0.737   0.894  0.00  0.00    +0.000 A 
ATOM     11  O   UNL     1       2.259   1.621   1.849  0.00  0.00    +0.000 OA
ENDBRANCH   2   4
BRANCH   1  12
ATOM     12  N   UNL     1      -1.596   1.004  -1.270  0.00  0.00    +0.000 NA
BRANCH  12  16
ATOM     13  C   UNL     1      -3.338  -1.897   1.034  0.00  0.00    +0.000 C 
ATOM     14  C   UNL     1      -3.448  -0.450   1.768  0.00  0.00    +0.000 C 
ATOM     15  C   UNL     1      -2.437   0.328   0.826  0.00  0.00    +0.000 C 
ATOM     16  C   UNL     1      -2.524   0.290  -0.440  0.00  0.00    +0.000 C 
ATOM     17  C   UNL     1      -3.579  -0.484  -1.143  0.00  0.00    +0.000 C 
ATOM     18  C   UNL     1      -4.861  -0.477  -0.355  0.00  0.00    +0.000 C 
ATOM     19  C   UNL     1      -4.782   0.043   0.997  0.00  0.00    +0.000 C 
ENDBRANCH  12  16
ENDBRANCH   1  12
TORSDOF 3
