REMARK  Name = 
REMARK  0 active torsions:
REMARK  status: ('A' for Active; 'I' for Inactive)
REMARK                            x       y       z     vdW  Elec       q    Type
REMARK                         _______ _______ _______ _____ _____    ______ ____
ROOT
ATOM      1  C   UNL     1       1.921   0.867   1.281  0.00  0.00    +0.000 C 
ATOM      2  C   UNL     1       2.395  -0.250   0.552  0.00  0.00    +0.000 C 
ATOM      3  C   UNL     1       2.084  -1.614   0.796  0.00  0.00    +0.000 C 
ATOM      4  C   UNL     1       0.571  -1.683   0.750  0.00  0.00    +0.000 C 
ATOM      5  C   UNL     1      -0.036  -0.630  -0.122  0.00  0.00    +0.000 C 
ATOM      6  C   UNL     1       0.605   0.133  -0.943  0.00  0.00    +0.000 C 
ATOM      7  C   UNL     1      -0.024   1.131  -1.761  0.00  0.00    +0.000 C 
ATOM      8  C   UNL     1      -1.479   1.312  -1.671  0.00  0.00    +0.000 C 
ATOM      9  C   UNL     1      -2.194   0.438  -0.735  0.00  0.00    +0.000 A 
ATOM     10  C   UNL     1      -3.575   0.523  -0.573  0.00  0.00    +0.000 A 
ATOM     11  C   UNL     1      -4.223  -0.300   0.305  0.00  0.00    +0.000 A 
ATOM     12  O   UNL     1      -5.621  -0.212   0.468  0.00  0.00    +0.000 OA
ATOM     13  C   UNL     1      -3.541  -1.235   1.053  0.00  0.00    +0.000 A 
ATOM     14  C   UNL     1      -2.174  -1.340   0.911  0.00  0.00    +0.000 A 
ATOM     15  C   UNL     1      -1.514  -0.492   0.009  0.00  0.00    +0.000 A 
ATOM     16  C   UNL     1       2.154  -0.007  -1.083  0.00  0.00    +0.000 C 
ATOM     17  C   UNL     1       2.514   1.582  -0.896  0.00  0.00    +0.000 C 
ATOM     18  C   UNL     1       3.769   1.569  -0.157  0.00  0.00    +0.000 C 
ATOM     19  C   UNL     1       3.997  -0.049   0.192  0.00  0.00    +0.000 C 
ATOM     20  O   UNL     1       4.370   0.260   1.665  0.00  0.00    +0.000 OA
ENDROOT
TORSDOF 0
