REMARK  Name = 
REMARK  5 active torsions:
REMARK  status: ('A' for Active; 'I' for Inactive)
REMARK    1  A    between atoms: C_2  and  C_5
REMARK    2  A    between atoms: C_8  and  N_9
REMARK    3  A    between atoms: N_9  and  N_10
REMARK    4  A    between atoms: N_10  and  C_11
REMARK    5  A    between atoms: C_15  and  N_16
REMARK                            x       y       z     vdW  Elec       q    Type
REMARK                         _______ _______ _______ _____ _____    ______ ____
ROOT
ATOM      1  N   UNL     1       0.086   2.434  -1.275  0.00  0.00    +0.000 NA
ENDROOT
BRANCH   1   5
ATOM      2  C   UNL     1      -2.454  -0.521   0.176  0.00  0.00    +0.000 C 
ATOM      3  C   UNL     1      -3.042   0.403  -1.014  0.00  0.00    +0.000 C 
ATOM      4  C   UNL     1      -1.866   1.033  -1.674  0.00  0.00    +0.000 C 
ATOM      5  C   UNL     1      -1.090   1.742  -0.874  0.00  0.00    +0.000 C 
ATOM      6  C   UNL     1      -1.477   1.808   0.522  0.00  0.00    +0.000 C 
ATOM      7  C   UNL     1      -2.092   0.698   1.180  0.00  0.00    +0.000 C 
BRANCH   2   9
ATOM      8  C   UNL     1      -3.679  -1.680   2.041  0.00  0.00    +0.000 C 
ATOM      9  C   UNL     1      -3.902  -0.803   0.841  0.00  0.00    +0.000 C 
ATOM     10  C   UNL     1      -4.560   0.475   1.203  0.00  0.00    +0.000 C 
ATOM     11  C   UNL     1      -4.735  -1.484  -0.219  0.00  0.00    +0.000 C 
ENDBRANCH   2   9
ENDBRANCH   1   5
BRANCH   1  12
ATOM     12  N   UNL     1       1.290   2.177  -0.618  0.00  0.00    +0.000 NA
BRANCH  12  13
ATOM     13  C   UNL     1       1.689   0.809  -0.507  0.00  0.00    +0.000 A 
ATOM     14  C   UNL     1       0.940  -0.231  -1.018  0.00  0.00    +0.000 A 
ATOM     15  C   UNL     1       1.353  -1.537  -0.895  0.00  0.00    +0.000 A 
ATOM     16  C   UNL     1       2.544  -1.776  -0.242  0.00  0.00    +0.000 A 
ATOM     17  C   UNL     1       3.317  -0.761   0.280  0.00  0.00    +0.000 A 
ATOM     18  C   UNL     1       2.890   0.544   0.148  0.00  0.00    +0.000 A 
BRANCH  17  19
ATOM     19  N   UNL     1       4.555  -1.062   0.954  0.00  0.00    +0.000 N 
ATOM     20  O   UNL     1       4.926  -2.228   1.065  0.00  0.00    +0.000 OA
ATOM     21  O   UNL     1       5.308  -0.040   1.464  0.00  0.00    +0.000 OA
ENDBRANCH  17  19
ENDBRANCH  12  13
ENDBRANCH   1  12
TORSDOF 5
