REMARK  Name = 
REMARK  2 active torsions:
REMARK  status: ('A' for Active; 'I' for Inactive)
REMARK    1  A    between atoms: C_4  and  N_5
REMARK    2  A    between atoms: N_5  and  C_6
REMARK                            x       y       z     vdW  Elec       q    Type
REMARK                         _______ _______ _______ _____ _____    ______ ____
ROOT
ATOM      1  C   UNL     1      -1.276  -0.684   3.146  0.00  0.00    +0.000 C 
ATOM      2  C   UNL     1      -1.294  -0.238   1.732  0.00  0.00    +0.000 A 
ATOM      3  C   UNL     1      -0.130  -0.276   0.959  0.00  0.00    +0.000 A 
ATOM      4  C   UNL     1      -0.150   0.138  -0.355  0.00  0.00    +0.000 A 
ATOM      5  C   UNL     1      -1.339   0.587  -0.876  0.00  0.00    +0.000 A 
ATOM      6  C   UNL     1      -1.427   1.017  -2.189  0.00  0.00    +0.000 A 
ATOM      7  C   UNL     1      -2.626   1.470  -2.720  0.00  0.00    +0.000 A 
ATOM      8  C   UNL     1      -3.743   1.496  -1.941  0.00  0.00    +0.000 A 
ATOM      9  C   UNL     1      -3.703   1.081  -0.643  0.00  0.00    +0.000 A 
ATOM     10  C   UNL     1      -4.898   1.088   0.252  0.00  0.00    +0.000 C 
ATOM     11  C   UNL     1      -2.506   0.632  -0.123  0.00  0.00    +0.000 A 
ATOM     12  N   UNL     1      -2.431   0.209   1.172  0.00  0.00    +0.000 NA
ENDROOT
BRANCH   4  13
ATOM     13  N   UNL     1       1.033   0.091  -1.112  0.00  0.00    +0.000 NA
BRANCH  13  14
ATOM     14  C   UNL     1       2.277  -0.366  -0.604  0.00  0.00    +0.000 A 
ATOM     15  C   UNL     1       3.421  -0.401  -1.371  0.00  0.00    +0.000 A 
ATOM     16  C   UNL     1       4.620  -0.855  -0.839  0.00  0.00    +0.000 A 
ATOM     17  C   UNL     1       4.704  -1.286   0.478  0.00  0.00    +0.000 A 
ATOM     18  C   UNL     1       3.547  -1.243   1.230  0.00  0.00    +0.000 A 
ATOM     19  O   UNL     1       3.574  -1.668   2.571  0.00  0.00    +0.000 OA
ATOM     20  C   UNL     1       2.347  -0.792   0.706  0.00  0.00    +0.000 A 
ENDBRANCH  13  14
ENDBRANCH   4  13
TORSDOF 2
