REMARK  Name = 
REMARK  2 active torsions:
REMARK  status: ('A' for Active; 'I' for Inactive)
REMARK    1  A    between atoms: O_2  and  C_3
REMARK    2  A    between atoms: C_5  and  C_6
REMARK                            x       y       z     vdW  Elec       q    Type
REMARK                         _______ _______ _______ _____ _____    ______ ____
ROOT
ATOM      1  C   UNL     1       0.299  -0.919  -0.933  0.00  0.00    +0.000 C 
ATOM      2  C   UNL     1      -0.944  -0.626  -0.686  0.00  0.00    +0.000 C 
ATOM      3  C   UNL     1      -1.410   0.444   0.218  0.00  0.00    +0.000 C 
ATOM      4  C   UNL     1      -2.899   0.380   0.122  0.00  0.00    +0.000 A 
ATOM      5  C   UNL     1      -3.869   1.149   0.739  0.00  0.00    +0.000 A 
ATOM      6  C   UNL     1      -5.194   0.877   0.488  0.00  0.00    +0.000 A 
ATOM      7  C   UNL     1      -5.609  -0.137  -0.358  0.00  0.00    +0.000 A 
ATOM      8  C   UNL     1      -4.626  -0.882  -0.957  0.00  0.00    +0.000 A 
ATOM      9  C   UNL     1      -3.295  -0.628  -0.719  0.00  0.00    +0.000 A 
ATOM     10  C   UNL     1      -2.113  -1.313  -1.270  0.00  0.00    +0.000 C 
ATOM     11  O   UNL     1      -2.100  -2.264  -2.058  0.00  0.00    +0.000 OA
ENDROOT
BRANCH   1  14
ATOM     12  C   UNL     1       3.623  -0.377   0.595  0.00  0.00    +0.000 A 
ATOM     13  C   UNL     1       2.521  -0.932   0.022  0.00  0.00    +0.000 A 
ATOM     14  C   UNL     1       1.398  -0.199  -0.323  0.00  0.00    +0.000 A 
ATOM     15  C   UNL     1       1.430   1.135  -0.065  0.00  0.00    +0.000 A 
ATOM     16  C   UNL     1       2.511   1.775   0.515  0.00  0.00    +0.000 A 
ATOM     17 CL   UNL     1       2.493   3.510   0.830  0.00  0.00    +0.000 Cl
ATOM     18  C   UNL     1       3.601   0.998   0.838  0.00  0.00    +0.000 A 
ATOM     19  O   UNL     1       4.681   1.633   1.417  0.00  0.00    +0.000 OA
BRANCH  12  21
ATOM     20  C   UNL     1       4.760  -2.506   0.683  0.00  0.00    +0.000 C 
ATOM     21  O   UNL     1       4.742  -1.117   0.934  0.00  0.00    +0.000 OA
ENDBRANCH  12  21
ENDBRANCH   1  14
TORSDOF 2
