REMARK  Name = 
REMARK  6 active torsions:
REMARK  status: ('A' for Active; 'I' for Inactive)
REMARK    1  A    between atoms: C_2  and  C_3
REMARK    2  A    between atoms: C_3  and  N_4
REMARK    3  A    between atoms: C_7  and  C_8
REMARK    4  A    between atoms: C_11  and  C_12
REMARK    5  A    between atoms: N_19  and  C_20
REMARK    6  A    between atoms: C_20  and  C_21
REMARK                            x       y       z     vdW  Elec       q    Type
REMARK                         _______ _______ _______ _____ _____    ______ ____
ROOT
ATOM      1  N   UNL     1      -0.399  -0.143  -0.252  0.00  0.00    +0.000 NA
ATOM      2  C   UNL     1      -0.871   0.128   1.038  0.00  0.00    +0.000 C 
ATOM      3  C   UNL     1      -0.195  -0.975   1.811  0.00  0.00    +0.000 C 
ATOM      4  C   UNL     1      -0.767  -2.273   0.882  0.00  0.00    +0.000 C 
ATOM      5  C   UNL     1      -0.276  -1.502  -0.529  0.00  0.00    +0.000 C 
ENDROOT
BRANCH   4   6
ATOM      6  C   UNL     1      -2.276  -1.622   0.823  0.00  0.00    +0.000 A 
ATOM      7  N   UNL     1      -3.004  -1.554   1.969  0.00  0.00    +0.000 NA
ATOM      8  O   UNL     1      -4.081  -0.938   1.601  0.00  0.00    +0.000 OA
ATOM      9  C   UNL     1      -4.055  -0.626   0.328  0.00  0.00    +0.000 A 
ATOM     10  N   UNL     1      -2.892  -1.082  -0.121  0.00  0.00    +0.000 NA
BRANCH   9  11
ATOM     11  C   UNL     1      -5.093   0.086  -0.374  0.00  0.00    +0.000 A 
ATOM     12  C   UNL     1      -5.216   0.190  -1.755  0.00  0.00    +0.000 A 
ATOM     13  C   UNL     1      -6.366   0.986  -1.999  0.00  0.00    +0.000 A 
ATOM     14  C   UNL     1      -6.842   1.294  -0.751  0.00  0.00    +0.000 A 
ATOM     15  O   UNL     1      -6.091   0.763   0.186  0.00  0.00    +0.000 OA
ENDBRANCH   9  11
ENDBRANCH   4   6
BRANCH   1  16
ATOM     16  C   UNL     1       0.254   0.806  -1.022  0.00  0.00    +0.000 C 
BRANCH  16  18
ATOM     17  O   UNL     1       1.894   0.508   0.675  0.00  0.00    +0.000 OA
ATOM     18  C   UNL     1       1.673   1.092  -0.445  0.00  0.00    +0.000 C 
ATOM     19  N   UNL     1       2.616   1.848  -1.024  0.00  0.00    +0.000 NA
BRANCH  19  20
ATOM     20  C   UNL     1       3.962   2.276  -0.822  0.00  0.00    +0.000 C 
BRANCH  20  21
ATOM     21  C   UNL     1       4.652   1.050  -0.225  0.00  0.00    +0.000 A 
ATOM     22  C   UNL     1       4.552   0.756   1.077  0.00  0.00    +0.000 A 
ATOM     23  C   UNL     1       5.337  -0.333   1.592  0.00  0.00    +0.000 A 
ATOM     24  C   UNL     1       6.173  -1.041   0.756  0.00  0.00    +0.000 A 
ATOM     25  C   UNL     1       6.281  -0.729  -0.626  0.00  0.00    +0.000 A 
ATOM     26  C   UNL     1       5.505   0.315  -1.052  0.00  0.00    +0.000 A 
ATOM     27  F   UNL     1       5.525   0.720  -2.415  0.00  0.00    +0.000 F 
ENDBRANCH  20  21
ENDBRANCH  19  20
ENDBRANCH  16  18
ENDBRANCH   1  16
TORSDOF 6
