REMARK  Name = 
REMARK  5 active torsions:
REMARK  status: ('A' for Active; 'I' for Inactive)
REMARK    1  A    between atoms: O_2  and  C_3
REMARK    2  A    between atoms: C_3  and  C_5
REMARK    3  A    between atoms: C_9  and  C_10
REMARK    4  A    between atoms: N_12  and  C_13
REMARK    5  A    between atoms: C_13  and  C_14
REMARK                            x       y       z     vdW  Elec       q    Type
REMARK                         _______ _______ _______ _____ _____    ______ ____
ROOT
ATOM      1  C   UNL     1      -2.584   0.036   0.238  0.00  0.00    +0.000 A 
ATOM      2  C   UNL     1      -2.439  -1.330   0.469  0.00  0.00    +0.000 A 
ATOM      3  C   UNL     1      -3.528  -2.350   0.421  0.00  0.00    +0.000 C 
ATOM      4  N   UNL     1      -1.147  -1.586   0.744  0.00  0.00    +0.000 NA
ATOM      5  C   UNL     1      -0.416  -0.457   0.710  0.00  0.00    +0.000 A 
ATOM      6  C   UNL     1      -1.312   0.547   0.396  0.00  0.00    +0.000 A 
ATOM      7  C   UNL     1      -0.930   1.974   0.253  0.00  0.00    +0.000 C 
ENDROOT
BRANCH   5   8
ATOM      8  C   UNL     1       1.023  -0.321   0.954  0.00  0.00    +0.000 C 
ATOM      9  O   UNL     1       1.686  -1.353   1.230  0.00  0.00    +0.000 OA
ATOM     10  N   UNL     1       1.703   0.909   0.896  0.00  0.00    +0.000 NA
BRANCH  10  11
ATOM     11  C   UNL     1       3.125   1.065   1.134  0.00  0.00    +0.000 C 
BRANCH  11  12
ATOM     12  C   UNL     1       3.930   0.273   0.173  0.00  0.00    +0.000 A 
ATOM     13  C   UNL     1       3.452  -0.525  -0.834  0.00  0.00    +0.000 A 
ATOM     14  C   UNL     1       4.583  -1.048  -1.450  0.00  0.00    +0.000 A 
ATOM     15  C   UNL     1       5.671  -0.533  -0.776  0.00  0.00    +0.000 A 
ATOM     16  O   UNL     1       5.235   0.249   0.183  0.00  0.00    +0.000 OA
ENDBRANCH  11  12
ENDBRANCH  10  11
ENDBRANCH   5   8
BRANCH   1  17
ATOM     17  C   UNL     1      -3.824   0.737  -0.094  0.00  0.00    +0.000 C 
ATOM     18  O   UNL     1      -4.557   1.199   0.824  0.00  0.00    +0.000 OA
BRANCH  17  20
ATOM     19  C   UNL     1      -5.439   1.600  -1.668  0.00  0.00    +0.000 C 
ATOM     20  O   UNL     1      -4.230   0.914  -1.409  0.00  0.00    +0.000 OA
ENDBRANCH  17  20
ENDBRANCH   1  17
TORSDOF 5
