REMARK  Name = 
REMARK  2 active torsions:
REMARK  status: ('A' for Active; 'I' for Inactive)
REMARK    1  A    between atoms: C_5  and  C_6
REMARK    2  A    between atoms: C_11  and  N_12
REMARK                            x       y       z     vdW  Elec       q    Type
REMARK                         _______ _______ _______ _____ _____    ______ ____
ROOT
ATOM      1  C   UNL     1       0.243  -0.532  -0.123  0.00  0.00    +0.000 A 
ATOM      2  C   UNL     1       0.566  -1.846  -0.041  0.00  0.00    +0.000 A 
ATOM      3  C   UNL     1       1.893  -2.219  -0.058  0.00  0.00    +0.000 A 
ATOM      4  C   UNL     1       2.918  -1.296  -0.156  0.00  0.00    +0.000 A 
ATOM      5  C   UNL     1       4.325  -1.754  -0.173  0.00  0.00    +0.000 C 
ATOM      6  C   UNL     1       2.574   0.035  -0.237  0.00  0.00    +0.000 A 
ATOM      7  C   UNL     1       1.247   0.401  -0.221  0.00  0.00    +0.000 A 
ATOM      8  C   UNL     1       0.881   1.847  -0.310  0.00  0.00    +0.000 C 
ENDROOT
BRANCH   1  13
ATOM      9  C   UNL     1      -5.170   1.377  -0.038  0.00  0.00    +0.000 C 
ATOM     10  C   UNL     1      -3.771   0.877  -0.062  0.00  0.00    +0.000 A 
ATOM     11  C   UNL     1      -2.796   1.472   0.712  0.00  0.00    +0.000 A 
ATOM     12  C   UNL     1      -1.505   0.997   0.673  0.00  0.00    +0.000 A 
ATOM     13  C   UNL     1      -1.140  -0.061  -0.116  0.00  0.00    +0.000 A 
ATOM     14  C   UNL     1      -2.113  -0.647  -0.882  0.00  0.00    +0.000 A 
ATOM     15  C   UNL     1      -1.787  -1.794  -1.756  0.00  0.00    +0.000 C 
ATOM     16  C   UNL     1      -3.415  -0.198  -0.869  0.00  0.00    +0.000 A 
ATOM     17  N   UNL     1      -4.457  -0.778  -1.649  0.00  0.00    +0.000 NA
ENDBRANCH   1  13
BRANCH   6  18
ATOM     18  N   UNL     1       3.543   1.051  -0.339  0.00  0.00    +0.000 N 
ATOM     19  O   UNL     1       4.230   1.370   0.639  0.00  0.00    +0.000 OA
ATOM     20  O   UNL     1       3.736   1.699  -1.523  0.00  0.00    +0.000 OA
ENDBRANCH   6  18
TORSDOF 2
