REMARK  Name = 
REMARK  3 active torsions:
REMARK  status: ('A' for Active; 'I' for Inactive)
REMARK    1  A    between atoms: C_2  and  C_5
REMARK    2  A    between atoms: N_9  and  C_10
REMARK    3  A    between atoms: C_13  and  N_14
REMARK                            x       y       z     vdW  Elec       q    Type
REMARK                         _______ _______ _______ _____ _____    ______ ____
ROOT
ATOM      1  C   UNL     1       2.901   0.032   0.027  0.00  0.00    +0.000 A 
ATOM      2  C   UNL     1       2.785  -1.335   0.031  0.00  0.00    +0.000 A 
ATOM      3  C   UNL     1       1.416  -1.625   0.038  0.00  0.00    +0.000 A 
ATOM      4  N   UNL     1       0.822  -2.941   0.044  0.00  0.00    +0.000 NA
ATOM      5  N   UNL     1       0.781  -0.467   0.036  0.00  0.00    +0.000 N 
ATOM      6  N   UNL     1       1.665   0.536   0.030  0.00  0.00    +0.000 NA
ENDROOT
BRANCH   5   7
ATOM      7  C   UNL     1      -0.631  -0.271   0.030  0.00  0.00    +0.000 A 
ATOM      8  C   UNL     1      -1.291   0.033  -1.144  0.00  0.00    +0.000 A 
ATOM      9  C   UNL     1      -2.650   0.250  -1.153  0.00  0.00    +0.000 A 
ATOM     10  C   UNL     1      -3.426   0.180  -0.006  0.00  0.00    +0.000 A 
ATOM     11  C   UNL     1      -2.762  -0.126   1.165  0.00  0.00    +0.000 A 
ATOM     12  C   UNL     1      -1.397  -0.344   1.177  0.00  0.00    +0.000 A 
BRANCH  10  13
ATOM     13  N   UNL     1      -4.837   0.425  -0.052  0.00  0.00    +0.000 N 
ATOM     14  O   UNL     1      -5.504   0.360   0.995  0.00  0.00    +0.000 OA
ATOM     15  O   UNL     1      -5.468   0.720  -1.208  0.00  0.00    +0.000 OA
ENDBRANCH  10  13
ENDBRANCH   5   7
BRANCH   1  17
ATOM     16  C   UNL     1       4.220   1.630   1.360  0.00  0.00    +0.000 C 
ATOM     17  C   UNL     1       4.120   0.905   0.013  0.00  0.00    +0.000 C 
ATOM     18  C   UNL     1       3.898   1.938  -1.103  0.00  0.00    +0.000 C 
ATOM     19  C   UNL     1       5.358   0.100  -0.281  0.00  0.00    +0.000 C 
ENDBRANCH   1  17
TORSDOF 3
