REMARK  Name = 
REMARK  2 active torsions:
REMARK  status: ('A' for Active; 'I' for Inactive)
REMARK    1  A    between atoms: C_2  and  C_4
REMARK    2  A    between atoms: C_9  and  C_10
REMARK                            x       y       z     vdW  Elec       q    Type
REMARK                         _______ _______ _______ _____ _____    ______ ____
ROOT
ATOM      1  C   UNL     1      -0.220  -0.653   0.055  0.00  0.00    +0.000 A 
ATOM      2  C   UNL     1      -0.085  -1.956  -0.491  0.00  0.00    +0.000 A 
ATOM      3  C   UNL     1      -1.150  -2.669  -1.012  0.00  0.00    +0.000 A 
ATOM      4  C   UNL     1      -2.408  -2.057  -0.980  0.00  0.00    +0.000 A 
ATOM      5  C   UNL     1      -2.550  -0.776  -0.445  0.00  0.00    +0.000 A 
ATOM      6  C   UNL     1      -3.777  -0.179  -0.423  0.00  0.00    +0.000 A 
ATOM      7  C   UNL     1      -3.974   1.063   0.072  0.00  0.00    +0.000 A 
ATOM      8  C   UNL     1      -2.891   1.799   0.589  0.00  0.00    +0.000 A 
ATOM      9  C   UNL     1      -1.655   1.224   0.579  0.00  0.00    +0.000 A 
ATOM     10  C   UNL     1      -1.450  -0.066   0.072  0.00  0.00    +0.000 A 
ENDROOT
BRANCH   1  16
ATOM     11  C   UNL     1       1.978   0.515  -0.157  0.00  0.00    +0.000 A 
ATOM     12  N   UNL     1       2.974   0.813   0.692  0.00  0.00    +0.000 NA
ATOM     13  C   UNL     1       2.587   0.350   1.924  0.00  0.00    +0.000 A 
ATOM     14  N   UNL     1       3.278   0.381   3.170  0.00  0.00    +0.000 NA
ATOM     15  O   UNL     1       1.387  -0.200   1.798  0.00  0.00    +0.000 OA
ATOM     16  C   UNL     1       1.014  -0.120   0.563  0.00  0.00    +0.000 A 
BRANCH  11  18
ATOM     17  C   UNL     1       2.060  -0.243  -2.522  0.00  0.00    +0.000 C 
ATOM     18  C   UNL     1       1.829   0.922  -1.562  0.00  0.00    +0.000 C 
ATOM     19  C   UNL     1       3.052   1.852  -1.922  0.00  0.00    +0.000 C 
ENDBRANCH  11  18
ENDBRANCH   1  16
TORSDOF 2
