REMARK  Name = 
REMARK  2 active torsions:
REMARK  status: ('A' for Active; 'I' for Inactive)
REMARK    1  A    between atoms: C_7  and  N_8
REMARK    2  A    between atoms: C_9  and  C_11
REMARK                            x       y       z     vdW  Elec       q    Type
REMARK                         _______ _______ _______ _____ _____    ______ ____
ROOT
ATOM      1  N   UNL     1      -1.696   0.653   0.467  0.00  0.00    +0.000 NA
ATOM      2  C   UNL     1      -0.642  -0.135   0.928  0.00  0.00    +0.000 C 
ATOM      3  O   UNL     1      -1.002  -1.071   1.697  0.00  0.00    +0.000 OA
ENDROOT
BRANCH   2   4
ATOM      4  C   UNL     1       0.767   0.076   0.568  0.00  0.00    +0.000 A 
ATOM      5  N   UNL     1       1.332   0.998  -0.202  0.00  0.00    +0.000 NA
ATOM      6  C   UNL     1       2.679   0.773  -0.215  0.00  0.00    +0.000 A 
ATOM      7  C   UNL     1       3.744   1.395  -0.824  0.00  0.00    +0.000 A 
ATOM      8  C   UNL     1       5.019   0.903  -0.626  0.00  0.00    +0.000 A 
ATOM      9  C   UNL     1       5.290  -0.195   0.160  0.00  0.00    +0.000 A 
ATOM     10  C   UNL     1       4.218  -0.817   0.772  0.00  0.00    +0.000 A 
ATOM     11  C   UNL     1       2.943  -0.328   0.577  0.00  0.00    +0.000 A 
ATOM     12  N   UNL     1       1.740  -0.725   1.038  0.00  0.00    +0.000 NA
ENDBRANCH   2   4
BRANCH   1  19
ATOM     13  C   UNL     1      -3.215   2.096  -0.829  0.00  0.00    +0.000 C 
ATOM     14  C   UNL     1      -3.935   0.692  -0.564  0.00  0.00    +0.000 C 
ATOM     15  C   UNL     1      -3.013  -0.188  -1.542  0.00  0.00    +0.000 C 
ATOM     16  C   UNL     1      -3.800  -1.503  -1.568  0.00  0.00    +0.000 C 
ATOM     17  C   UNL     1      -4.189  -1.740  -0.112  0.00  0.00    +0.000 C 
ATOM     18  C   UNL     1      -3.094  -1.243   0.710  0.00  0.00    +0.000 C 
ATOM     19  C   UNL     1      -3.147   0.360   0.898  0.00  0.00    +0.000 C 
ENDBRANCH   1  19
TORSDOF 2
