REMARK  Name = 
REMARK  4 active torsions:
REMARK  status: ('A' for Active; 'I' for Inactive)
REMARK    1  A    between atoms: C_7  and  C_8
REMARK    2  A    between atoms: N_9  and  N_10
REMARK    3  A    between atoms: N_10  and  C_11
REMARK    4  A    between atoms: C_15  and  N_16
REMARK                            x       y       z     vdW  Elec       q    Type
REMARK                         _______ _______ _______ _____ _____    ______ ____
ROOT
ATOM      1  C   UNL     1       0.858   0.062  -0.058  0.00  0.00    +0.000 C 
ATOM      2  N   UNL     1       0.521   1.287  -0.146  0.00  0.00    +0.000 NA
ENDROOT
BRANCH   1   9
ATOM      3  C   UNL     1       5.514   1.167   0.585  0.00  0.00    +0.000 C 
ATOM      4  C   UNL     1       4.436   0.079   0.457  0.00  0.00    +0.000 C 
ATOM      5  C   UNL     1       3.938  -0.514   1.647  0.00  0.00    +0.000 C 
ATOM      6  C   UNL     1       4.980  -0.917  -0.677  0.00  0.00    +0.000 C 
ATOM      7  C   UNL     1       3.961  -2.167  -0.329  0.00  0.00    +0.000 C 
ATOM      8  C   UNL     1       2.633  -1.629  -0.163  0.00  0.00    +0.000 C 
ATOM      9  C   UNL     1       2.201  -0.434  -0.231  0.00  0.00    +0.000 C 
ATOM     10  C   UNL     1       3.335   0.673  -0.560  0.00  0.00    +0.000 C 
ATOM     11  C   UNL     1       3.990  -0.241  -1.759  0.00  0.00    +0.000 C 
ENDBRANCH   1   9
BRANCH   2  12
ATOM     12  N   UNL     1      -0.813   1.627   0.045  0.00  0.00    +0.000 NA
BRANCH  12  13
ATOM     13  C   UNL     1      -1.870   0.660  -0.088  0.00  0.00    +0.000 A 
ATOM     14  C   UNL     1      -1.647  -0.650  -0.409  0.00  0.00    +0.000 A 
ATOM     15  C   UNL     1      -2.696  -1.542  -0.526  0.00  0.00    +0.000 A 
ATOM     16  C   UNL     1      -3.973  -1.090  -0.314  0.00  0.00    +0.000 A 
ATOM     17  C   UNL     1      -4.250   0.224   0.012  0.00  0.00    +0.000 A 
ATOM     18  C   UNL     1      -3.164   1.089   0.120  0.00  0.00    +0.000 A 
BRANCH  17  19
ATOM     19  N   UNL     1      -5.588   0.673   0.228  0.00  0.00    +0.000 N 
ATOM     20  O   UNL     1      -5.765   1.865   0.518  0.00  0.00    +0.000 OA
ATOM     21  O   UNL     1      -6.600  -0.221   0.108  0.00  0.00    +0.000 OA
ENDBRANCH  17  19
ENDBRANCH  12  13
ENDBRANCH   2  12
TORSDOF 4
