REMARK  Name = 
REMARK  5 active torsions:
REMARK  status: ('A' for Active; 'I' for Inactive)
REMARK    1  A    between atoms: C_2  and  C_9
REMARK    2  A    between atoms: N_3  and  C_4
REMARK    3  A    between atoms: C_4  and  C_5
REMARK    4  A    between atoms: C_5  and  C_6
REMARK    5  A    between atoms: C_6  and  C_7
REMARK                            x       y       z     vdW  Elec       q    Type
REMARK                         _______ _______ _______ _____ _____    ______ ____
ROOT
ATOM      1  C   UNL     1      -0.081   0.160  -0.029  0.00  0.00    +0.000 A 
ATOM      2  C   UNL     1      -0.172   1.513  -0.272  0.00  0.00    +0.000 A 
ATOM      3  C   UNL     1      -1.393   2.126  -0.443  0.00  0.00    +0.000 A 
ATOM      4  C   UNL     1      -2.568   1.386  -0.374  0.00  0.00    +0.000 A 
ATOM      5  C   UNL     1      -2.446   0.047  -0.132  0.00  0.00    +0.000 A 
ATOM      6  C   UNL     1      -3.654  -0.577  -0.085  0.00  0.00    +0.000 A 
ATOM      7  C   UNL     1      -3.608  -1.955   0.160  0.00  0.00    +0.000 A 
ATOM      8  C   UNL     1      -2.414  -2.622   0.340  0.00  0.00    +0.000 A 
ATOM      9  C   UNL     1      -1.214  -1.934   0.281  0.00  0.00    +0.000 A 
ATOM     10  C   UNL     1      -1.246  -0.575   0.040  0.00  0.00    +0.000 A 
ATOM     11  C   UNL     1      -4.720   0.399  -0.313  0.00  0.00    +0.000 C 
ATOM     12  C   UNL     1      -4.007   1.712  -0.507  0.00  0.00    +0.000 C 
ENDROOT
BRANCH   1  14
ATOM     13  O   UNL     1       1.300  -1.712  -0.286  0.00  0.00    +0.000 OA
ATOM     14  C   UNL     1       1.167  -0.554   0.162  0.00  0.00    +0.000 C 
ATOM     15  N   UNL     1       2.220   0.083   0.860  0.00  0.00    +0.000 NA
BRANCH  15  16
ATOM     16  C   UNL     1       3.493  -0.576   1.084  0.00  0.00    +0.000 C 
BRANCH  16  17
ATOM     17  C   UNL     1       4.150  -0.935  -0.254  0.00  0.00    +0.000 C 
BRANCH  17  18
ATOM     18  C   UNL     1       4.387   0.336  -1.069  0.00  0.00    +0.000 C 
BRANCH  18  19
ATOM     19  C   UNL     1       5.308   1.271  -0.279  0.00  0.00    +0.000 C 
ATOM     20  O   UNL     1       5.499   2.408  -1.049  0.00  0.00    +0.000 OA
ENDBRANCH  18  19
ENDBRANCH  17  18
ENDBRANCH  16  17
ENDBRANCH  15  16
ENDBRANCH   1  14
TORSDOF 5
