REMARK  Name = 
REMARK  2 active torsions:
REMARK  status: ('A' for Active; 'I' for Inactive)
REMARK    1  A    between atoms: C_7  and  C_8
REMARK    2  A    between atoms: N_10  and  N_11
REMARK                            x       y       z     vdW  Elec       q    Type
REMARK                         _______ _______ _______ _____ _____    ______ ____
ROOT
ATOM      1  N   UNL     1      -0.628   0.804   1.103  0.00  0.00    +0.000 NA
ATOM      2  C   UNL     1      -1.729   0.459   0.547  0.00  0.00    +0.000 C 
ATOM      3  C   UNL     1      -1.742  -0.743  -0.317  0.00  0.00    +0.000 C 
ATOM      4  C   UNL     1      -2.204  -0.250  -1.688  0.00  0.00    +0.000 C 
ATOM      5  C   UNL     1      -3.561   0.361  -1.560  0.00  0.00    +0.000 C 
ATOM      6  C   UNL     1      -4.578  -0.599  -0.982  0.00  0.00    +0.000 C 
ATOM      7  C   UNL     1      -4.102  -0.988   0.409  0.00  0.00    +0.000 C 
ATOM      8  C   UNL     1      -2.782  -1.684   0.276  0.00  0.00    +0.000 C 
ATOM      9  C   UNL     1      -3.988   0.202   1.316  0.00  0.00    +0.000 C 
ATOM     10  C   UNL     1      -3.000   1.194   0.718  0.00  0.00    +0.000 C 
ATOM     11  C   UNL     1      -3.508   1.581  -0.678  0.00  0.00    +0.000 C 
ENDROOT
BRANCH   1  14
ATOM     12  C   UNL     1       1.609   0.628   0.128  0.00  0.00    +0.000 C 
ATOM     13  O   UNL     1       1.399   1.711  -0.474  0.00  0.00    +0.000 OA
ATOM     14  N   UNL     1       0.569   0.132   0.956  0.00  0.00    +0.000 NA
BRANCH  12  21
ATOM     15  N   UNL     1       3.638   1.651  -1.524  0.00  0.00    +0.000 NA
ATOM     16  C   UNL     1       3.872   0.426  -0.843  0.00  0.00    +0.000 A 
ATOM     17  C   UNL     1       5.075  -0.220  -1.009  0.00  0.00    +0.000 A 
ATOM     18  C   UNL     1       5.321  -1.407  -0.357  0.00  0.00    +0.000 A 
ATOM     19  C   UNL     1       4.338  -1.924   0.457  0.00  0.00    +0.000 A 
ATOM     20  C   UNL     1       3.125  -1.262   0.618  0.00  0.00    +0.000 A 
ATOM     21  C   UNL     1       2.876  -0.073  -0.034  0.00  0.00    +0.000 A 
ENDBRANCH  12  21
ENDBRANCH   1  14
TORSDOF 2
