REMARK  Name = 
REMARK  3 active torsions:
REMARK  status: ('A' for Active; 'I' for Inactive)
REMARK    1  A    between atoms: C_2  and  C_3
REMARK    2  A    between atoms: C_2  and  C_15
REMARK    3  A    between atoms: C_3  and  C_4
REMARK                            x       y       z     vdW  Elec       q    Type
REMARK                         _______ _______ _______ _____ _____    ______ ____
ROOT
ATOM      1  C   UNL     1      -0.515  -0.135   1.026  0.00  0.00    +0.000 C 
ENDROOT
BRANCH   1   2
ATOM      2  C   UNL     1       0.864   0.324   0.687  0.00  0.00    +0.000 A 
ATOM      3  C   UNL     1       1.361   1.535   1.120  0.00  0.00    +0.000 A 
ATOM      4  C   UNL     1       2.635   1.963   0.810  0.00  0.00    +0.000 A 
ATOM      5  C   UNL     1       3.473   1.190   0.046  0.00  0.00    +0.000 A 
ATOM      6  C   UNL     1       2.984  -0.022  -0.392  0.00  0.00    +0.000 A 
ATOM      7  C   UNL     1       1.711  -0.453  -0.083  0.00  0.00    +0.000 A 
ATOM      8  O   UNL     1       3.695  -0.936  -1.177  0.00  0.00    +0.000 OA
ATOM      9  C   UNL     1       5.072  -1.060  -1.463  0.00  0.00    +0.000 C 
ATOM     10  C   UNL     1       5.731   0.272  -1.725  0.00  0.00    +0.000 C 
ATOM     11  C   UNL     1       5.942   1.062  -0.436  0.00  0.00    +0.000 C 
ATOM     12  O   UNL     1       4.728   1.757  -0.183  0.00  0.00    +0.000 OA
ENDBRANCH   1   2
BRANCH   1  14
ATOM     13  O   UNL     1      -1.024   0.988  -0.975  0.00  0.00    +0.000 OA
ATOM     14  C   UNL     1      -1.461   0.321  -0.010  0.00  0.00    +0.000 C 
BRANCH  14  15
ATOM     15  C   UNL     1      -2.886   0.039   0.025  0.00  0.00    +0.000 A 
ATOM     16  C   UNL     1      -3.752   0.474  -0.953  0.00  0.00    +0.000 A 
ATOM     17  C   UNL     1      -5.102   0.206  -0.919  0.00  0.00    +0.000 A 
ATOM     18  C   UNL     1      -5.623  -0.526   0.128  0.00  0.00    +0.000 A 
ATOM     19  O   UNL     1      -6.981  -0.811   0.188  0.00  0.00    +0.000 OA
ATOM     20  C   UNL     1      -4.779  -0.964   1.104  0.00  0.00    +0.000 A 
ATOM     21  C   UNL     1      -3.418  -0.692   1.067  0.00  0.00    +0.000 A 
ATOM     22  O   UNL     1      -2.654  -1.188   2.113  0.00  0.00    +0.000 OA
ENDBRANCH  14  15
ENDBRANCH   1  14
TORSDOF 3
