REMARK  Name = 
REMARK  2 active torsions:
REMARK  status: ('A' for Active; 'I' for Inactive)
REMARK    1  A    between atoms: C_11  and  S_12
REMARK    2  A    between atoms: S_12  and  C_13
REMARK                            x       y       z     vdW  Elec       q    Type
REMARK                         _______ _______ _______ _____ _____    ______ ____
ROOT
ATOM      1  C   UNL     1      -1.329  -0.288   2.952  0.00  0.00    +0.000 C 
ATOM      2  C   UNL     1      -1.673  -0.777   1.536  0.00  0.00    +0.000 C 
ATOM      3  C   UNL     1      -1.798  -2.298   1.676  0.00  0.00    +0.000 C 
ATOM      4  C   UNL     1      -3.000  -0.217   1.173  0.00  0.00    +0.000 C 
ATOM      5  C   UNL     1      -3.019   0.635  -0.021  0.00  0.00    +0.000 A 
ATOM      6  C   UNL     1      -4.246   1.169  -0.380  0.00  0.00    +0.000 A 
ATOM      7  C   UNL     1      -4.322   1.974  -1.491  0.00  0.00    +0.000 A 
ATOM      8  C   UNL     1      -3.189   2.235  -2.221  0.00  0.00    +0.000 A 
ATOM      9  C   UNL     1      -1.973   1.712  -1.875  0.00  0.00    +0.000 A 
ATOM     10  C   UNL     1      -1.894   0.905  -0.763  0.00  0.00    +0.000 A 
ATOM     11  C   UNL     1      -0.608   0.317  -0.347  0.00  0.00    +0.000 C 
ATOM     12  N   UNL     1      -0.583  -0.423   0.688  0.00  0.00    +0.000 NA
ENDROOT
BRANCH  11  13
ATOM     13  S   UNL     1       0.812   0.706  -1.351  0.00  0.00    +0.000 S 
BRANCH  13  14
ATOM     14  C   UNL     1       2.285  -0.063  -0.740  0.00  0.00    +0.000 A 
ATOM     15  C   UNL     1       3.462   0.154  -1.423  0.00  0.00    +0.000 A 
ATOM     16  C   UNL     1       4.663  -0.412  -1.011  0.00  0.00    +0.000 A 
ATOM     17  C   UNL     1       4.702  -1.218   0.111  0.00  0.00    +0.000 A 
ATOM     18  N   UNL     1       5.876  -1.827   0.594  0.00  0.00    +0.000 NA
ATOM     19  C   UNL     1       3.517  -1.426   0.785  0.00  0.00    +0.000 A 
ATOM     20  C   UNL     1       2.314  -0.858   0.371  0.00  0.00    +0.000 A 
ENDBRANCH  13  14
ENDBRANCH  11  13
TORSDOF 2
