REMARK  Name = 
REMARK  2 active torsions:
REMARK  status: ('A' for Active; 'I' for Inactive)
REMARK    1  A    between atoms: N_13  and  C_14
REMARK    2  A    between atoms: C_14  and  C_15
REMARK                            x       y       z     vdW  Elec       q    Type
REMARK                         _______ _______ _______ _____ _____    ______ ____
ROOT
ATOM      1  O   UNL     1      -0.277   1.782   2.549  0.00  0.00    +0.000 OA
ATOM      2  C   UNL     1       0.356   1.205   1.615  0.00  0.00    +0.000 C 
ATOM      3  N   UNL     1       1.586   0.502   1.696  0.00  0.00    +0.000 NA
ATOM      4  C   UNL     1       1.825  -0.115   0.408  0.00  0.00    +0.000 C 
ATOM      5  C   UNL     1       1.641  -1.614   0.489  0.00  0.00    +0.000 C 
ATOM      6  C   UNL     1       1.991  -2.250  -0.819  0.00  0.00    +0.000 C 
ATOM      7  C   UNL     1       3.513  -2.389  -0.884  0.00  0.00    +0.000 C 
ATOM      8  C   UNL     1       4.128  -1.291  -1.720  0.00  0.00    +0.000 C 
ATOM      9  C   UNL     1       3.445   0.042  -1.500  0.00  0.00    +0.000 C 
ATOM     10  C   UNL     1       3.236   0.262  -0.007  0.00  0.00    +0.000 C 
ATOM     11  C   UNL     1       0.816   0.465  -0.518  0.00  0.00    +0.000 C 
ATOM     12  O   UNL     1       0.818   0.325  -1.753  0.00  0.00    +0.000 OA
ATOM     13  N   UNL     1      -0.115   1.186   0.277  0.00  0.00    +0.000 N 
ENDROOT
BRANCH  13  14
ATOM     14  C   UNL     1      -1.340   1.792  -0.229  0.00  0.00    +0.000 C 
BRANCH  14  15
ATOM     15  C   UNL     1      -2.474   0.838  -0.154  0.00  0.00    +0.000 A 
ATOM     16  C   UNL     1      -3.700   1.288  -0.604  0.00  0.00    +0.000 A 
ATOM     17  C   UNL     1      -4.824   0.473  -0.576  0.00  0.00    +0.000 A 
ATOM     18  C   UNL     1      -4.733  -0.816  -0.093  0.00  0.00    +0.000 A 
ATOM     19  C   UNL     1      -3.503  -1.252   0.352  0.00  0.00    +0.000 A 
ATOM     20  C   UNL     1      -2.388  -0.434   0.322  0.00  0.00    +0.000 A 
ENDBRANCH  14  15
ENDBRANCH  13  14
TORSDOF 2
