REMARK  Name = 
REMARK  3 active torsions:
REMARK  status: ('A' for Active; 'I' for Inactive)
REMARK    1  A    between atoms: N_2  and  C_4
REMARK    2  A    between atoms: C_7  and  N_8
REMARK    3  A    between atoms: N_8  and  C_9
REMARK                            x       y       z     vdW  Elec       q    Type
REMARK                         _______ _______ _______ _____ _____    ______ ____
ROOT
ATOM      1  C   UNL     1       2.225  -0.660   0.466  0.00  0.00    +0.000 A 
ATOM      2  C   UNL     1       1.234  -1.572   0.730  0.00  0.00    +0.000 A 
ATOM      3  C   UNL     1      -0.055  -1.393   0.273  0.00  0.00    +0.000 A 
ATOM      4  C   UNL     1      -0.332  -0.270  -0.460  0.00  0.00    +0.000 A 
ATOM      5  C   UNL     1       0.644   0.659  -0.738  0.00  0.00    +0.000 A 
ATOM      6  N   UNL     1       0.318   1.766  -1.476  0.00  0.00    +0.000 NA
ATOM      7  C   UNL     1       1.262   2.661  -1.744  0.00  0.00    +0.000 A 
ATOM      8  C   UNL     1       2.549   2.498  -1.297  0.00  0.00    +0.000 A 
ATOM      9  C   UNL     1       2.933   1.407  -0.553  0.00  0.00    +0.000 A 
ATOM     10  C   UNL     1       1.920   0.473  -0.281  0.00  0.00    +0.000 A 
ENDROOT
BRANCH   1  12
ATOM     11  O   UNL     1       4.249   0.179   1.193  0.00  0.00    +0.000 OA
ATOM     12  N   UNL     1       3.565  -0.817   0.921  0.00  0.00    +0.000 N 
ATOM     13  O   UNL     1       4.075  -2.093   1.051  0.00  0.00    +0.000 OA
ENDBRANCH   1  12
BRANCH   4  14
ATOM     14  N   UNL     1      -1.666  -0.036  -0.961  0.00  0.00    +0.000 NA
BRANCH  14  15
ATOM     15  C   UNL     1      -2.671  -1.027  -0.656  0.00  0.00    +0.000 C 
ATOM     16  C   UNL     1      -3.966  -0.554  -1.284  0.00  0.00    +0.000 C 
ATOM     17  C   UNL     1      -5.117  -0.618  -0.331  0.00  0.00    +0.000 C 
ATOM     18  C   UNL     1      -4.907   0.266   0.879  0.00  0.00    +0.000 C 
ATOM     19  C   UNL     1      -3.469   0.198   1.369  0.00  0.00    +0.000 C 
ATOM     20  C   UNL     1      -2.791  -1.066   0.864  0.00  0.00    +0.000 C 
ENDBRANCH  14  15
ENDBRANCH   4  14
TORSDOF 3
