REMARK  Name = 
REMARK  5 active torsions:
REMARK  status: ('A' for Active; 'I' for Inactive)
REMARK    1  A    between atoms: C_3  and  N_4
REMARK    2  A    between atoms: N_4  and  C_5
REMARK    3  A    between atoms: C_5  and  N_7
REMARK    4  A    between atoms: C_8  and  C_10
REMARK    5  A    between atoms: C_17  and  N_18
REMARK                            x       y       z     vdW  Elec       q    Type
REMARK                         _______ _______ _______ _____ _____    ______ ____
ROOT
ATOM      1  C   UNL     1      -1.284  -0.711   2.121  0.00  0.00    +0.000 C 
ATOM      2  C   UNL     1      -1.965  -0.194   0.908  0.00  0.00    +0.000 A 
ATOM      3  C   UNL     1      -1.206   0.090  -0.212  0.00  0.00    +0.000 A 
ATOM      4  C   UNL     1      -1.813   0.571  -1.349  0.00  0.00    +0.000 A 
ATOM      5  C   UNL     1      -3.175   0.764  -1.360  0.00  0.00    +0.000 A 
ATOM      6  C   UNL     1      -3.942   0.483  -0.245  0.00  0.00    +0.000 A 
ATOM      7  C   UNL     1      -3.324   0.005   0.881  0.00  0.00    +0.000 A 
ENDROOT
BRANCH   7   8
ATOM      8  N   UNL     1      -4.135  -0.278   2.021  0.00  0.00    +0.000 N 
ATOM      9  O   UNL     1      -3.775  -1.205   2.769  0.00  0.00    +0.000 OA
ATOM     10  O   UNL     1      -5.260   0.411   2.315  0.00  0.00    +0.000 OA
ENDBRANCH   7   8
BRANCH   3  11
ATOM     11  N   UNL     1       0.198  -0.102  -0.228  0.00  0.00    +0.000 NA
BRANCH  11  12
ATOM     12  C   UNL     1       0.955   0.190  -1.365  0.00  0.00    +0.000 C 
ATOM     13  S   UNL     1       0.210   0.765  -2.699  0.00  0.00    +0.000 S 
BRANCH  12  14
ATOM     14  N   UNL     1       2.364   0.023  -1.458  0.00  0.00    +0.000 NA
ATOM     15  C   UNL     1       3.196  -0.455  -0.434  0.00  0.00    +0.000 C 
ATOM     16  O   UNL     1       2.659  -0.766   0.662  0.00  0.00    +0.000 OA
BRANCH  15  17
ATOM     17  C   UNL     1       4.664  -0.620  -0.554  0.00  0.00    +0.000 C 
ATOM     18  C   UNL     1       5.257  -1.166   0.727  0.00  0.00    +0.000 C 
ATOM     19  C   UNL     1       5.303   0.739  -0.825  0.00  0.00    +0.000 C 
ATOM     20  C   UNL     1       5.072  -1.525  -1.675  0.00  0.00    +0.000 C 
ENDBRANCH  15  17
ENDBRANCH  12  14
ENDBRANCH  11  12
ENDBRANCH   3  11
TORSDOF 5
