REMARK  Name = 
REMARK  4 active torsions:
REMARK  status: ('A' for Active; 'I' for Inactive)
REMARK    1  A    between atoms: C_2  and  C_5
REMARK    2  A    between atoms: C_5  and  C_7
REMARK    3  A    between atoms: C_7  and  C_8
REMARK    4  A    between atoms: C_12  and  C_13
REMARK                            x       y       z     vdW  Elec       q    Type
REMARK                         _______ _______ _______ _____ _____    ______ ____
ROOT
ATOM      1  C   UNL     1      -1.077   0.299   1.131  0.00  0.00    +0.000 C 
ATOM      2  C   UNL     1      -1.436   1.372   2.107  0.00  0.00    +0.000 C 
ATOM      3  N   UNL     1      -0.133  -0.593   1.735  0.00  0.00    +0.000 NA
ATOM      4  N   UNL     1       1.083  -0.687   1.216  0.00  0.00    +0.000 NA
ATOM      5  C   UNL     1       1.418  -0.020   0.218  0.00  0.00    +0.000 C 
ATOM      6  S   UNL     1      -0.032   0.960  -0.234  0.00  0.00    +0.000 S 
ENDROOT
BRANCH   5   7
ATOM      7  C   UNL     1       2.714  -0.034  -0.442  0.00  0.00    +0.000 A 
ATOM      8  C   UNL     1       2.964   0.754  -1.545  0.00  0.00    +0.000 A 
ATOM      9  C   UNL     1       4.212   0.738  -2.176  0.00  0.00    +0.000 A 
ATOM     10  C   UNL     1       5.234  -0.065  -1.720  0.00  0.00    +0.000 A 
ATOM     11  C   UNL     1       4.983  -0.852  -0.618  0.00  0.00    +0.000 A 
ATOM     12  C   UNL     1       3.741  -0.832   0.007  0.00  0.00    +0.000 A 
ATOM     13  O   UNL     1       3.558  -1.638   1.097  0.00  0.00    +0.000 OA
ENDBRANCH   5   7
BRANCH   1  14
ATOM     14  C   UNL     1      -2.243  -0.451   0.578  0.00  0.00    +0.000 C 
BRANCH  14  15
ATOM     15  C   UNL     1      -3.166   0.446  -0.131  0.00  0.00    +0.000 C 
ATOM     16  O   UNL     1      -2.917   1.628  -0.200  0.00  0.00    +0.000 OA
BRANCH  15  18
ATOM     17  C   UNL     1      -5.206  -0.761   0.373  0.00  0.00    +0.000 C 
ATOM     18  C   UNL     1      -4.388  -0.120  -0.750  0.00  0.00    +0.000 C 
ATOM     19  C   UNL     1      -4.068  -1.124  -1.835  0.00  0.00    +0.000 C 
ATOM     20  C   UNL     1      -5.241   0.981  -1.333  0.00  0.00    +0.000 C 
ENDBRANCH  15  18
ENDBRANCH  14  15
ENDBRANCH   1  14
TORSDOF 4
