REMARK  Name = 
REMARK  6 active torsions:
REMARK  status: ('A' for Active; 'I' for Inactive)
REMARK    1  A    between atoms: C_2  and  N_4
REMARK    2  A    between atoms: N_4  and  C_5
REMARK    3  A    between atoms: C_5  and  C_6
REMARK    4  A    between atoms: C_12  and  C_14
REMARK    5  A    between atoms: C_14  and  N_15
REMARK    6  A    between atoms: C_21  and  C_22
REMARK                            x       y       z     vdW  Elec       q    Type
REMARK                         _______ _______ _______ _____ _____    ______ ____
ROOT
ATOM      1  N   UNL     1      -0.220  -1.684   0.916  0.00  0.00    +0.000 N 
ATOM      2  C   UNL     1      -0.607  -3.056   1.159  0.00  0.00    +0.000 C 
ATOM      3  C   UNL     1      -1.835  -3.141   1.980  0.00  0.00    +0.000 C 
ATOM      4  N   UNL     1      -2.845  -2.208   1.585  0.00  0.00    +0.000 N 
ATOM      5  C   UNL     1      -4.201  -2.264   1.780  0.00  0.00    +0.000 A 
ATOM      6  N   UNL     1      -4.748  -1.159   1.251  0.00  0.00    +0.000 NA
ATOM      7  C   UNL     1      -3.808  -0.366   0.708  0.00  0.00    +0.000 A 
ATOM      8  C   UNL     1      -2.624  -1.054   0.935  0.00  0.00    +0.000 A 
ATOM      9  C   UNL     1      -1.227  -0.763   0.575  0.00  0.00    +0.000 C 
ATOM     10  O   UNL     1      -0.949   0.291  -0.026  0.00  0.00    +0.000 OA
ENDROOT
BRANCH   7  11
ATOM     11  C   UNL     1      -3.902   0.912   0.018  0.00  0.00    +0.000 A 
ATOM     12  C   UNL     1      -4.854   1.092  -0.960  0.00  0.00    +0.000 A 
ATOM     13  C   UNL     1      -4.983   2.282  -1.650  0.00  0.00    +0.000 A 
ATOM     14  C   UNL     1      -4.166   3.360  -1.401  0.00  0.00    +0.000 A 
ATOM     15  C   UNL     1      -3.196   3.184  -0.408  0.00  0.00    +0.000 A 
ATOM     16  C   UNL     1      -3.083   1.995   0.266  0.00  0.00    +0.000 A 
ENDBRANCH   7  11
BRANCH   1  17
ATOM     17  C   UNL     1       1.159  -1.255   1.005  0.00  0.00    +0.000 C 
BRANCH  17  19
ATOM     18  N   UNL     1       3.103  -1.140  -0.640  0.00  0.00    +0.000 N 
ATOM     19  C   UNL     1       1.755  -1.412  -0.343  0.00  0.00    +0.000 C 
ATOM     20  O   UNL     1       1.010  -1.821  -1.289  0.00  0.00    +0.000 OA
BRANCH  18  22
ATOM     21  C   UNL     1       3.160  -0.111  -2.843  0.00  0.00    +0.000 C 
ATOM     22  C   UNL     1       3.584  -1.316  -2.009  0.00  0.00    +0.000 C 
ATOM     23  C   UNL     1       2.901  -2.515  -2.650  0.00  0.00    +0.000 C 
ENDBRANCH  18  22
BRANCH  18  24
ATOM     24  C   UNL     1       4.057  -0.692   0.334  0.00  0.00    +0.000 C 
BRANCH  24  25
ATOM     25  C   UNL     1       4.198   0.758   0.287  0.00  0.00    +0.000 A 
ATOM     26  C   UNL     1       5.469   1.300   0.422  0.00  0.00    +0.000 A 
ATOM     27  C   UNL     1       5.691   2.652   0.378  0.00  0.00    +0.000 A 
ATOM     28  C   UNL     1       4.638   3.512   0.198  0.00  0.00    +0.000 A 
ATOM     29  C   UNL     1       3.371   3.003   0.062  0.00  0.00    +0.000 A 
ATOM     30  C   UNL     1       3.152   1.616   0.108  0.00  0.00    +0.000 A 
ENDBRANCH  24  25
ENDBRANCH  18  24
ENDBRANCH  17  19
ENDBRANCH   1  17
TORSDOF 6
