REMARK  Name = 
REMARK  2 active torsions:
REMARK  status: ('A' for Active; 'I' for Inactive)
REMARK    1  A    between atoms: C_5  and  N_6
REMARK    2  A    between atoms: N_6  and  C_7
REMARK                            x       y       z     vdW  Elec       q    Type
REMARK                         _______ _______ _______ _____ _____    ______ ____
ROOT
ATOM      1  C   UNL     1      -3.991   0.396   1.901  0.00  0.00    +0.000 C 
ATOM      2  C   UNL     1      -3.005   0.602   0.807  0.00  0.00    +0.000 C 
ATOM      3  C   UNL     1      -2.641   2.051   0.576  0.00  0.00    +0.000 C 
ATOM      4  C   UNL     1      -1.720  -0.116   1.126  0.00  0.00    +0.000 C 
ATOM      5  C   UNL     1      -0.733  -0.176   0.251  0.00  0.00    +0.000 C 
ATOM      6  C   UNL     1      -1.027   0.539  -1.080  0.00  0.00    +0.000 C 
ATOM      7 BR   UNL     1       0.263  -0.403  -2.308  0.00  0.00    +0.000 Br
ATOM      8  C   UNL     1      -2.313  -0.196  -1.439  0.00  0.00    +0.000 C 
ATOM      9  O   UNL     1      -2.465  -0.925  -2.373  0.00  0.00    +0.000 OA
ATOM     10  C   UNL     1      -3.453   0.039  -0.526  0.00  0.00    +0.000 C 
ENDROOT
BRANCH   5  11
ATOM     11  N   UNL     1       0.432  -0.835   0.558  0.00  0.00    +0.000 NA
BRANCH  11  12
ATOM     12  C   UNL     1       1.713  -0.272   0.371  0.00  0.00    +0.000 A 
ATOM     13  C   UNL     1       1.912   0.988  -0.135  0.00  0.00    +0.000 A 
ATOM     14  C   UNL     1       3.193   1.486  -0.295  0.00  0.00    +0.000 A 
ATOM     15  C   UNL     1       4.289   0.723   0.052  0.00  0.00    +0.000 A 
ATOM     16  C   UNL     1       4.107  -0.559   0.567  0.00  0.00    +0.000 A 
ATOM     17  C   UNL     1       2.807  -1.028   0.715  0.00  0.00    +0.000 A 
ATOM     18  O   UNL     1       2.632  -2.313   1.232  0.00  0.00    +0.000 OA
ENDBRANCH  11  12
ENDBRANCH   5  11
TORSDOF 2
