REMARK  Name = 
REMARK  3 active torsions:
REMARK  status: ('A' for Active; 'I' for Inactive)
REMARK    1  A    between atoms: C_5  and  C_6
REMARK    2  A    between atoms: N_7  and  C_8
REMARK    3  A    between atoms: C_12  and  C_13
REMARK                            x       y       z     vdW  Elec       q    Type
REMARK                         _______ _______ _______ _____ _____    ______ ____
ROOT
ATOM      1  C   UNL     1      -0.578   0.554   0.458  0.00  0.00    +0.000 A 
ATOM      2  S   UNL     1      -1.260   2.086   0.679  0.00  0.00    +0.000 S 
ATOM      3  C   UNL     1      -2.814   1.794   0.022  0.00  0.00    +0.000 A 
ATOM      4  C   UNL     1      -2.750   0.486  -0.356  0.00  0.00    +0.000 A 
ATOM      5  C   UNL     1      -1.576  -0.173  -0.130  0.00  0.00    +0.000 A 
ATOM      6  C   UNL     1      -3.991  -0.151  -1.003  0.00  0.00    +0.000 C 
ATOM      7  C   UNL     1      -5.188   0.586  -0.510  0.00  0.00    +0.000 C 
ATOM      8  C   UNL     1      -5.024   2.020  -1.018  0.00  0.00    +0.000 C 
ATOM      9  C   UNL     1      -4.030   2.679  -0.146  0.00  0.00    +0.000 C 
ENDROOT
BRANCH   5  10
ATOM     10  C   UNL     1      -1.344  -1.599  -0.482  0.00  0.00    +0.000 C 
ATOM     11  N   UNL     1      -2.330  -2.403  -1.090  0.00  0.00    +0.000 NA
ATOM     12  O   UNL     1      -0.239  -2.102  -0.234  0.00  0.00    +0.000 OA
ENDBRANCH   5  10
BRANCH   1  14
ATOM     13  C   UNL     1       1.744   0.223   0.032  0.00  0.00    +0.000 C 
ATOM     14  N   UNL     1       0.763   0.141   0.822  0.00  0.00    +0.000 NA
BRANCH  13  19
ATOM     15  C   UNL     1       7.081  -1.127   0.667  0.00  0.00    +0.000 C 
ATOM     16  C   UNL     1       5.617  -0.834   0.705  0.00  0.00    +0.000 A 
ATOM     17  C   UNL     1       4.790  -1.049   1.771  0.00  0.00    +0.000 A 
ATOM     18  C   UNL     1       3.505  -0.731   1.636  0.00  0.00    +0.000 A 
ATOM     19  C   UNL     1       3.089  -0.213   0.456  0.00  0.00    +0.000 A 
ATOM     20  S   UNL     1       4.535  -0.187  -0.447  0.00  0.00    +0.000 S 
ENDBRANCH  13  19
ENDBRANCH   1  14
TORSDOF 3
