REMARK  Name = 
REMARK  4 active torsions:
REMARK  status: ('A' for Active; 'I' for Inactive)
REMARK    1  A    between atoms: C_2  and  C_3
REMARK    2  A    between atoms: C_3  and  C_16
REMARK    3  A    between atoms: C_4  and  C_5
REMARK    4  A    between atoms: C_16  and  N_18
REMARK                            x       y       z     vdW  Elec       q    Type
REMARK                         _______ _______ _______ _____ _____    ______ ____
ROOT
ATOM      1  C   UNL     1      -0.285   0.451  -0.560  0.00  0.00    +0.000 A 
ATOM      2  C   UNL     1      -0.744   0.727  -1.853  0.00  0.00    +0.000 A 
ATOM      3  N   UNL     1      -2.103   0.686  -1.867  0.00  0.00    +0.000 N 
ATOM      4  C   UNL     1      -2.978   0.906  -2.995  0.00  0.00    +0.000 C 
ATOM      5  C   UNL     1      -2.536   0.394  -0.629  0.00  0.00    +0.000 A 
ATOM      6  C   UNL     1      -3.824   0.249  -0.130  0.00  0.00    +0.000 A 
ATOM      7 CL   UNL     1      -5.240   0.425  -1.138  0.00  0.00    +0.000 Cl
ATOM      8  C   UNL     1      -3.969  -0.045   1.206  0.00  0.00    +0.000 A 
ATOM      9  C   UNL     1      -2.870  -0.192   2.019  0.00  0.00    +0.000 A 
ATOM     10  C   UNL     1      -1.616  -0.039   1.478  0.00  0.00    +0.000 A 
ATOM     11  C   UNL     1      -1.418   0.252   0.163  0.00  0.00    +0.000 A 
ENDROOT
BRANCH   1  13
ATOM     12  C   UNL     1       1.601  -0.549   0.476  0.00  0.00    +0.000 C 
ATOM     13  C   UNL     1       1.112   0.440  -0.227  0.00  0.00    +0.000 C 
BRANCH  12  15
ATOM     14  C   UNL     1       1.167  -2.888   0.240  0.00  0.00    +0.000 C 
ATOM     15  C   UNL     1       0.636  -1.602   0.872  0.00  0.00    +0.000 C 
ENDBRANCH  12  15
BRANCH  12  16
ATOM     16  C   UNL     1       2.979  -0.686   0.894  0.00  0.00    +0.000 C 
ATOM     17  O   UNL     1       3.316  -1.686   1.563  0.00  0.00    +0.000 OA
BRANCH  16  18
ATOM     18  N   UNL     1       3.931   0.281   0.559  0.00  0.00    +0.000 NA
ATOM     19  C   UNL     1       4.181   0.771  -0.590  0.00  0.00    +0.000 C 
ATOM     20  N   UNL     1       5.195   1.755  -0.729  0.00  0.00    +0.000 NA
ATOM     21  N   UNL     1       3.464   0.348  -1.736  0.00  0.00    +0.000 NA
ENDBRANCH  16  18
ENDBRANCH  12  16
ENDBRANCH   1  13
TORSDOF 4
