REMARK  Name = 
REMARK  3 active torsions:
REMARK  status: ('A' for Active; 'I' for Inactive)
REMARK    1  A    between atoms: O_2  and  C_3
REMARK    2  A    between atoms: C_6  and  N_7
REMARK    3  A    between atoms: N_7  and  C_8
REMARK                            x       y       z     vdW  Elec       q    Type
REMARK                         _______ _______ _______ _____ _____    ______ ____
ROOT
ATOM      1  N   UNL     1      -0.111  -1.329   1.061  0.00  0.00    +0.000 NA
ENDROOT
BRANCH   1   2
ATOM      2  C   UNL     1       1.104  -1.099   0.412  0.00  0.00    +0.000 A 
ATOM      3  C   UNL     1       2.157  -1.950   0.653  0.00  0.00    +0.000 A 
ATOM      4  C   UNL     1       3.397  -1.815   0.068  0.00  0.00    +0.000 A 
ATOM      5  C   UNL     1       3.597  -0.772  -0.809  0.00  0.00    +0.000 A 
ATOM      6  N   UNL     1       4.661  -0.385  -1.520  0.00  0.00    +0.000 NA
ATOM      7  C   UNL     1       4.311   0.700  -2.215  0.00  0.00    +0.000 A 
ATOM      8  O   UNL     1       5.087   1.315  -2.988  0.00  0.00    +0.000 OA
ATOM      9  O   UNL     1       3.060   0.972  -1.936  0.00  0.00    +0.000 OA
ATOM     10  C   UNL     1       2.570   0.103  -1.080  0.00  0.00    +0.000 A 
ATOM     11  C   UNL     1       1.330  -0.058  -0.473  0.00  0.00    +0.000 A 
ENDBRANCH   1   2
BRANCH   1  15
ATOM     12  C   UNL     1      -3.544   1.098   0.539  0.00  0.00    +0.000 A 
ATOM     13  C   UNL     1      -2.361   1.357  -0.120  0.00  0.00    +0.000 A 
ATOM     14  C   UNL     1      -1.256   0.549   0.068  0.00  0.00    +0.000 A 
ATOM     15  C   UNL     1      -1.279  -0.541   0.912  0.00  0.00    +0.000 A 
ATOM     16  C   UNL     1      -2.457  -0.807   1.575  0.00  0.00    +0.000 A 
ATOM     17  C   UNL     1      -2.489  -1.973   2.481  0.00  0.00    +0.000 C 
ATOM     18  C   UNL     1      -3.564   0.007   1.382  0.00  0.00    +0.000 A 
ATOM     19  C   UNL     1      -4.840  -0.291   2.107  0.00  0.00    +0.000 C 
BRANCH  12  21
ATOM     20  C   UNL     1      -4.690   3.016  -0.484  0.00  0.00    +0.000 C 
ATOM     21  O   UNL     1      -4.684   1.901   0.367  0.00  0.00    +0.000 OA
ENDBRANCH  12  21
ENDBRANCH   1  15
TORSDOF 3
