REMARK  Name = 
REMARK  3 active torsions:
REMARK  status: ('A' for Active; 'I' for Inactive)
REMARK    1  A    between atoms: C_2  and  C_3
REMARK    2  A    between atoms: C_6  and  N_7
REMARK    3  A    between atoms: N_7  and  C_8
REMARK                            x       y       z     vdW  Elec       q    Type
REMARK                         _______ _______ _______ _____ _____    ______ ____
ROOT
ATOM      1  C   UNL     1       3.909  -0.127  -0.451  0.00  0.00    +0.000 A 
ATOM      2  C   UNL     1       2.629   0.297  -0.288  0.00  0.00    +0.000 A 
ATOM      3  C   UNL     1       1.666  -0.618  -0.113  0.00  0.00    +0.000 A 
ATOM      4  C   UNL     1       0.294  -0.377   0.071  0.00  0.00    +0.000 A 
ATOM      5  N   UNL     1      -0.515  -1.423   0.230  0.00  0.00    +0.000 NA
ATOM      6  C   UNL     1      -0.158  -2.705   0.235  0.00  0.00    +0.000 A 
ATOM      7  C   UNL     1      -1.098  -3.840   0.416  0.00  0.00    +0.000 C 
ATOM      8  N   UNL     1       1.159  -2.957   0.059  0.00  0.00    +0.000 NA
ATOM      9  C   UNL     1       2.050  -1.931  -0.111  0.00  0.00    +0.000 A 
ATOM     10  S   UNL     1       3.743  -1.820  -0.354  0.00  0.00    +0.000 S 
ENDROOT
BRANCH   1  12
ATOM     11  C   UNL     1       4.705   2.163  -0.661  0.00  0.00    +0.000 C 
ATOM     12  C   UNL     1       5.144   0.715  -0.661  0.00  0.00    +0.000 C 
ENDBRANCH   1  12
BRANCH   4  13
ATOM     13  N   UNL     1      -0.212   0.958   0.085  0.00  0.00    +0.000 NA
BRANCH  13  14
ATOM     14  C   UNL     1      -1.581   1.244   0.267  0.00  0.00    +0.000 A 
ATOM     15  C   UNL     1      -2.536   0.257   0.444  0.00  0.00    +0.000 A 
ATOM     16  C   UNL     1      -3.869   0.590   0.618  0.00  0.00    +0.000 A 
ATOM     17  C   UNL     1      -4.305   1.898   0.624  0.00  0.00    +0.000 A 
ATOM     18  O   UNL     1      -5.641   2.240   0.798  0.00  0.00    +0.000 OA
ATOM     19  C   UNL     1      -3.357   2.887   0.447  0.00  0.00    +0.000 A 
ATOM     20  C   UNL     1      -2.027   2.549   0.274  0.00  0.00    +0.000 A 
ENDBRANCH  13  14
ENDBRANCH   4  13
TORSDOF 3
