REMARK  Name = 
REMARK  6 active torsions:
REMARK  status: ('A' for Active; 'I' for Inactive)
REMARK    1  A    between atoms: C_2  and  C_4
REMARK    2  A    between atoms: C_4  and  N_5
REMARK    3  A    between atoms: N_5  and  C_6
REMARK    4  A    between atoms: C_6  and  N_8
REMARK    5  A    between atoms: C_9  and  C_11
REMARK    6  A    between atoms: C_15  and  N_16
REMARK                            x       y       z     vdW  Elec       q    Type
REMARK                         _______ _______ _______ _____ _____    ______ ____
ROOT
ATOM      1  N   UNL     1      -0.823   1.781   0.198  0.00  0.00    +0.000 NA
ATOM      2  C   UNL     1      -0.181   0.528   0.055  0.00  0.00    +0.000 C 
ATOM      3  O   UNL     1      -0.872  -0.504  -0.109  0.00  0.00    +0.000 OA
ENDROOT
BRANCH   2   4
ATOM      4  C   UNL     1       1.271   0.467   0.100  0.00  0.00    +0.000 A 
ATOM      5  C   UNL     1       2.025   1.607   0.280  0.00  0.00    +0.000 A 
ATOM      6  C   UNL     1       3.418   1.533   0.321  0.00  0.00    +0.000 A 
ATOM      7  C   UNL     1       4.077   0.329   0.184  0.00  0.00    +0.000 A 
ATOM      8  C   UNL     1       3.339  -0.804   0.006  0.00  0.00    +0.000 A 
ATOM      9  C   UNL     1       1.962  -0.720  -0.034  0.00  0.00    +0.000 A 
BRANCH   8  10
ATOM     10  N   UNL     1       4.004  -2.064  -0.138  0.00  0.00    +0.000 N 
ATOM     11  O   UNL     1       3.371  -3.118  -0.302  0.00  0.00    +0.000 OA
ATOM     12  O   UNL     1       5.368  -2.134  -0.098  0.00  0.00    +0.000 OA
ENDBRANCH   8  10
ENDBRANCH   2   4
BRANCH   1  13
ATOM     13  C   UNL     1      -2.226   1.856   0.157  0.00  0.00    +0.000 C 
ATOM     14  S   UNL     1      -3.008   3.284   0.319  0.00  0.00    +0.000 S 
BRANCH  13  15
ATOM     15  N   UNL     1      -3.000   0.683  -0.028  0.00  0.00    +0.000 NA
BRANCH  15  16
ATOM     16  C   UNL     1      -4.461   0.732  -0.075  0.00  0.00    +0.000 C 
BRANCH  16  18
ATOM     17  C   UNL     1      -4.571  -1.253  -1.590  0.00  0.00    +0.000 C 
ATOM     18  C   UNL     1      -5.051  -0.629  -0.279  0.00  0.00    +0.000 C 
ATOM     19  C   UNL     1      -4.642  -1.572   0.853  0.00  0.00    +0.000 C 
ENDBRANCH  16  18
ENDBRANCH  15  16
ENDBRANCH  13  15
ENDBRANCH   1  13
TORSDOF 6
