REMARK  Name = 
REMARK  3 active torsions:
REMARK  status: ('A' for Active; 'I' for Inactive)
REMARK    1  A    between atoms: N_11  and  C_12
REMARK    2  A    between atoms: C_12  and  N_13
REMARK    3  A    between atoms: N_13  and  C_14
REMARK                            x       y       z     vdW  Elec       q    Type
REMARK                         _______ _______ _______ _____ _____    ______ ____
ROOT
ATOM      1  C   UNL     1       5.394   1.553  -1.702  0.00  0.00    +0.000 C 
ATOM      2  C   UNL     1       4.696   0.471  -0.937  0.00  0.00    +0.000 C 
ATOM      3  C   UNL     1       3.773   1.129   0.062  0.00  0.00    +0.000 C 
ATOM      4  C   UNL     1       3.091   0.058   0.840  0.00  0.00    +0.000 C 
ATOM      5  C   UNL     1       2.375  -0.961   0.031  0.00  0.00    +0.000 C 
ATOM      6  C   UNL     1       3.120  -1.465  -1.163  0.00  0.00    +0.000 C 
ATOM      7  C   UNL     1       3.943  -0.451  -1.863  0.00  0.00    +0.000 C 
ATOM      8  N   UNL     1       1.873  -1.983   0.890  0.00  0.00    +0.000 NA
ATOM      9  C   UNL     1       0.687  -1.467   1.485  0.00  0.00    +0.000 C 
ATOM     10  O   UNL     1       0.141  -1.840   2.580  0.00  0.00    +0.000 OA
ATOM     11  N   UNL     1       0.193  -0.435   0.631  0.00  0.00    +0.000 N 
ATOM     12  C   UNL     1       1.094  -0.347  -0.469  0.00  0.00    +0.000 C 
ATOM     13  O   UNL     1       0.838   0.140  -1.585  0.00  0.00    +0.000 OA
ENDROOT
BRANCH  11  14
ATOM     14  C   UNL     1      -1.001   0.367   0.847  0.00  0.00    +0.000 C 
BRANCH  14  15
ATOM     15  N   UNL     1      -2.122  -0.292   0.237  0.00  0.00    +0.000 NA
BRANCH  15  16
ATOM     16  C   UNL     1      -3.425   0.314   0.318  0.00  0.00    +0.000 A 
ATOM     17  C   UNL     1      -4.533  -0.261  -0.241  0.00  0.00    +0.000 A 
ATOM     18  C   UNL     1      -5.785   0.312  -0.169  0.00  0.00    +0.000 A 
ATOM     19  C   UNL     1      -5.919   1.512   0.495  0.00  0.00    +0.000 A 
ATOM     20  C   UNL     1      -4.832   2.126   1.073  0.00  0.00    +0.000 A 
ATOM     21  C   UNL     1      -3.603   1.519   0.976  0.00  0.00    +0.000 A 
ENDBRANCH  15  16
ENDBRANCH  14  15
ENDBRANCH  11  14
TORSDOF 3
