REMARK  Name = 
REMARK  2 active torsions:
REMARK  status: ('A' for Active; 'I' for Inactive)
REMARK    1  A    between atoms: C_5  and  C_7
REMARK    2  A    between atoms: C_8  and  C_9
REMARK                            x       y       z     vdW  Elec       q    Type
REMARK                         _______ _______ _______ _____ _____    ______ ____
ROOT
ATOM      1  C   UNL     1      -3.703  -1.450   0.970  0.00  0.00    +0.000 C 
ATOM      2  C   UNL     1      -3.062  -0.181   0.500  0.00  0.00    +0.000 C 
ATOM      3  C   UNL     1      -2.857   0.749   1.669  0.00  0.00    +0.000 C 
ATOM      4  C   UNL     1      -1.374   0.908   1.832  0.00  0.00    +0.000 C 
ATOM      5  C   UNL     1      -0.813  -0.307   1.153  0.00  0.00    +0.000 C 
ATOM      6  O   UNL     1      -0.985  -1.468   1.907  0.00  0.00    +0.000 OA
ATOM      7  C   UNL     1      -1.664  -0.430  -0.072  0.00  0.00    +0.000 C 
ATOM      8  C   UNL     1      -1.607  -1.783  -0.704  0.00  0.00    +0.000 C 
ATOM      9  C   UNL     1      -1.452   0.660  -1.077  0.00  0.00    +0.000 C 
ATOM     10  C   UNL     1      -2.791   1.308  -1.335  0.00  0.00    +0.000 C 
ATOM     11  C   UNL     1      -3.787   0.480  -0.603  0.00  0.00    +0.000 C 
ATOM     12  O   UNL     1      -4.981   0.327  -0.813  0.00  0.00    +0.000 OA
ENDROOT
BRANCH   5  13
ATOM     13  C   UNL     1       0.570  -0.152   0.735  0.00  0.00    +0.000 C 
ATOM     14  C   UNL     1       1.727  -0.031   0.406  0.00  0.00    +0.000 C 
BRANCH  14  15
ATOM     15  C   UNL     1       3.113   0.104   0.035  0.00  0.00    +0.000 A 
ATOM     16  C   UNL     1       3.650  -0.680  -0.945  0.00  0.00    +0.000 A 
ATOM     17  C   UNL     1       4.972  -0.567  -1.314  0.00  0.00    +0.000 A 
ATOM     18  C   UNL     1       5.809   0.343  -0.710  0.00  0.00    +0.000 A 
ATOM     19  C   UNL     1       5.284   1.145   0.284  0.00  0.00    +0.000 A 
ATOM     20  C   UNL     1       3.952   1.027   0.652  0.00  0.00    +0.000 A 
ENDBRANCH  14  15
ENDBRANCH   5  13
TORSDOF 2
