REMARK  Name = 
REMARK  3 active torsions:
REMARK  status: ('A' for Active; 'I' for Inactive)
REMARK    1  A    between atoms: N_7  and  C_8
REMARK    2  A    between atoms: C_8  and  O_9
REMARK    3  A    between atoms: O_9  and  C_10
REMARK                            x       y       z     vdW  Elec       q    Type
REMARK                         _______ _______ _______ _____ _____    ______ ____
ROOT
ATOM      1  O   UNL     1       0.357   0.301   0.127  0.00  0.00    +0.000 OA
ENDROOT
BRANCH   1   2
ATOM      2  C   UNL     1      -0.899  -0.249   0.285  0.00  0.00    +0.000 A 
ATOM      3  C   UNL     1      -1.040  -1.336   1.121  0.00  0.00    +0.000 A 
ATOM      4  C   UNL     1      -2.261  -1.932   1.324  0.00  0.00    +0.000 A 
ATOM      5  C   UNL     1      -3.355  -1.419   0.669  0.00  0.00    +0.000 A 
ATOM      6  C   UNL     1      -3.264  -0.342  -0.170  0.00  0.00    +0.000 A 
ATOM      7  C   UNL     1      -2.023   0.234  -0.352  0.00  0.00    +0.000 A 
ATOM      8  C   UNL     1      -4.626  -0.021  -0.733  0.00  0.00    +0.000 C 
ATOM      9  C   UNL     1      -5.283  -1.403  -0.638  0.00  0.00    +0.000 C 
ATOM     10  C   UNL     1      -4.769  -1.861   0.708  0.00  0.00    +0.000 C 
ENDBRANCH   1   2
BRANCH   1  11
ATOM     11  C   UNL     1       1.465  -0.245   0.812  0.00  0.00    +0.000 C 
BRANCH  11  18
ATOM     12  C   UNL     1       3.250  -0.839  -1.566  0.00  0.00    +0.000 C 
ATOM     13  C   UNL     1       3.403   0.307  -0.610  0.00  0.00    +0.000 A 
ATOM     14  C   UNL     1       4.375   1.273  -0.654  0.00  0.00    +0.000 A 
ATOM     15  C   UNL     1       4.112   2.098   0.411  0.00  0.00    +0.000 A 
ATOM     16  N   UNL     1       4.900   3.250   0.732  0.00  0.00    +0.000 NA
ATOM     17  N   UNL     1       3.039   1.625   1.036  0.00  0.00    +0.000 NA
ATOM     18  N   UNL     1       2.619   0.560   0.427  0.00  0.00    +0.000 N 
ENDBRANCH  11  18
ENDBRANCH   1  11
TORSDOF 3
