REMARK  Name = 
REMARK  3 active torsions:
REMARK  status: ('A' for Active; 'I' for Inactive)
REMARK    1  A    between atoms: C_12  and  C_14
REMARK    2  A    between atoms: C_14  and  C_15
REMARK    3  A    between atoms: C_15  and  C_17
REMARK                            x       y       z     vdW  Elec       q    Type
REMARK                         _______ _______ _______ _____ _____    ______ ____
ROOT
ATOM      1  C   UNL     1      -4.608   2.353   1.393  0.00  0.00    +0.000 C 
ATOM      2  C   UNL     1      -3.551   1.486   0.803  0.00  0.00    +0.000 A 
ATOM      3  C   UNL     1      -2.906   1.889  -0.335  0.00  0.00    +0.000 A 
ATOM      4  C   UNL     1      -1.901   1.118  -0.936  0.00  0.00    +0.000 A 
ATOM      5  C   UNL     1      -1.343   1.662  -2.201  0.00  0.00    +0.000 C 
ATOM      6  C   UNL     1      -1.528  -0.087  -0.385  0.00  0.00    +0.000 A 
ATOM      7  C   UNL     1      -2.207  -0.479   0.774  0.00  0.00    +0.000 A 
ATOM      8  C   UNL     1      -3.193   0.287   1.360  0.00  0.00    +0.000 A 
ATOM      9  N   UNL     1      -1.853  -1.810   1.136  0.00  0.00    +0.000 NA
ATOM     10  C   UNL     1      -0.940  -2.266   0.174  0.00  0.00    +0.000 C 
ATOM     11  O   UNL     1      -0.557  -3.454   0.027  0.00  0.00    +0.000 OA
ATOM     12  C   UNL     1      -0.482  -1.075  -0.677  0.00  0.00    +0.000 C 
ATOM     13  O   UNL     1      -0.578  -1.551  -2.003  0.00  0.00    +0.000 OA
ENDROOT
BRANCH  12  14
ATOM     14  C   UNL     1       0.880  -0.843  -0.255  0.00  0.00    +0.000 C 
BRANCH  14  15
ATOM     15  C   UNL     1       1.756   0.198  -0.609  0.00  0.00    +0.000 C 
ATOM     16  O   UNL     1       1.514   1.105  -1.427  0.00  0.00    +0.000 OA
BRANCH  15  17
ATOM     17  C   UNL     1       3.104   0.246   0.036  0.00  0.00    +0.000 A 
ATOM     18  C   UNL     1       3.651  -0.594   0.956  0.00  0.00    +0.000 A 
ATOM     19  C   UNL     1       4.884  -0.332   1.380  0.00  0.00    +0.000 A 
ATOM     20  C   UNL     1       5.518   0.761   0.865  0.00  0.00    +0.000 A 
ATOM     21  S   UNL     1       4.336   1.386  -0.211  0.00  0.00    +0.000 S 
ENDBRANCH  15  17
ENDBRANCH  14  15
ENDBRANCH  12  14
TORSDOF 3
