REMARK  Name = 
REMARK  3 active torsions:
REMARK  status: ('A' for Active; 'I' for Inactive)
REMARK    1  A    between atoms: N_2  and  C_4
REMARK    2  A    between atoms: C_13  and  C_14
REMARK    3  A    between atoms: C_16  and  C_17
REMARK                            x       y       z     vdW  Elec       q    Type
REMARK                         _______ _______ _______ _____ _____    ______ ____
ROOT
ATOM      1  C   UNL     1      -3.014  -0.019   0.096  0.00  0.00    +0.000 A 
ATOM      2  C   UNL     1      -2.513   0.891  -0.811  0.00  0.00    +0.000 A 
ATOM      3  C   UNL     1      -1.189   0.858  -1.177  0.00  0.00    +0.000 A 
ATOM      4  C   UNL     1      -0.295  -0.092  -0.651  0.00  0.00    +0.000 A 
ATOM      5  C   UNL     1      -0.774  -0.973   0.225  0.00  0.00    +0.000 A 
ATOM      6  C   UNL     1      -2.147  -0.949   0.613  0.00  0.00    +0.000 A 
ATOM      7  O   UNL     1       0.031  -1.948   0.797  0.00  0.00    +0.000 OA
ATOM      8  C   UNL     1       1.359  -1.955   0.408  0.00  0.00    +0.000 C 
ATOM      9  N   UNL     1       2.242  -2.974   0.994  0.00  0.00    +0.000 NA
ATOM     10  C   UNL     1       1.915  -1.146  -0.432  0.00  0.00    +0.000 C 
ATOM     11  C   UNL     1       1.136  -0.025  -1.134  0.00  0.00    +0.000 C 
ENDROOT
BRANCH  11  12
ATOM     12  C   UNL     1       1.638   1.278  -0.414  0.00  0.00    +0.000 A 
ATOM     13  C   UNL     1       1.607   2.547  -0.884  0.00  0.00    +0.000 A 
ATOM     14  C   UNL     1       2.173   3.313   0.153  0.00  0.00    +0.000 A 
ATOM     15  O   UNL     1       2.512   2.542   1.160  0.00  0.00    +0.000 OA
ATOM     16  C   UNL     1       2.192   1.295   0.829  0.00  0.00    +0.000 A 
ENDBRANCH  11  12
BRANCH   1  18
ATOM     17  C   UNL     1      -5.414  -0.744  -0.192  0.00  0.00    +0.000 C 
ATOM     18  N   UNL     1      -4.395   0.008   0.483  0.00  0.00    +0.000 N 
ATOM     19  C   UNL     1      -4.842   0.825   1.613  0.00  0.00    +0.000 C 
ENDBRANCH   1  18
BRANCH  10  20
ATOM     20  C   UNL     1       3.324  -1.310  -0.715  0.00  0.00    +0.000 C 
ATOM     21  N   UNL     1       4.456  -1.421  -0.959  0.00  0.00    +0.000 NA
ENDBRANCH  10  20
TORSDOF 3
