REMARK  Name = 
REMARK  3 active torsions:
REMARK  status: ('A' for Active; 'I' for Inactive)
REMARK    1  A    between atoms: C_2  and  C_5
REMARK    2  A    between atoms: C_8  and  N_9
REMARK    3  A    between atoms: C_10  and  C_11
REMARK                            x       y       z     vdW  Elec       q    Type
REMARK                         _______ _______ _______ _____ _____    ______ ____
ROOT
ATOM      1  N   UNL     1      -1.230  -0.289  -0.147  0.00  0.00    +0.000 N 
ATOM      2  C   UNL     1      -2.124  -1.148  -0.615  0.00  0.00    +0.000 A 
ATOM      3  N   UNL     1      -3.403  -0.700  -0.409  0.00  0.00    +0.000 NA
ATOM      4  C   UNL     1      -3.320   0.494   0.213  0.00  0.00    +0.000 A 
ATOM      5  C   UNL     1      -4.207   1.425   0.694  0.00  0.00    +0.000 A 
ATOM      6  C   UNL     1      -3.775   2.575   1.319  0.00  0.00    +0.000 A 
ATOM      7  C   UNL     1      -2.437   2.833   1.488  0.00  0.00    +0.000 A 
ATOM      8  C   UNL     1      -1.524   1.890   0.998  0.00  0.00    +0.000 A 
ATOM      9  C   UNL     1      -1.984   0.753   0.377  0.00  0.00    +0.000 A 
ENDROOT
BRANCH   1  13
ATOM     10  C   UNL     1       2.983  -0.256   0.190  0.00  0.00    +0.000 A 
ATOM     11  C   UNL     1       2.276  -1.409   0.386  0.00  0.00    +0.000 A 
ATOM     12  C   UNL     1       0.893  -1.410   0.245  0.00  0.00    +0.000 A 
ATOM     13  C   UNL     1       0.189  -0.291  -0.086  0.00  0.00    +0.000 A 
ATOM     14  C   UNL     1       0.921   0.862  -0.284  0.00  0.00    +0.000 A 
ATOM     15  C   UNL     1       2.316   0.881  -0.149  0.00  0.00    +0.000 A 
BRANCH  10  17
ATOM     16  C   UNL     1       5.095  -1.542   0.492  0.00  0.00    +0.000 C 
ATOM     17  C   UNL     1       4.465  -0.194   0.374  0.00  0.00    +0.000 C 
ATOM     18  C   UNL     1       5.065   0.566  -0.758  0.00  0.00    +0.000 C 
ATOM     19  C   UNL     1       4.649   0.625   1.666  0.00  0.00    +0.000 C 
ENDBRANCH  10  17
ENDBRANCH   1  13
BRANCH   2  20
ATOM     20  C   UNL     1      -1.848  -2.439  -1.293  0.00  0.00    +0.000 C 
ATOM     21  O   UNL     1      -3.001  -3.228  -1.360  0.00  0.00    +0.000 OA
ENDBRANCH   2  20
TORSDOF 3
