REMARK  Name = 
REMARK  5 active torsions:
REMARK  status: ('A' for Active; 'I' for Inactive)
REMARK    1  A    between atoms: C_2  and  N_5
REMARK    2  A    between atoms: N_5  and  C_6
REMARK    3  A    between atoms: C_6  and  N_8
REMARK    4  A    between atoms: C_9  and  C_11
REMARK    5  A    between atoms: C_14  and  N_15
REMARK                            x       y       z     vdW  Elec       q    Type
REMARK                         _______ _______ _______ _____ _____    ______ ____
ROOT
ATOM      1  N   UNL     1      -1.171   0.653   0.428  0.00  0.00    +0.000 NA
ATOM      2  C   UNL     1      -0.353  -0.239  -0.286  0.00  0.00    +0.000 C 
ATOM      3  O   UNL     1      -0.898  -1.152  -0.954  0.00  0.00    +0.000 OA
ENDROOT
BRANCH   2   4
ATOM      4  C   UNL     1       1.122  -0.124  -0.265  0.00  0.00    +0.000 A 
ATOM      5  C   UNL     1       1.872  -1.029  -0.985  0.00  0.00    +0.000 A 
ATOM      6  C   UNL     1       3.247  -0.943  -0.981  0.00  0.00    +0.000 A 
ATOM      7  C   UNL     1       3.904   0.035  -0.268  0.00  0.00    +0.000 A 
ATOM      8  C   UNL     1       3.124   0.915   0.435  0.00  0.00    +0.000 A 
ATOM      9  C   UNL     1       1.748   0.864   0.458  0.00  0.00    +0.000 A 
BRANCH   7  10
ATOM     10  N   UNL     1       5.327   0.139  -0.254  0.00  0.00    +0.000 N 
ATOM     11  O   UNL     1       6.000  -0.684  -0.908  0.00  0.00    +0.000 OA
ATOM     12  O   UNL     1       5.997   1.093   0.441  0.00  0.00    +0.000 OA
ENDBRANCH   7  10
ENDBRANCH   2   4
BRANCH   1  13
ATOM     13  C   UNL     1      -2.589   0.603   0.454  0.00  0.00    +0.000 C 
ATOM     14  S   UNL     1      -3.373   1.726   1.341  0.00  0.00    +0.000 S 
BRANCH  13  15
ATOM     15  N   UNL     1      -3.327  -0.379  -0.258  0.00  0.00    +0.000 NA
BRANCH  15  17
ATOM     16  C   UNL     1      -5.258  -0.595   1.207  0.00  0.00    +0.000 C 
ATOM     17  C   UNL     1      -4.772  -0.407  -0.214  0.00  0.00    +0.000 C 
ATOM     18  C   UNL     1      -5.240   0.961  -0.723  0.00  0.00    +0.000 C 
ATOM     19  C   UNL     1      -5.360  -1.435  -1.127  0.00  0.00    +0.000 C 
ENDBRANCH  15  17
ENDBRANCH  13  15
ENDBRANCH   1  13
TORSDOF 5
