REMARK  Name = 
REMARK  3 active torsions:
REMARK  status: ('A' for Active; 'I' for Inactive)
REMARK    1  A    between atoms: C_2  and  N_3
REMARK    2  A    between atoms: C_6  and  C_7
REMARK    3  A    between atoms: C_14  and  O_15
REMARK                            x       y       z     vdW  Elec       q    Type
REMARK                         _______ _______ _______ _____ _____    ______ ____
ROOT
ATOM      1  C   UNL     1      -0.137  -0.998  -0.755  0.00  0.00    +0.000 A 
ATOM      2  C   UNL     1      -0.436  -2.293  -1.123  0.00  0.00    +0.000 A 
ATOM      3  C   UNL     1       0.557  -3.296  -1.609  0.00  0.00    +0.000 C 
ATOM      4  N   UNL     1      -1.756  -2.501  -0.972  0.00  0.00    +0.000 NA
ATOM      5  C   UNL     1      -2.338  -1.381  -0.516  0.00  0.00    +0.000 A 
ATOM      6  C   UNL     1      -3.640  -1.075  -0.203  0.00  0.00    +0.000 A 
ATOM      7  C   UNL     1      -3.968   0.198   0.261  0.00  0.00    +0.000 A 
ATOM      8  C   UNL     1      -2.986   1.147   0.405  0.00  0.00    +0.000 A 
ATOM      9  C   UNL     1      -1.696   0.812   0.085  0.00  0.00    +0.000 A 
ATOM     10  C   UNL     1      -1.342  -0.443  -0.378  0.00  0.00    +0.000 A 
ENDROOT
BRANCH   1  14
ATOM     11  N   UNL     1       4.164   0.322   1.249  0.00  0.00    +0.000 NA
ATOM     12  C   UNL     1       3.153   0.236   0.220  0.00  0.00    +0.000 A 
ATOM     13  N   UNL     1       1.975  -0.367   0.273  0.00  0.00    +0.000 NA
ATOM     14  C   UNL     1       1.196  -0.336  -0.761  0.00  0.00    +0.000 A 
ATOM     15  C   UNL     1       1.646   0.334  -1.872  0.00  0.00    +0.000 A 
ATOM     16  S   UNL     1       3.180   0.884  -1.353  0.00  0.00    +0.000 S 
BRANCH  11  18
ATOM     17  C   UNL     1       5.032   2.503   0.554  0.00  0.00    +0.000 C 
ATOM     18  C   UNL     1       5.376   1.059   0.908  0.00  0.00    +0.000 C 
ENDBRANCH  11  18
ENDBRANCH   1  14
BRANCH   8  19
ATOM     19  O   UNL     1      -3.335   2.421   0.872  0.00  0.00    +0.000 OA
ATOM     20  C   UNL     1      -4.646   2.775   1.202  0.00  0.00    +0.000 C 
ENDBRANCH   8  19
TORSDOF 3
