REMARK  Name = 
REMARK  3 active torsions:
REMARK  status: ('A' for Active; 'I' for Inactive)
REMARK    1  A    between atoms: C_4  and  N_5
REMARK    2  A    between atoms: C_6  and  C_8
REMARK    3  A    between atoms: C_14  and  C_15
REMARK                            x       y       z     vdW  Elec       q    Type
REMARK                         _______ _______ _______ _____ _____    ______ ____
ROOT
ATOM      1  C   UNL     1      -4.004  -2.515  -1.835  0.00  0.00    +0.000 C 
ATOM      2  C   UNL     1      -3.006  -1.612  -1.148  0.00  0.00    +0.000 A 
ATOM      3  S   UNL     1      -1.323  -1.681  -1.144  0.00  0.00    +0.000 S 
ATOM      4  C   UNL     1      -0.971  -0.293  -0.126  0.00  0.00    +0.000 A 
ATOM      5  C   UNL     1      -2.216   0.152   0.159  0.00  0.00    +0.000 A 
ATOM      6  C   UNL     1      -3.270  -0.528  -0.369  0.00  0.00    +0.000 A 
ATOM      7  C   UNL     1      -4.749  -0.162  -0.150  0.00  0.00    +0.000 C 
ENDROOT
BRANCH   4   8
ATOM      8  N   UNL     1       0.350  -0.079   0.072  0.00  0.00    +0.000 NA
ATOM      9  C   UNL     1       1.340   0.605   0.600  0.00  0.00    +0.000 C 
ATOM     10  O   UNL     1       1.070   1.593   1.309  0.00  0.00    +0.000 OA
BRANCH   9  11
ATOM     11  C   UNL     1       2.756   0.222   0.367  0.00  0.00    +0.000 A 
ATOM     12  C   UNL     1       3.131  -0.842  -0.393  0.00  0.00    +0.000 A 
ATOM     13  C   UNL     1       4.449  -1.177  -0.595  0.00  0.00    +0.000 A 
ATOM     14  C   UNL     1       5.458  -0.415  -0.011  0.00  0.00    +0.000 A 
ATOM     15  C   UNL     1       5.059   0.657   0.755  0.00  0.00    +0.000 A 
ATOM     16  C   UNL     1       3.734   0.984   0.951  0.00  0.00    +0.000 A 
ENDBRANCH   9  11
ENDBRANCH   4   8
BRANCH   5  17
ATOM     17  C   UNL     1      -2.464   1.335   1.009  0.00  0.00    +0.000 C 
ATOM     18  N   UNL     1      -3.791   1.774   1.286  0.00  0.00    +0.000 NA
ATOM     19  O   UNL     1      -1.556   1.982   1.508  0.00  0.00    +0.000 OA
ENDBRANCH   5  17
TORSDOF 3
