REMARK  Name = 
REMARK  2 active torsions:
REMARK  status: ('A' for Active; 'I' for Inactive)
REMARK    1  A    between atoms: C_9  and  C_10
REMARK    2  A    between atoms: C_14  and  N_15
REMARK                            x       y       z     vdW  Elec       q    Type
REMARK                         _______ _______ _______ _____ _____    ______ ____
ROOT
ATOM      1  C   UNL     1       4.183  -0.931   1.474  0.00  0.00    +0.000 C 
ATOM      2  C   UNL     1       3.971  -0.082   0.239  0.00  0.00    +0.000 C 
ATOM      3  C   UNL     1       4.309  -0.866  -1.026  0.00  0.00    +0.000 C 
ATOM      4  C   UNL     1       4.729   1.210   0.281  0.00  0.00    +0.000 C 
ATOM      5  N   UNL     1       3.850   2.097  -0.499  0.00  0.00    +0.000 NA
ATOM      6  C   UNL     1       2.513   1.636  -0.339  0.00  0.00    +0.000 A 
ATOM      7  C   UNL     1       1.278   2.276  -0.553  0.00  0.00    +0.000 A 
ATOM      8  C   UNL     1       0.120   1.576  -0.309  0.00  0.00    +0.000 A 
ATOM      9  C   UNL     1       0.130   0.262   0.141  0.00  0.00    +0.000 A 
ATOM     10  C   UNL     1       1.347  -0.323   0.336  0.00  0.00    +0.000 A 
ATOM     11  C   UNL     1       2.559   0.346   0.102  0.00  0.00    +0.000 A 
ENDROOT
BRANCH   9  12
ATOM     12  C   UNL     1      -1.137  -0.413   0.377  0.00  0.00    +0.000 A 
ATOM     13  C   UNL     1      -1.266  -1.376   1.347  0.00  0.00    +0.000 A 
ATOM     14  C   UNL     1      -2.457  -2.036   1.595  0.00  0.00    +0.000 A 
ATOM     15  C   UNL     1      -3.554  -1.684   0.809  0.00  0.00    +0.000 A 
ATOM     16  C   UNL     1      -3.466  -0.725  -0.172  0.00  0.00    +0.000 A 
ATOM     17  C   UNL     1      -2.248  -0.097  -0.377  0.00  0.00    +0.000 A 
BRANCH  16  18
ATOM     18  N   UNL     1      -4.619  -0.418  -0.932  0.00  0.00    +0.000 N 
ATOM     19  O   UNL     1      -5.695  -0.988  -0.734  0.00  0.00    +0.000 OA
ATOM     20  O   UNL     1      -4.548   0.537  -1.914  0.00  0.00    +0.000 OA
ENDBRANCH  16  18
ENDBRANCH   9  12
TORSDOF 2
