REMARK  Name = 
REMARK  4 active torsions:
REMARK  status: ('A' for Active; 'I' for Inactive)
REMARK    1  A    between atoms: C_2  and  C_3
REMARK    2  A    between atoms: C_3  and  C_16
REMARK    3  A    between atoms: C_4  and  C_5
REMARK    4  A    between atoms: C_16  and  N_18
REMARK                            x       y       z     vdW  Elec       q    Type
REMARK                         _______ _______ _______ _____ _____    ______ ____
ROOT
ATOM      1  C   UNL     1       0.463   0.156   0.527  0.00  0.00    +0.000 A 
ATOM      2  C   UNL     1       1.159   0.783  -0.514  0.00  0.00    +0.000 A 
ATOM      3  C   UNL     1       2.550   0.759  -0.564  0.00  0.00    +0.000 A 
ATOM      4  C   UNL     1       3.260   1.370  -1.582  0.00  0.00    +0.000 A 
ATOM      5  C   UNL     1       4.637   1.361  -1.655  0.00  0.00    +0.000 A 
ATOM      6  C   UNL     1       5.349   0.715  -0.674  0.00  0.00    +0.000 A 
ATOM      7  C   UNL     1       4.670   0.099   0.351  0.00  0.00    +0.000 A 
ATOM      8  C   UNL     1       3.278   0.116   0.411  0.00  0.00    +0.000 A 
ATOM      9  C   UNL     1       2.596  -0.496   1.431  0.00  0.00    +0.000 A 
ATOM     10  C   UNL     1       1.223  -0.473   1.482  0.00  0.00    +0.000 A 
ATOM     11  C   UNL     1       0.498  -1.124   2.627  0.00  0.00    +0.000 C 
ENDROOT
BRANCH   1  13
ATOM     12  C   UNL     1      -1.814  -0.791   0.626  0.00  0.00    +0.000 C 
ATOM     13  C   UNL     1      -1.002   0.224   0.545  0.00  0.00    +0.000 C 
BRANCH  12  15
ATOM     14  C   UNL     1      -1.662  -3.024  -0.460  0.00  0.00    +0.000 C 
ATOM     15  C   UNL     1      -1.205  -2.172   0.705  0.00  0.00    +0.000 C 
ENDBRANCH  12  15
BRANCH  12  16
ATOM     16  C   UNL     1      -3.268  -0.727   0.658  0.00  0.00    +0.000 C 
ATOM     17  O   UNL     1      -3.973  -1.782   0.733  0.00  0.00    +0.000 OA
BRANCH  16  18
ATOM     18  N   UNL     1      -3.991   0.476   0.614  0.00  0.00    +0.000 NA
ATOM     19  C   UNL     1      -4.181   1.229  -0.399  0.00  0.00    +0.000 C 
ATOM     20  N   UNL     1      -4.947   2.407  -0.233  0.00  0.00    +0.000 NA
ATOM     21  N   UNL     1      -3.640   0.894  -1.650  0.00  0.00    +0.000 NA
ENDBRANCH  16  18
ENDBRANCH  12  16
ENDBRANCH   1  13
TORSDOF 4
