REMARK  Name = 
REMARK  4 active torsions:
REMARK  status: ('A' for Active; 'I' for Inactive)
REMARK    1  A    between atoms: N_7  and  C_8
REMARK    2  A    between atoms: C_8  and  C_9
REMARK    3  A    between atoms: N_11  and  C_12
REMARK    4  A    between atoms: C_12  and  C_13
REMARK                            x       y       z     vdW  Elec       q    Type
REMARK                         _______ _______ _______ _____ _____    ______ ____
ROOT
ATOM      1  C   UNL     1      -0.179  -0.709   0.237  0.00  0.00    +0.000 C 
ATOM      2  O   UNL     1      -0.439   0.196   1.055  0.00  0.00    +0.000 OA
ATOM      3  N   UNL     1      -1.217  -1.480  -0.252  0.00  0.00    +0.000 NA
ENDROOT
BRANCH   1   4
ATOM      4  C   UNL     1       1.262  -0.852  -0.123  0.00  0.00    +0.000 C 
BRANCH   4  11
ATOM      5  C   UNL     1       4.109  -0.853   1.586  0.00  0.00    +0.000 C 
ATOM      6  C   UNL     1       3.484  -0.322   0.326  0.00  0.00    +0.000 C 
ATOM      7  C   UNL     1       3.563  -1.421  -0.739  0.00  0.00    +0.000 C 
ATOM      8  C   UNL     1       4.136   0.923  -0.164  0.00  0.00    +0.000 C 
ATOM      9  O   UNL     1       3.176   1.875  -0.376  0.00  0.00    +0.000 OA
ATOM     10  C   UNL     1       1.983   1.433   0.163  0.00  0.00    +0.000 C 
ATOM     11  N   UNL     1       2.111   0.069   0.527  0.00  0.00    +0.000 NA
ENDBRANCH   4  11
ENDBRANCH   1   4
BRANCH   3  12
ATOM     12  C   UNL     1      -2.590  -1.562  -0.109  0.00  0.00    +0.000 C 
BRANCH  12  13
ATOM     13  C   UNL     1      -3.361  -0.216  -0.625  0.00  0.00    +0.000 C 
ATOM     14  C   UNL     1      -4.688  -0.480   0.394  0.00  0.00    +0.000 C 
ATOM     15  C   UNL     1      -4.921   0.935   0.808  0.00  0.00    +0.000 C 
ATOM     16  C   UNL     1      -3.708   1.738   0.347  0.00  0.00    +0.000 C 
ATOM     17  O   UNL     1      -2.723   0.726   0.376  0.00  0.00    +0.000 OA
ENDBRANCH  12  13
ENDBRANCH   3  12
TORSDOF 4
