REMARK  Name = 
REMARK  2 active torsions:
REMARK  status: ('A' for Active; 'I' for Inactive)
REMARK    1  A    between atoms: C_12  and  N_13
REMARK    2  A    between atoms: N_13  and  C_14
REMARK                            x       y       z     vdW  Elec       q    Type
REMARK                         _______ _______ _______ _____ _____    ______ ____
ROOT
ATOM      1  C   UNL     1       5.429   2.128   0.665  0.00  0.00    +0.000 C 
ATOM      2  C   UNL     1       4.130   1.149   0.995  0.00  0.00    +0.000 C 
ATOM      3  C   UNL     1       3.130   1.995   0.026  0.00  0.00    +0.000 C 
ATOM      4  C   UNL     1       1.941   1.274  -0.305  0.00  0.00    +0.000 C 
ATOM      5  C   UNL     1       2.021  -0.231  -0.144  0.00  0.00    +0.000 A 
ATOM      6  C   UNL     1       3.289  -0.762  -0.130  0.00  0.00    +0.000 A 
ATOM      7  S   UNL     1       3.015  -2.436   0.054  0.00  0.00    +0.000 S 
ATOM      8  C   UNL     1       1.319  -2.423   0.109  0.00  0.00    +0.000 A 
ATOM      9  N   UNL     1       0.395  -3.417   0.244  0.00  0.00    +0.000 NA
ATOM     10  C   UNL     1      -0.939  -3.144   0.260  0.00  0.00    +0.000 A 
ATOM     11  N   UNL     1      -1.257  -1.861   0.136  0.00  0.00    +0.000 NA
ATOM     12  C   UNL     1      -0.389  -0.854   0.001  0.00  0.00    +0.000 A 
ATOM     13  C   UNL     1       0.993  -1.110  -0.018  0.00  0.00    +0.000 A 
ATOM     14  C   UNL     1       4.521   0.113  -0.256  0.00  0.00    +0.000 C 
ENDROOT
BRANCH  12  15
ATOM     15  N   UNL     1      -0.906   0.454  -0.119  0.00  0.00    +0.000 NA
BRANCH  15  16
ATOM     16  C   UNL     1      -2.297   0.723  -0.101  0.00  0.00    +0.000 A 
ATOM     17  C   UNL     1      -3.161  -0.339   0.039  0.00  0.00    +0.000 A 
ATOM     18  C   UNL     1      -4.546  -0.154   0.066  0.00  0.00    +0.000 A 
ATOM     19  C   UNL     1      -4.998   1.137  -0.054  0.00  0.00    +0.000 A 
ATOM     20  C   UNL     1      -4.176   2.235  -0.197  0.00  0.00    +0.000 A 
ATOM     21  O   UNL     1      -4.699   3.531  -0.315  0.00  0.00    +0.000 OA
ATOM     22  C   UNL     1      -2.814   1.993  -0.217  0.00  0.00    +0.000 A 
ENDBRANCH  15  16
ENDBRANCH  12  15
TORSDOF 2
