REMARK  Name = 
REMARK  4 active torsions:
REMARK  status: ('A' for Active; 'I' for Inactive)
REMARK    1  A    between atoms: C_7  and  N_8
REMARK    2  A    between atoms: N_8  and  C_9
REMARK    3  A    between atoms: C_9  and  N_11
REMARK    4  A    between atoms: N_11  and  C_13
REMARK                            x       y       z     vdW  Elec       q    Type
REMARK                         _______ _______ _______ _____ _____    ______ ____
ROOT
ATOM      1  C   UNL     1      -0.289  -0.918   0.037  0.00  0.00    +0.000 C 
ATOM      2  S   UNL     1      -1.577  -2.014   0.162  0.00  0.00    +0.000 S 
ENDROOT
BRANCH   1   3
ATOM      3  N   UNL     1      -0.723   0.413  -0.130  0.00  0.00    +0.000 N 
ATOM      4  C   UNL     1       0.222   1.509  -0.257  0.00  0.00    +0.000 C 
BRANCH   3   5
ATOM      5  C   UNL     1      -2.134   0.715  -0.189  0.00  0.00    +0.000 A 
ATOM      6  C   UNL     1      -2.871   0.679  -1.348  0.00  0.00    +0.000 A 
ATOM      7  C   UNL     1      -4.215   0.980  -1.376  0.00  0.00    +0.000 A 
ATOM      8  C   UNL     1      -4.844   1.330  -0.195  0.00  0.00    +0.000 A 
ATOM      9  O   UNL     1      -6.191   1.649  -0.124  0.00  0.00    +0.000 OA
ATOM     10  C   UNL     1      -4.130   1.377   1.000  0.00  0.00    +0.000 A 
ATOM     11  C   UNL     1      -2.787   1.065   0.966  0.00  0.00    +0.000 A 
ENDBRANCH   3   5
ENDBRANCH   1   3
BRANCH   1  12
ATOM     12  N   UNL     1       0.934  -1.486   0.117  0.00  0.00    +0.000 NA
BRANCH  12  19
ATOM     13  C   UNL     1       4.296   2.130  -0.253  0.00  0.00    +0.000 C 
ATOM     14  C   UNL     1       3.932   0.693  -0.105  0.00  0.00    +0.000 A 
ATOM     15  C   UNL     1       4.907  -0.307  -0.002  0.00  0.00    +0.000 A 
ATOM     16  C   UNL     1       4.550  -1.621   0.133  0.00  0.00    +0.000 A 
ATOM     17  C   UNL     1       3.246  -2.023   0.173  0.00  0.00    +0.000 A 
ATOM     18  C   UNL     1       2.812  -3.431   0.317  0.00  0.00    +0.000 C 
ATOM     19  C   UNL     1       2.232  -1.031   0.070  0.00  0.00    +0.000 A 
ATOM     20  C   UNL     1       2.628   0.291  -0.065  0.00  0.00    +0.000 A 
ENDBRANCH  12  19
ENDBRANCH   1  12
TORSDOF 4
