REMARK  Name = 
REMARK  4 active torsions:
REMARK  status: ('A' for Active; 'I' for Inactive)
REMARK    1  A    between atoms: C_2  and  C_3
REMARK    2  A    between atoms: C_3  and  N_4
REMARK    3  A    between atoms: N_4  and  C_5
REMARK    4  A    between atoms: N_12  and  N_13
REMARK                            x       y       z     vdW  Elec       q    Type
REMARK                         _______ _______ _______ _____ _____    ______ ____
ROOT
ATOM      1  O   UNL     1       0.770  -3.184  -0.100  0.00  0.00    +0.000 OA
ATOM      2  C   UNL     1       0.386  -1.992  -0.069  0.00  0.00    +0.000 C 
ATOM      3  N   UNL     1       1.370  -0.977  -0.212  0.00  0.00    +0.000 NA
ENDROOT
BRANCH   3   4
ATOM      4  N   UNL     1       2.717  -1.301  -0.381  0.00  0.00    +0.000 NA
ATOM      5  C   UNL     1       3.605  -0.438  -0.114  0.00  0.00    +0.000 C 
ATOM      6  C   UNL     1       3.386   0.929   0.375  0.00  0.00    +0.000 C 
ATOM      7  C   UNL     1       4.517   1.741  -0.221  0.00  0.00    +0.000 C 
ATOM      8  C   UNL     1       5.502   0.723  -0.776  0.00  0.00    +0.000 C 
ATOM      9  C   UNL     1       5.061  -0.621  -0.238  0.00  0.00    +0.000 C 
ENDBRANCH   3   4
BRANCH   2  10
ATOM     10  C   UNL     1      -1.066  -1.675   0.114  0.00  0.00    +0.000 C 
BRANCH  10  11
ATOM     11  N   UNL     1      -1.271  -0.243   0.118  0.00  0.00    +0.000 NA
BRANCH  11  12
ATOM     12  C   UNL     1      -2.602   0.232   0.283  0.00  0.00    +0.000 A 
ATOM     13  C   UNL     1      -3.678  -0.615   0.435  0.00  0.00    +0.000 A 
ATOM     14  C   UNL     1      -4.963  -0.160   0.595  0.00  0.00    +0.000 A 
ATOM     15  C   UNL     1      -5.226   1.208   0.607  0.00  0.00    +0.000 A 
ATOM     16  C   UNL     1      -4.154   2.062   0.456  0.00  0.00    +0.000 A 
ATOM     17  C   UNL     1      -2.857   1.604   0.295  0.00  0.00    +0.000 A 
ATOM     18 CL   UNL     1      -1.500   2.705   0.102  0.00  0.00    +0.000 Cl
ENDBRANCH  11  12
ENDBRANCH  10  11
ENDBRANCH   2  10
TORSDOF 4
