REMARK  Name = 
REMARK  3 active torsions:
REMARK  status: ('A' for Active; 'I' for Inactive)
REMARK    1  A    between atoms: S_2  and  C_3
REMARK    2  A    between atoms: C_7  and  C_8
REMARK    3  A    between atoms: C_15  and  C_16
REMARK                            x       y       z     vdW  Elec       q    Type
REMARK                         _______ _______ _______ _____ _____    ______ ____
ROOT
ATOM      1  C   UNL     1       2.068  -1.432   0.141  0.00  0.00    +0.000 A 
ATOM      2  N   UNL     1       2.811  -0.324   0.273  0.00  0.00    +0.000 NA
ATOM      3  C   UNL     1       2.244   0.908   0.345  0.00  0.00    +0.000 A 
ATOM      4  C   UNL     1       0.886   1.052   0.283  0.00  0.00    +0.000 A 
ATOM      5  C   UNL     1       0.060  -0.076   0.146  0.00  0.00    +0.000 A 
ATOM      6  C   UNL     1       0.690  -1.291   0.079  0.00  0.00    +0.000 A 
ATOM      7  C   UNL     1       0.171   2.343   0.354  0.00  0.00    +0.000 C 
ATOM      8  C   UNL     1       1.052   3.466   0.803  0.00  0.00    +0.000 C 
ATOM      9  C   UNL     1       2.407   3.387   0.129  0.00  0.00    +0.000 C 
ATOM     10  C   UNL     1       3.112   2.099   0.493  0.00  0.00    +0.000 C 
ENDROOT
BRANCH   5  11
ATOM     11  C   UNL     1      -1.374   0.055   0.075  0.00  0.00    +0.000 A 
ATOM     12  C   UNL     1      -2.182   0.250   1.168  0.00  0.00    +0.000 A 
ATOM     13  C   UNL     1      -3.555   0.410   1.075  0.00  0.00    +0.000 A 
ATOM     14  C   UNL     1      -4.154   0.371  -0.193  0.00  0.00    +0.000 A 
ATOM     15  O   UNL     1      -5.539   0.538  -0.247  0.00  0.00    +0.000 OA
ATOM     16  C   UNL     1      -3.339   0.175  -1.262  0.00  0.00    +0.000 A 
ATOM     17  C   UNL     1      -1.968   0.016  -1.170  0.00  0.00    +0.000 A 
ENDBRANCH   5  11
BRANCH   1  19
ATOM     18  C   UNL     1       4.608  -2.926   0.151  0.00  0.00    +0.000 C 
ATOM     19  S   UNL     1       2.800  -3.061   0.046  0.00  0.00    +0.000 S 
ENDBRANCH   1  19
BRANCH   6  20
ATOM     20  C   UNL     1      -0.087  -2.486  -0.061  0.00  0.00    +0.000 C 
ATOM     21  N   UNL     1      -0.709  -3.476  -0.175  0.00  0.00    +0.000 NA
ENDBRANCH   6  20
TORSDOF 3
