REMARK  Name = 
REMARK  4 active torsions:
REMARK  status: ('A' for Active; 'I' for Inactive)
REMARK    1  A    between atoms: C_2  and  C_4
REMARK    2  A    between atoms: C_6  and  C_7
REMARK    3  A    between atoms: N_9  and  N_10
REMARK    4  A    between atoms: C_11  and  C_12
REMARK                            x       y       z     vdW  Elec       q    Type
REMARK                         _______ _______ _______ _____ _____    ______ ____
ROOT
ATOM      1  C   UNL     1       1.028  -0.119   0.058  0.00  0.00    +0.000 C 
ATOM      2  O   UNL     1       0.493   0.320  -0.992  0.00  0.00    +0.000 OA
ATOM      3  N   UNL     1       0.157  -0.641   1.054  0.00  0.00    +0.000 NA
ENDROOT
BRANCH   1   6
ATOM      4  C   UNL     1       4.650   0.277  -0.190  0.00  0.00    +0.000 A 
ATOM      5  C   UNL     1       3.371   0.404  -0.687  0.00  0.00    +0.000 A 
ATOM      6  C   UNL     1       2.477  -0.087   0.236  0.00  0.00    +0.000 A 
ATOM      7  N   UNL     1       3.211  -0.505   1.276  0.00  0.00    +0.000 NA
ATOM      8  N   UNL     1       4.507  -0.289   1.024  0.00  0.00    +0.000 NA
BRANCH   4  10
ATOM      9  C   UNL     1       6.510  -0.568  -1.503  0.00  0.00    +0.000 C 
ATOM     10  C   UNL     1       5.941   0.675  -0.842  0.00  0.00    +0.000 C 
ATOM     11  C   UNL     1       6.893   1.002   0.315  0.00  0.00    +0.000 C 
ENDBRANCH   4  10
ENDBRANCH   1   6
BRANCH   3  12
ATOM     12  N   UNL     1      -1.225  -0.684   0.912  0.00  0.00    +0.000 NA
ATOM     13  C   UNL     1      -1.920   0.101   0.196  0.00  0.00    +0.000 C 
BRANCH  13  14
ATOM     14  C   UNL     1      -3.373   0.026   0.071  0.00  0.00    +0.000 A 
ATOM     15  C   UNL     1      -4.037   0.928  -0.735  0.00  0.00    +0.000 A 
ATOM     16  C   UNL     1      -5.408   0.909  -0.893  0.00  0.00    +0.000 A 
ATOM     17  C   UNL     1      -6.132  -0.054  -0.215  0.00  0.00    +0.000 A 
ATOM     18  F   UNL     1      -7.479  -0.027  -0.408  0.00  0.00    +0.000 F 
ATOM     19  C   UNL     1      -5.518  -0.975   0.599  0.00  0.00    +0.000 A 
ATOM     20  C   UNL     1      -4.145  -0.912   0.724  0.00  0.00    +0.000 A 
ENDBRANCH  13  14
ENDBRANCH   3  12
TORSDOF 4
