REMARK  Name = 
REMARK  2 active torsions:
REMARK  status: ('A' for Active; 'I' for Inactive)
REMARK    1  A    between atoms: C_2  and  C_4
REMARK    2  A    between atoms: C_5  and  C_6
REMARK                            x       y       z     vdW  Elec       q    Type
REMARK                         _______ _______ _______ _____ _____    ______ ____
ROOT
ATOM      1  C   UNL     1      -2.043   0.707  -0.255  0.00  0.00    +0.000 A 
ATOM      2  C   UNL     1      -1.069  -0.242  -0.015  0.00  0.00    +0.000 A 
ATOM      3  C   UNL     1      -1.669  -1.513   0.121  0.00  0.00    +0.000 A 
ATOM      4  N   UNL     1      -0.957  -2.713   0.374  0.00  0.00    +0.000 NA
ATOM      5  N   UNL     1      -2.979  -1.319  -0.036  0.00  0.00    +0.000 N 
ATOM      6  C   UNL     1      -3.989  -2.356   0.024  0.00  0.00    +0.000 C 
ATOM      7  C   UNL     1      -3.238  -0.028  -0.259  0.00  0.00    +0.000 A 
ATOM      8  O   UNL     1      -4.484   0.512  -0.463  0.00  0.00    +0.000 OA
ENDROOT
BRANCH   2   9
ATOM      9  C   UNL     1       0.366  -0.021   0.091  0.00  0.00    +0.000 A 
ATOM     10  N   UNL     1       1.263  -0.961   0.322  0.00  0.00    +0.000 NA
ATOM     11  C   UNL     1       2.529  -0.655   0.399  0.00  0.00    +0.000 A 
ATOM     12  C   UNL     1       3.603  -1.542   0.639  0.00  0.00    +0.000 A 
ATOM     13  C   UNL     1       4.884  -1.067   0.691  0.00  0.00    +0.000 A 
ATOM     14  C   UNL     1       5.244   0.232   0.527  0.00  0.00    +0.000 A 
ATOM     15  C   UNL     1       4.197   1.129   0.288  0.00  0.00    +0.000 A 
ATOM     16  C   UNL     1       2.882   0.652   0.233  0.00  0.00    +0.000 A 
ATOM     17  S   UNL     1       1.333   1.351  -0.025  0.00  0.00    +0.000 S 
ENDBRANCH   2   9
BRANCH   1  19
ATOM     18  C   UNL     1      -0.796   2.967  -0.479  0.00  0.00    +0.000 C 
ATOM     19  C   UNL     1      -1.990   2.119  -0.465  0.00  0.00    +0.000 C 
ATOM     20  O   UNL     1      -3.087   2.747  -0.668  0.00  0.00    +0.000 OA
ENDBRANCH   1  19
TORSDOF 2
