REMARK  Name = 
REMARK  2 active torsions:
REMARK  status: ('A' for Active; 'I' for Inactive)
REMARK    1  A    between atoms: C_4  and  C_5
REMARK    2  A    between atoms: C_8  and  C_9
REMARK                            x       y       z     vdW  Elec       q    Type
REMARK                         _______ _______ _______ _____ _____    ______ ____
ROOT
ATOM      1  C   UNL     1      -1.322   0.281  -0.222  0.00  0.00    +0.000 A 
ATOM      2  C   UNL     1      -0.523   1.250  -0.757  0.00  0.00    +0.000 A 
ATOM      3  C   UNL     1       0.855   1.188  -0.729  0.00  0.00    +0.000 A 
ATOM      4  C   UNL     1       1.482   0.111  -0.140  0.00  0.00    +0.000 A 
ATOM      5  C   UNL     1       0.669  -0.866   0.400  0.00  0.00    +0.000 A 
ATOM      6  C   UNL     1      -0.704  -0.804   0.371  0.00  0.00    +0.000 A 
ENDROOT
BRANCH   1  10
ATOM      7  N   UNL     1      -5.893  -1.307   0.667  0.00  0.00    +0.000 NA
ATOM      8  C   UNL     1      -4.901  -0.384   0.157  0.00  0.00    +0.000 A 
ATOM      9  N   UNL     1      -3.593  -0.542   0.238  0.00  0.00    +0.000 NA
ATOM     10  C   UNL     1      -2.809   0.364  -0.262  0.00  0.00    +0.000 A 
ATOM     11  C   UNL     1      -3.407   1.451  -0.856  0.00  0.00    +0.000 A 
ATOM     12  S   UNL     1      -5.065   1.101  -0.658  0.00  0.00    +0.000 S 
ENDBRANCH   1  10
BRANCH   4  13
ATOM     13  C   UNL     1       2.926  -0.070  -0.046  0.00  0.00    +0.000 C 
ATOM     14  C   UNL     1       3.624  -0.426  -1.295  0.00  0.00    +0.000 C 
ATOM     15  C   UNL     1       4.897  -1.191  -0.928  0.00  0.00    +0.000 C 
ATOM     16  C   UNL     1       5.096  -1.203   0.583  0.00  0.00    +0.000 C 
ATOM     17  C   UNL     1       5.028   0.222   1.139  0.00  0.00    +0.000 C 
ATOM     18  C   UNL     1       3.642   0.824   0.882  0.00  0.00    +0.000 C 
ENDBRANCH   4  13
TORSDOF 2
