REMARK  Name = 
REMARK  3 active torsions:
REMARK  status: ('A' for Active; 'I' for Inactive)
REMARK    1  A    between atoms: C_10  and  N_11
REMARK    2  A    between atoms: C_12  and  C_14
REMARK    3  A    between atoms: C_17  and  N_18
REMARK                            x       y       z     vdW  Elec       q    Type
REMARK                         _______ _______ _______ _____ _____    ______ ____
ROOT
ATOM      1  N   UNL     1      -0.779   0.420   1.030  0.00  0.00    +0.000 NA
ATOM      2  C   UNL     1      -0.206  -0.224  -0.036  0.00  0.00    +0.000 C 
ATOM      3  O   UNL     1      -0.928  -0.770  -0.891  0.00  0.00    +0.000 OA
ENDROOT
BRANCH   1  13
ATOM      4  C   UNL     1      -1.873   1.635  -0.946  0.00  0.00    +0.000 C 
ATOM      5  C   UNL     1      -2.673   1.665   0.252  0.00  0.00    +0.000 C 
ATOM      6  C   UNL     1      -2.848   2.982   0.933  0.00  0.00    +0.000 C 
ATOM      7  C   UNL     1      -4.161   1.115  -0.091  0.00  0.00    +0.000 C 
ATOM      8  C   UNL     1      -4.590   0.756   1.441  0.00  0.00    +0.000 C 
ATOM      9  C   UNL     1      -4.240  -0.661   1.588  0.00  0.00    +0.000 C 
ATOM     10  C   UNL     1      -2.933  -0.702   0.748  0.00  0.00    +0.000 C 
ATOM     11  C   UNL     1      -2.216  -1.933   0.999  0.00  0.00    +0.000 C 
ATOM     12  C   UNL     1      -3.565  -0.338  -0.475  0.00  0.00    +0.000 C 
ATOM     13  C   UNL     1      -2.224   0.589   1.365  0.00  0.00    +0.000 C 
ENDBRANCH   1  13
BRANCH   2  14
ATOM     14  C   UNL     1       1.239  -0.353  -0.308  0.00  0.00    +0.000 A 
ATOM     15  C   UNL     1       1.744  -1.006  -1.383  0.00  0.00    +0.000 A 
ATOM     16  C   UNL     1       3.095  -1.119  -1.625  0.00  0.00    +0.000 A 
ATOM     17  C   UNL     1       3.997  -0.542  -0.733  0.00  0.00    +0.000 A 
ATOM     18  C   UNL     1       3.518   0.126   0.365  0.00  0.00    +0.000 A 
ATOM     19  C   UNL     1       2.157   0.210   0.561  0.00  0.00    +0.000 A 
BRANCH  17  20
ATOM     20  N   UNL     1       5.386  -0.611  -0.904  0.00  0.00    +0.000 N 
ATOM     21  O   UNL     1       5.859  -1.206  -1.884  0.00  0.00    +0.000 OA
ATOM     22  O   UNL     1       6.242  -0.032  -0.007  0.00  0.00    +0.000 OA
ENDBRANCH  17  20
ENDBRANCH   2  14
TORSDOF 3
