REMARK  Name = 
REMARK  3 active torsions:
REMARK  status: ('A' for Active; 'I' for Inactive)
REMARK    1  A    between atoms: C_2  and  C_3
REMARK    2  A    between atoms: C_3  and  N_5
REMARK    3  A    between atoms: C_7  and  C_8
REMARK                            x       y       z     vdW  Elec       q    Type
REMARK                         _______ _______ _______ _____ _____    ______ ____
ROOT
ATOM      1  N   UNL     1      -1.886  -0.339  -0.544  0.00  0.00    +0.000 N 
ATOM      2  C   UNL     1      -0.664  -0.783  -0.518  0.00  0.00    +0.000 A 
ATOM      3  C   UNL     1       0.094  -0.009   0.325  0.00  0.00    +0.000 A 
ATOM      4  C   UNL     1      -0.773   0.951   0.815  0.00  0.00    +0.000 A 
ATOM      5  C   UNL     1      -0.683   2.042   1.701  0.00  0.00    +0.000 A 
ATOM      6  C   UNL     1      -1.704   2.880   2.049  0.00  0.00    +0.000 A 
ATOM      7  C   UNL     1      -2.916   2.611   1.465  0.00  0.00    +0.000 A 
ATOM      8  C   UNL     1      -3.095   1.564   0.585  0.00  0.00    +0.000 A 
ATOM      9  C   UNL     1      -2.045   0.737   0.256  0.00  0.00    +0.000 A 
ENDROOT
BRANCH   3  10
ATOM     10  C   UNL     1       1.410   0.095   0.810  0.00  0.00    +0.000 C 
ATOM     11  C   UNL     1       2.560  -0.074   0.336  0.00  0.00    +0.000 C 
ATOM     12  N   UNL     1       3.816   0.080   0.988  0.00  0.00    +0.000 NA
ATOM     13  C   UNL     1       4.803  -0.230   0.012  0.00  0.00    +0.000 C 
ATOM     14  O   UNL     1       6.053  -0.202   0.226  0.00  0.00    +0.000 OA
ATOM     15  N   UNL     1       4.136  -0.564  -1.204  0.00  0.00    +0.000 NA
ATOM     16  C   UNL     1       2.700  -0.475  -1.032  0.00  0.00    +0.000 C 
ATOM     17  O   UNL     1       1.786  -0.689  -1.857  0.00  0.00    +0.000 OA
ENDBRANCH   3  10
BRANCH   1  18
ATOM     18  C   UNL     1      -3.081  -0.881  -1.366  0.00  0.00    +0.000 C 
ATOM     19  C   UNL     1      -4.042  -1.129  -0.059  0.00  0.00    +0.000 C 
BRANCH  18  21
ATOM     20  C   UNL     1      -3.895  -3.149  -1.590  0.00  0.00    +0.000 C 
ATOM     21  C   UNL     1      -2.573  -2.438  -1.398  0.00  0.00    +0.000 C 
ENDBRANCH  18  21
ENDBRANCH   1  18
TORSDOF 3
