REMARK  Name = 
REMARK  5 active torsions:
REMARK  status: ('A' for Active; 'I' for Inactive)
REMARK    1  A    between atoms: C_2  and  O_3
REMARK    2  A    between atoms: O_3  and  C_4
REMARK    3  A    between atoms: C_4  and  C_6
REMARK    4  A    between atoms: C_7  and  C_8
REMARK    5  A    between atoms: C_14  and  C_15
REMARK                            x       y       z     vdW  Elec       q    Type
REMARK                         _______ _______ _______ _____ _____    ______ ____
ROOT
ATOM      1  C   UNL     1       0.534  -0.110   0.758  0.00  0.00    +0.000 C 
ATOM      2  C   UNL     1       1.464  -0.757   0.112  0.00  0.00    +0.000 C 
ATOM      3  N   UNL     1       1.386  -2.114  -0.294  0.00  0.00    +0.000 NA
ATOM      4  C   UNL     1       0.159  -2.757   0.081  0.00  0.00    +0.000 C 
ATOM      5  O   UNL     1      -0.025  -3.986  -0.238  0.00  0.00    +0.000 OA
ATOM      6  N   UNL     1      -0.826  -2.098   0.773  0.00  0.00    +0.000 NA
ATOM      7  C   UNL     1      -0.858  -0.670   1.059  0.00  0.00    +0.000 C 
ENDROOT
BRANCH   7   8
ATOM      8  C   UNL     1      -1.640  -0.120  -0.161  0.00  0.00    +0.000 A 
ATOM      9  C   UNL     1      -1.425   1.179  -0.481  0.00  0.00    +0.000 A 
ATOM     10  C   UNL     1      -2.093   1.771  -1.573  0.00  0.00    +0.000 A 
ATOM     11  C   UNL     1      -2.955   1.009  -2.297  0.00  0.00    +0.000 A 
ATOM     12  C   UNL     1      -3.182  -0.294  -1.991  0.00  0.00    +0.000 A 
ATOM     13  C   UNL     1      -2.511  -0.848  -0.911  0.00  0.00    +0.000 A 
ATOM     14  O   UNL     1      -2.717  -2.172  -0.571  0.00  0.00    +0.000 OA
ENDBRANCH   7   8
BRANCH   1  15
ATOM     15  C   UNL     1       0.814   1.258   1.166  0.00  0.00    +0.000 C 
ATOM     16  O   UNL     1      -0.042   1.909   1.784  0.00  0.00    +0.000 OA
BRANCH  15  17
ATOM     17  O   UNL     1       1.979   1.922   0.921  0.00  0.00    +0.000 OA
BRANCH  17  19
ATOM     18  C   UNL     1       3.671   3.719   0.888  0.00  0.00    +0.000 C 
ATOM     19  C   UNL     1       2.473   3.106   1.166  0.00  0.00    +0.000 C 
ENDBRANCH  17  19
ENDBRANCH  15  17
ENDBRANCH   1  15
BRANCH   2  20
ATOM     20  C   UNL     1       2.774  -0.011  -0.170  0.00  0.00    +0.000 C 
ATOM     21 CL   UNL     1       3.019   0.066  -1.905  0.00  0.00    +0.000 Cl
ENDBRANCH   2  20
TORSDOF 5
