REMARK  Name = 
REMARK  3 active torsions:
REMARK  status: ('A' for Active; 'I' for Inactive)
REMARK    1  A    between atoms: O_2  and  C_3
REMARK    2  A    between atoms: N_15  and  C_16
REMARK    3  A    between atoms: C_16  and  C_17
REMARK                            x       y       z     vdW  Elec       q    Type
REMARK                         _______ _______ _______ _____ _____    ______ ____
ROOT
ATOM      1  C   UNL     1       0.475  -0.046   2.068  0.00  0.00    +0.000 A 
ATOM      2  C   UNL     1      -0.156   1.020   2.697  0.00  0.00    +0.000 A 
ATOM      3  C   UNL     1      -1.327   1.495   2.104  0.00  0.00    +0.000 A 
ATOM      4  O   UNL     1      -1.954   2.453   2.611  0.00  0.00    +0.000 OA
ATOM      5  C   UNL     1      -1.800   0.898   0.944  0.00  0.00    +0.000 A 
ATOM      6  C   UNL     1      -2.955   1.382   0.378  0.00  0.00    +0.000 A 
ATOM      7  C   UNL     1      -3.461   0.812  -0.783  0.00  0.00    +0.000 A 
ATOM      8  C   UNL     1      -4.720   1.381  -1.353  0.00  0.00    +0.000 C 
ATOM      9  C   UNL     1      -2.802  -0.246  -1.375  0.00  0.00    +0.000 A 
ATOM     10  C   UNL     1      -3.397  -0.808  -2.615  0.00  0.00    +0.000 C 
ATOM     11  C   UNL     1      -1.638  -0.737  -0.808  0.00  0.00    +0.000 A 
ATOM     12  C   UNL     1      -1.139  -0.165   0.349  0.00  0.00    +0.000 A 
ATOM     13  N   UNL     1      -0.013  -0.597   0.946  0.00  0.00    +0.000 N 
ENDROOT
BRANCH   1  15
ATOM     14  C   UNL     1       2.210  -0.045   3.769  0.00  0.00    +0.000 C 
ATOM     15  O   UNL     1       1.645  -0.587   2.583  0.00  0.00    +0.000 OA
ENDBRANCH   1  15
BRANCH  13  16
ATOM     16  C   UNL     1       0.679  -1.709   0.324  0.00  0.00    +0.000 C 
BRANCH  16  17
ATOM     17  C   UNL     1       1.685  -1.228  -0.671  0.00  0.00    +0.000 A 
ATOM     18  C   UNL     1       1.362  -1.030  -1.997  0.00  0.00    +0.000 A 
ATOM     19  C   UNL     1       2.281  -0.586  -2.926  0.00  0.00    +0.000 A 
ATOM     20  C   UNL     1       3.585  -0.316  -2.561  0.00  0.00    +0.000 A 
ATOM     21  O   UNL     1       4.543   0.132  -3.462  0.00  0.00    +0.000 OA
ATOM     22  C   UNL     1       3.909  -0.515  -1.233  0.00  0.00    +0.000 A 
ATOM     23  C   UNL     1       2.988  -0.958  -0.308  0.00  0.00    +0.000 A 
ENDBRANCH  16  17
ENDBRANCH  13  16
TORSDOF 3
