REMARK  Name = 
REMARK  3 active torsions:
REMARK  status: ('A' for Active; 'I' for Inactive)
REMARK    1  A    between atoms: O_2  and  C_3
REMARK    2  A    between atoms: N_5  and  C_6
REMARK    3  A    between atoms: C_17  and  O_18
REMARK                            x       y       z     vdW  Elec       q    Type
REMARK                         _______ _______ _______ _____ _____    ______ ____
ROOT
ATOM      1  C   UNL     1       0.711  -0.524   0.675  0.00  0.00    +0.000 C 
ATOM      2  C   UNL     1       0.436  -1.970   0.107  0.00  0.00    +0.000 A 
ATOM      3  C   UNL     1       0.620  -2.961   1.108  0.00  0.00    +0.000 A 
ATOM      4  C   UNL     1       0.408  -4.266   0.733  0.00  0.00    +0.000 A 
ATOM      5  C   UNL     1       0.036  -4.561  -0.561  0.00  0.00    +0.000 A 
ATOM      6  C   UNL     1      -0.137  -3.557  -1.527  0.00  0.00    +0.000 A 
ATOM      7  C   UNL     1       0.081  -2.258  -1.125  0.00  0.00    +0.000 A 
ATOM      8  O   UNL     1      -0.064  -1.232  -1.992  0.00  0.00    +0.000 OA
ATOM      9  C   UNL     1       0.110   0.096  -1.766  0.00  0.00    +0.000 A 
ATOM     10  C   UNL     1      -0.065   1.079  -2.733  0.00  0.00    +0.000 A 
ATOM     11  C   UNL     1       0.136   2.410  -2.405  0.00  0.00    +0.000 A 
ATOM     12  C   UNL     1       0.509   2.779  -1.131  0.00  0.00    +0.000 A 
ATOM     13  C   UNL     1       0.675   1.791  -0.199  0.00  0.00    +0.000 A 
ATOM     14  C   UNL     1       0.464   0.438  -0.555  0.00  0.00    +0.000 A 
ENDROOT
BRANCH   1  17
ATOM     15  C   UNL     1      -0.766   0.496   2.456  0.00  0.00    +0.000 C 
ATOM     16  O   UNL     1       0.302   0.976   2.908  0.00  0.00    +0.000 OA
ATOM     17  N   UNL     1      -0.748  -0.325   1.280  0.00  0.00    +0.000 NA
BRANCH  15  19
ATOM     18  C   UNL     1      -2.008   1.576   4.272  0.00  0.00    +0.000 C 
ATOM     19  O   UNL     1      -1.932   0.770   3.104  0.00  0.00    +0.000 OA
ENDBRANCH  15  19
ENDBRANCH   1  17
BRANCH  12  20
ATOM     20  O   UNL     1       0.711   4.141  -0.814  0.00  0.00    +0.000 OA
ATOM     21  C   UNL     1       0.519   5.102  -1.834  0.00  0.00    +0.000 C 
ENDBRANCH  12  20
TORSDOF 3
