REMARK  Name = 
REMARK  3 active torsions:
REMARK  status: ('A' for Active; 'I' for Inactive)
REMARK    1  A    between atoms: C_7  and  N_8
REMARK    2  A    between atoms: N_8  and  C_9
REMARK    3  A    between atoms: C_12  and  C_13
REMARK                            x       y       z     vdW  Elec       q    Type
REMARK                         _______ _______ _______ _____ _____    ______ ____
ROOT
ATOM      1  C   UNL     1      -2.933  -3.236  -0.075  0.00  0.00    +0.000 C 
ATOM      2  C   UNL     1      -2.851  -1.760   0.025  0.00  0.00    +0.000 A 
ATOM      3  C   UNL     1      -4.039  -1.038   0.180  0.00  0.00    +0.000 A 
ATOM      4  C   UNL     1      -3.953   0.337   0.272  0.00  0.00    +0.000 A 
ATOM      5  C   UNL     1      -2.739   0.972   0.214  0.00  0.00    +0.000 A 
ATOM      6  N   UNL     1      -1.594   0.282   0.065  0.00  0.00    +0.000 N 
ATOM      7  C   UNL     1      -0.327   0.696  -0.014  0.00  0.00    +0.000 A 
ATOM      8  C   UNL     1       0.442  -0.452  -0.163  0.00  0.00    +0.000 A 
ATOM      9  N   UNL     1      -0.390  -1.497  -0.168  0.00  0.00    +0.000 NA
ATOM     10  C   UNL     1      -1.664  -1.059  -0.026  0.00  0.00    +0.000 A 
ENDROOT
BRANCH   8  11
ATOM     11  C   UNL     1       1.903  -0.491  -0.292  0.00  0.00    +0.000 A 
ATOM     12  C   UNL     1       2.622   0.688  -0.268  0.00  0.00    +0.000 A 
ATOM     13  C   UNL     1       3.995   0.603  -0.392  0.00  0.00    +0.000 A 
ATOM     14  C   UNL     1       4.638  -0.607  -0.535  0.00  0.00    +0.000 A 
ATOM     15  C   UNL     1       3.885  -1.758  -0.554  0.00  0.00    +0.000 A 
ATOM     16  C   UNL     1       2.531  -1.700  -0.434  0.00  0.00    +0.000 A 
ATOM     17  O   UNL     1       1.772  -2.861  -0.453  0.00  0.00    +0.000 OA
ENDBRANCH   8  11
BRANCH   7  18
ATOM     18  N   UNL     1       0.229   1.993   0.033  0.00  0.00    +0.000 NA
BRANCH  18  19
ATOM     19  C   UNL     1      -0.534   3.196   0.186  0.00  0.00    +0.000 C 
ATOM     20  C   UNL     1       0.420   4.369   0.189  0.00  0.00    +0.000 C 
ATOM     21  C   UNL     1      -1.413   3.322  -1.065  0.00  0.00    +0.000 C 
ENDBRANCH  18  19
ENDBRANCH   7  18
TORSDOF 3
