REMARK  Name = 
REMARK  3 active torsions:
REMARK  status: ('A' for Active; 'I' for Inactive)
REMARK    1  A    between atoms: C_2  and  C_3
REMARK    2  A    between atoms: C_3  and  C_4
REMARK    3  A    between atoms: C_4  and  N_5
REMARK                            x       y       z     vdW  Elec       q    Type
REMARK                         _______ _______ _______ _____ _____    ______ ____
ROOT
ATOM      1  N   UNL     1       2.547   0.512  -0.520  0.00  0.00    +0.000 NA
ATOM      2  C   UNL     1       1.455   0.063   0.256  0.00  0.00    +0.000 A 
ATOM      3  N   UNL     1       1.687  -0.610   1.383  0.00  0.00    +0.000 NA
ATOM      4  C   UNL     1       0.690  -1.063   2.166  0.00  0.00    +0.000 A 
ATOM      5  N   UNL     1      -0.588  -0.834   1.802  0.00  0.00    +0.000 NA
ATOM      6  C   UNL     1      -0.913  -0.167   0.685  0.00  0.00    +0.000 A 
ATOM      7  C   UNL     1       0.140   0.286  -0.097  0.00  0.00    +0.000 A 
ATOM      8  N   UNL     1      -0.435   0.910  -1.137  0.00  0.00    +0.000 NA
ATOM      9  C   UNL     1      -1.785   0.871  -1.046  0.00  0.00    +0.000 A 
ATOM     10  C   UNL     1      -2.802   1.363  -1.855  0.00  0.00    +0.000 A 
ATOM     11  C   UNL     1      -4.131   1.180  -1.523  0.00  0.00    +0.000 A 
ATOM     12  C   UNL     1      -4.461   0.501  -0.373  0.00  0.00    +0.000 A 
ATOM     13  F   UNL     1      -5.774   0.340  -0.079  0.00  0.00    +0.000 F 
ATOM     14  C   UNL     1      -3.442   0.018   0.421  0.00  0.00    +0.000 A 
ATOM     15  C   UNL     1      -2.115   0.190   0.108  0.00  0.00    +0.000 A 
ENDROOT
BRANCH   1  16
ATOM     16  C   UNL     1       3.898   0.240  -0.088  0.00  0.00    +0.000 C 
BRANCH  16  17
ATOM     17  C   UNL     1       4.076  -1.261  -0.003  0.00  0.00    +0.000 C 
BRANCH  17  19
ATOM     18  C   UNL     1       6.466  -0.982  -0.548  0.00  0.00    +0.000 C 
ATOM     19  C   UNL     1       5.487  -1.558   0.449  0.00  0.00    +0.000 C 
ENDBRANCH  17  19
ENDBRANCH  16  17
ENDBRANCH   1  16
TORSDOF 3
