REMARK  Name = 
REMARK  3 active torsions:
REMARK  status: ('A' for Active; 'I' for Inactive)
REMARK    1  A    between atoms: C_5  and  C_6
REMARK    2  A    between atoms: C_6  and  C_7
REMARK    3  A    between atoms: C_7  and  N_8
REMARK                            x       y       z     vdW  Elec       q    Type
REMARK                         _______ _______ _______ _____ _____    ______ ____
ROOT
ATOM      1  C   UNL     1       0.128   0.199   0.529  0.00  0.00    +0.000 C 
ENDROOT
BRANCH   1   6
ATOM      2  C   UNL     1       5.490  -1.799  -0.435  0.00  0.00    +0.000 C 
ATOM      3  C   UNL     1       4.113  -1.290  -0.192  0.00  0.00    +0.000 A 
ATOM      4  C   UNL     1       3.025  -1.734  -0.915  0.00  0.00    +0.000 A 
ATOM      5  C   UNL     1       1.751  -1.249  -0.676  0.00  0.00    +0.000 A 
ATOM      6  C   UNL     1       1.511  -0.299   0.298  0.00  0.00    +0.000 A 
ATOM      7  C   UNL     1       2.599   0.145   1.023  0.00  0.00    +0.000 A 
ATOM      8  C   UNL     1       3.874  -0.342   0.780  0.00  0.00    +0.000 A 
ATOM      9  C   UNL     1       5.017   0.151   1.570  0.00  0.00    +0.000 C 
ENDBRANCH   1   6
BRANCH   1  10
ATOM     10  C   UNL     1      -0.157   1.418  -0.348  0.00  0.00    +0.000 C 
BRANCH  10  11
ATOM     11  N   UNL     1      -1.518   1.825  -0.053  0.00  0.00    +0.000 NA
ATOM     12  C   UNL     1      -2.584   0.910  -0.282  0.00  0.00    +0.000 A 
ATOM     13  N   UNL     1      -2.333  -0.318  -0.768  0.00  0.00    +0.000 NA
ATOM     14  C   UNL     1      -3.362  -1.155  -0.972  0.00  0.00    +0.000 A 
ATOM     15  C   UNL     1      -4.665  -0.826  -0.711  0.00  0.00    +0.000 A 
ATOM     16  C   UNL     1      -4.911   0.436  -0.213  0.00  0.00    +0.000 A 
ATOM     17  C   UNL     1      -3.881   1.310   0.005  0.00  0.00    +0.000 A 
ATOM     18  N   UNL     1      -4.096   2.619   0.516  0.00  0.00    +0.000 NA
ENDBRANCH  10  11
ENDBRANCH   1  10
TORSDOF 3
