REMARK  Name = 
REMARK  4 active torsions:
REMARK  status: ('A' for Active; 'I' for Inactive)
REMARK    1  A    between atoms: O_2  and  C_3
REMARK    2  A    between atoms: C_8  and  S_9
REMARK    3  A    between atoms: S_9  and  C_10
REMARK    4  A    between atoms: C_10  and  C_11
REMARK                            x       y       z     vdW  Elec       q    Type
REMARK                         _______ _______ _______ _____ _____    ______ ____
ROOT
ATOM      1  C   UNL     1       4.577  -0.309  -0.062  0.00  0.00    +0.000 A 
ATOM      2  C   UNL     1       3.878  -1.503  -0.398  0.00  0.00    +0.000 A 
ATOM      3  C   UNL     1       2.561  -1.602  -0.468  0.00  0.00    +0.000 A 
ATOM      4  C   UNL     1       1.757  -0.525  -0.167  0.00  0.00    +0.000 A 
ATOM      5  N   UNL     1       0.488  -0.236  -0.242  0.00  0.00    +0.000 NA
ATOM      6  C   UNL     1       0.232   1.050  -0.005  0.00  0.00    +0.000 A 
ATOM      7  N   UNL     1       1.474   1.639   0.270  0.00  0.00    +0.000 NA
ATOM      8  C   UNL     1       2.425   0.681   0.150  0.00  0.00    +0.000 A 
ATOM      9  C   UNL     1       3.784   0.764   0.196  0.00  0.00    +0.000 A 
ENDROOT
BRANCH   1  11
ATOM     10  C   UNL     1       6.532  -1.588  -0.315  0.00  0.00    +0.000 C 
ATOM     11  O   UNL     1       5.973  -0.311  -0.010  0.00  0.00    +0.000 OA
ENDBRANCH   1  11
BRANCH   6  12
ATOM     12  S   UNL     1      -1.256   1.953  -0.074  0.00  0.00    +0.000 S 
BRANCH  12  13
ATOM     13  C   UNL     1      -2.618   1.369  -0.921  0.00  0.00    +0.000 C 
BRANCH  13  14
ATOM     14  C   UNL     1      -3.475   0.272  -0.452  0.00  0.00    +0.000 A 
ATOM     15  C   UNL     1      -4.827   0.773  -0.199  0.00  0.00    +0.000 A 
ATOM     16  C   UNL     1      -5.089   2.238  -0.390  0.00  0.00    +0.000 C 
ATOM     17  N   UNL     1      -5.529  -0.251   0.169  0.00  0.00    +0.000 NA
ATOM     18  O   UNL     1      -4.820  -1.345   0.195  0.00  0.00    +0.000 OA
ATOM     19  C   UNL     1      -3.572  -1.007  -0.178  0.00  0.00    +0.000 A 
ATOM     20  C   UNL     1      -2.493  -2.061  -0.247  0.00  0.00    +0.000 C 
ENDBRANCH  13  14
ENDBRANCH  12  13
ENDBRANCH   6  12
TORSDOF 4
