REMARK  Name = 
REMARK  3 active torsions:
REMARK  status: ('A' for Active; 'I' for Inactive)
REMARK    1  A    between atoms: C_2  and  C_3
REMARK    2  A    between atoms: C_10  and  S_11
REMARK    3  A    between atoms: S_11  and  C_12
REMARK                            x       y       z     vdW  Elec       q    Type
REMARK                         _______ _______ _______ _____ _____    ______ ____
ROOT
ATOM      1  C   UNL     1      -3.902   0.194   0.293  0.00  0.00    +0.000 A 
ATOM      2  C   UNL     1      -4.008  -0.400  -0.947  0.00  0.00    +0.000 A 
ATOM      3  C   UNL     1      -2.912  -0.880  -1.624  0.00  0.00    +0.000 A 
ATOM      4  C   UNL     1      -1.656  -0.761  -1.039  0.00  0.00    +0.000 A 
ATOM      5  N   UNL     1      -0.426  -1.126  -1.448  0.00  0.00    +0.000 NA
ATOM      6  C   UNL     1       0.499  -0.795  -0.520  0.00  0.00    +0.000 A 
ATOM      7  N   UNL     1       1.851  -0.938  -0.444  0.00  0.00    +0.000 NA
ATOM      8  C   UNL     1       2.515  -0.495   0.637  0.00  0.00    +0.000 A 
ATOM      9  N   UNL     1       1.786   0.086   1.622  0.00  0.00    +0.000 NA
ATOM     10  N   UNL     1       0.477   0.235   1.575  0.00  0.00    +0.000 NA
ATOM     11  C   UNL     1      -0.216  -0.198   0.504  0.00  0.00    +0.000 A 
ATOM     12  C   UNL     1      -1.563  -0.169   0.194  0.00  0.00    +0.000 A 
ATOM     13  C   UNL     1      -2.663   0.317   0.884  0.00  0.00    +0.000 A 
ENDROOT
BRANCH   1  15
ATOM     14  C   UNL     1      -5.349   2.143   0.688  0.00  0.00    +0.000 C 
ATOM     15  C   UNL     1      -5.083   0.717   1.025  0.00  0.00    +0.000 C 
ENDBRANCH   1  15
BRANCH   8  16
ATOM     16  S   UNL     1       4.293  -0.650   0.800  0.00  0.00    +0.000 S 
BRANCH  16  17
ATOM     17  C   UNL     1       5.035   0.827   0.084  0.00  0.00    +0.000 C 
ATOM     18  C   UNL     1       4.830   0.919  -1.410  0.00  0.00    +0.000 C 
ATOM     19  C   UNL     1       6.494   0.975   0.456  0.00  0.00    +0.000 C 
ENDBRANCH  16  17
ENDBRANCH   8  16
TORSDOF 3
