REMARK  Name = 
REMARK  1 active torsions:
REMARK  status: ('A' for Active; 'I' for Inactive)
REMARK    1  A    between atoms: C_4  and  C_5
REMARK                            x       y       z     vdW  Elec       q    Type
REMARK                         _______ _______ _______ _____ _____    ______ ____
ROOT
ATOM      1  O   UNL     1      -0.750   2.328   0.934  0.00  0.00    +0.000 OA
ATOM      2  C   UNL     1      -0.305   1.298   0.387  0.00  0.00    +0.000 C 
ATOM      3  N   UNL     1       1.098   1.110   0.347  0.00  0.00    +0.000 NA
ATOM      4  C   UNL     1       1.592   0.513  -1.055  0.00  0.00    +0.000 C 
ATOM      5  N   UNL     1       0.858  -0.889  -0.768  0.00  0.00    +0.000 NA
ATOM      6  C   UNL     1      -0.583  -0.769  -0.763  0.00  0.00    +0.000 A 
ATOM      7  S   UNL     1      -1.889  -1.736  -1.340  0.00  0.00    +0.000 S 
ATOM      8  C   UNL     1      -3.191  -0.750  -0.849  0.00  0.00    +0.000 A 
ATOM      9  C   UNL     1      -2.568   0.312  -0.245  0.00  0.00    +0.000 A 
ATOM     10  C   UNL     1      -1.224   0.293  -0.206  0.00  0.00    +0.000 A 
ATOM     11  C   UNL     1      -3.582   1.326   0.271  0.00  0.00    +0.000 C 
ATOM     12  C   UNL     1      -4.551   0.523   1.112  0.00  0.00    +0.000 C 
ATOM     13  C   UNL     1      -5.415  -0.270   0.164  0.00  0.00    +0.000 C 
ATOM     14  C   UNL     1      -4.675  -0.870  -0.970  0.00  0.00    +0.000 C 
ENDROOT
BRANCH   4  15
ATOM     15  C   UNL     1       3.018   0.034  -0.511  0.00  0.00    +0.000 A 
ATOM     16  C   UNL     1       3.721   0.843   0.302  0.00  0.00    +0.000 A 
ATOM     17  C   UNL     1       4.970   0.377   0.733  0.00  0.00    +0.000 A 
ATOM     18  C   UNL     1       5.390  -0.852   0.308  0.00  0.00    +0.000 A 
ATOM     19  C   UNL     1       4.651  -1.662  -0.525  0.00  0.00    +0.000 A 
ATOM     20  N   UNL     1       3.433  -1.157  -0.919  0.00  0.00    +0.000 NA
ENDBRANCH   4  15
TORSDOF 1
