REMARK  Name = 
REMARK  2 active torsions:
REMARK  status: ('A' for Active; 'I' for Inactive)
REMARK    1  A    between atoms: O_2  and  C_3
REMARK    2  A    between atoms: C_6  and  C_7
REMARK                            x       y       z     vdW  Elec       q    Type
REMARK                         _______ _______ _______ _____ _____    ______ ____
ROOT
ATOM      1  C   UNL     1      -0.682  -1.198   0.219  0.00  0.00    +0.000 C 
ATOM      2  N   UNL     1      -0.456  -0.352  -1.117  0.00  0.00    +0.000 NA
ATOM      3  C   UNL     1       0.934  -0.241  -1.415  0.00  0.00    +0.000 C 
ATOM      4  O   UNL     1       1.366  -0.357  -2.604  0.00  0.00    +0.000 OA
ATOM      5  C   UNL     1       1.914   0.016  -0.319  0.00  0.00    +0.000 A 
ATOM      6  C   UNL     1       1.320   0.117   0.906  0.00  0.00    +0.000 A 
ATOM      7  S   UNL     1       2.685   0.419   1.927  0.00  0.00    +0.000 S 
ATOM      8  C   UNL     1       3.932   0.403   0.765  0.00  0.00    +0.000 A 
ATOM      9  C   UNL     1       3.254   0.161  -0.397  0.00  0.00    +0.000 A 
ATOM     10  C   UNL     1       4.191   0.102  -1.607  0.00  0.00    +0.000 C 
ATOM     11  C   UNL     1       4.877   1.453  -1.618  0.00  0.00    +0.000 C 
ATOM     12  C   UNL     1       5.819   1.516  -0.420  0.00  0.00    +0.000 C 
ATOM     13  C   UNL     1       5.408   0.562   0.671  0.00  0.00    +0.000 C 
ATOM     14  N   UNL     1      -0.103  -0.010   1.124  0.00  0.00    +0.000 NA
ENDROOT
BRANCH   1  18
ATOM     15  C   UNL     1      -4.912  -0.212   0.686  0.00  0.00    +0.000 A 
ATOM     16  C   UNL     1      -4.406  -0.573  -0.538  0.00  0.00    +0.000 A 
ATOM     17  C   UNL     1      -3.038  -0.893  -0.697  0.00  0.00    +0.000 A 
ATOM     18  C   UNL     1      -2.213  -0.842   0.384  0.00  0.00    +0.000 A 
ATOM     19  C   UNL     1      -2.698  -0.486   1.604  0.00  0.00    +0.000 A 
ATOM     20  C   UNL     1      -4.065  -0.165   1.767  0.00  0.00    +0.000 A 
BRANCH  15  22
ATOM     21  C   UNL     1      -6.850   0.477   2.043  0.00  0.00    +0.000 C 
ATOM     22  O   UNL     1      -6.279   0.104   0.828  0.00  0.00    +0.000 OA
ENDBRANCH  15  22
ENDBRANCH   1  18
TORSDOF 2
