REMARK  Name = 
REMARK  4 active torsions:
REMARK  status: ('A' for Active; 'I' for Inactive)
REMARK    1  A    between atoms: C_4  and  C_5
REMARK    2  A    between atoms: N_9  and  C_10
REMARK    3  A    between atoms: C_10  and  C_11
REMARK    4  A    between atoms: C_11  and  C_12
REMARK                            x       y       z     vdW  Elec       q    Type
REMARK                         _______ _______ _______ _____ _____    ______ ____
ROOT
ATOM      1  C   UNL     1      -0.577  -0.718  -0.529  0.00  0.00    +0.000 C 
ENDROOT
BRANCH   1   8
ATOM      2  C   UNL     1      -2.510  -2.980   0.235  0.00  0.00    +0.000 C 
ATOM      3  C   UNL     1      -2.824  -1.524   0.242  0.00  0.00    +0.000 A 
ATOM      4  C   UNL     1      -4.032  -0.978   0.593  0.00  0.00    +0.000 A 
ATOM      5  C   UNL     1      -3.881   0.396   0.457  0.00  0.00    +0.000 A 
ATOM      6  C   UNL     1      -2.599   0.624   0.032  0.00  0.00    +0.000 A 
ATOM      7  C   UNL     1      -2.011   1.946  -0.240  0.00  0.00    +0.000 C 
ATOM      8  N   UNL     1      -1.975  -0.545  -0.092  0.00  0.00    +0.000 N 
BRANCH   5   9
ATOM      9  C   UNL     1      -4.933   1.388   0.729  0.00  0.00    +0.000 C 
ATOM     10  O   UNL     1      -4.635   2.596   0.555  0.00  0.00    +0.000 OA
ENDBRANCH   5   9
ENDBRANCH   1   8
BRANCH   1  11
ATOM     11  C   UNL     1       0.288  -0.682   0.711  0.00  0.00    +0.000 C 
BRANCH  11  12
ATOM     12  C   UNL     1       1.711  -0.844   0.420  0.00  0.00    +0.000 A 
ATOM     13  C   UNL     1       2.456  -1.976   0.618  0.00  0.00    +0.000 A 
ATOM     14  N   UNL     1       3.719  -1.739   0.232  0.00  0.00    +0.000 NA
ATOM     15  C   UNL     1       3.802  -0.460  -0.216  0.00  0.00    +0.000 A 
ATOM     16  C   UNL     1       4.875   0.263  -0.718  0.00  0.00    +0.000 A 
ATOM     17  C   UNL     1       4.714   1.574  -1.117  0.00  0.00    +0.000 A 
ATOM     18  C   UNL     1       3.458   2.128  -0.998  0.00  0.00    +0.000 A 
ATOM     19  C   UNL     1       2.397   1.419  -0.504  0.00  0.00    +0.000 A 
ATOM     20  C   UNL     1       2.558   0.112  -0.105  0.00  0.00    +0.000 A 
ENDBRANCH  11  12
ENDBRANCH   1  11
TORSDOF 4
