REMARK  Name = 
REMARK  5 active torsions:
REMARK  status: ('A' for Active; 'I' for Inactive)
REMARK    1  A    between atoms: C_2  and  C_3
REMARK    2  A    between atoms: N_9  and  C_10
REMARK    3  A    between atoms: C_10  and  C_11
REMARK    4  A    between atoms: C_11  and  O_12
REMARK    5  A    between atoms: O_12  and  C_13
REMARK                            x       y       z     vdW  Elec       q    Type
REMARK                         _______ _______ _______ _____ _____    ______ ____
ROOT
ATOM      1  C   UNL     1      -4.035   1.577  -1.017  0.00  0.00    +0.000 C 
ATOM      2  C   UNL     1      -3.239   0.671  -0.101  0.00  0.00    +0.000 C 
ATOM      3  N   UNL     1      -3.441  -0.717  -0.454  0.00  0.00    +0.000 NA
ATOM      4  C   UNL     1      -2.244  -1.427  -0.181  0.00  0.00    +0.000 C 
ATOM      5  O   UNL     1      -2.092  -2.682  -0.065  0.00  0.00    +0.000 OA
ATOM      6  N   UNL     1      -1.219  -0.443  -0.057  0.00  0.00    +0.000 N 
ATOM      7  C   UNL     1      -1.790   0.843  -0.252  0.00  0.00    +0.000 C 
ATOM      8  O   UNL     1      -1.203   1.918  -0.503  0.00  0.00    +0.000 OA
ENDROOT
BRANCH   2   9
ATOM      9  C   UNL     1      -3.697   0.959   1.323  0.00  0.00    +0.000 C 
ATOM     10  C   UNL     1      -5.218   0.672   1.473  0.00  0.00    +0.000 C 
ATOM     11  C   UNL     1      -4.180  -0.169   2.145  0.00  0.00    +0.000 C 
ENDBRANCH   2   9
BRANCH   6  12
ATOM     12  C   UNL     1       0.181  -0.702   0.222  0.00  0.00    +0.000 C 
BRANCH  12  13
ATOM     13  C   UNL     1       0.971  -0.895  -1.060  0.00  0.00    +0.000 C 
BRANCH  13  14
ATOM     14  O   UNL     1       2.308  -1.140  -0.747  0.00  0.00    +0.000 OA
BRANCH  14  15
ATOM     15  C   UNL     1       3.129  -0.277  -0.051  0.00  0.00    +0.000 A 
ATOM     16  C   UNL     1       2.726   0.952   0.428  0.00  0.00    +0.000 A 
ATOM     17  C   UNL     1       3.572   1.798   1.124  0.00  0.00    +0.000 A 
ATOM     18  C   UNL     1       4.874   1.409   1.353  0.00  0.00    +0.000 A 
ATOM     19  C   UNL     1       5.308   0.177   0.882  0.00  0.00    +0.000 A 
ATOM     20  C   UNL     1       4.436  -0.654   0.186  0.00  0.00    +0.000 A 
ATOM     21  F   UNL     1       4.856  -1.871  -0.283  0.00  0.00    +0.000 F 
ENDBRANCH  14  15
ENDBRANCH  13  14
ENDBRANCH  12  13
ENDBRANCH   6  12
TORSDOF 5
