REMARK  Name = 
REMARK  4 active torsions:
REMARK  status: ('A' for Active; 'I' for Inactive)
REMARK    1  A    between atoms: C_6  and  C_7
REMARK    2  A    between atoms: C_10  and  N_11
REMARK    3  A    between atoms: C_12  and  C_14
REMARK    4  A    between atoms: C_18  and  N_19
REMARK                            x       y       z     vdW  Elec       q    Type
REMARK                         _______ _______ _______ _____ _____    ______ ____
ROOT
ATOM      1  N   UNL     1       0.869  -0.819  -0.496  0.00  0.00    +0.000 NA
ATOM      2  C   UNL     1      -0.152  -0.294   0.312  0.00  0.00    +0.000 C 
ATOM      3  O   UNL     1       0.164   0.144   1.451  0.00  0.00    +0.000 OA
ENDROOT
BRANCH   1  10
ATOM      4  C   UNL     1       1.668  -3.072   0.919  0.00  0.00    +0.000 C 
ATOM      5  C   UNL     1       2.651  -2.018   0.555  0.00  0.00    +0.000 A 
ATOM      6  C   UNL     1       3.985  -2.104   0.885  0.00  0.00    +0.000 A 
ATOM      7  C   UNL     1       4.899  -1.130   0.547  0.00  0.00    +0.000 A 
ATOM      8  C   UNL     1       4.432  -0.035  -0.150  0.00  0.00    +0.000 A 
ATOM      9  C   UNL     1       3.096   0.104  -0.509  0.00  0.00    +0.000 A 
ATOM     10  C   UNL     1       2.235  -0.894  -0.147  0.00  0.00    +0.000 A 
BRANCH   9  11
ATOM     11  C   UNL     1       2.588   1.275  -1.261  0.00  0.00    +0.000 C 
ATOM     12  C   UNL     1       3.812   2.088  -1.711  0.00  0.00    +0.000 C 
ATOM     13  C   UNL     1       1.813   2.217  -0.328  0.00  0.00    +0.000 C 
ENDBRANCH   9  11
ENDBRANCH   1  10
BRANCH   2  14
ATOM     14  C   UNL     1      -1.559  -0.245  -0.134  0.00  0.00    +0.000 A 
ATOM     15  C   UNL     1      -2.033  -0.987  -1.185  0.00  0.00    +0.000 A 
ATOM     16  C   UNL     1      -3.350  -0.922  -1.603  0.00  0.00    +0.000 A 
ATOM     17  C   UNL     1      -4.208  -0.080  -0.933  0.00  0.00    +0.000 A 
ATOM     18  C   UNL     1      -3.760   0.680   0.130  0.00  0.00    +0.000 A 
ATOM     19  C   UNL     1      -2.426   0.589   0.523  0.00  0.00    +0.000 A 
BRANCH  18  20
ATOM     20  N   UNL     1      -4.656   1.553   0.810  0.00  0.00    +0.000 N 
ATOM     21  O   UNL     1      -5.829   1.629   0.459  0.00  0.00    +0.000 OA
ATOM     22  O   UNL     1      -4.238   2.322   1.858  0.00  0.00    +0.000 OA
ENDBRANCH  18  20
ENDBRANCH   2  14
TORSDOF 4
