REMARK  Name = 
REMARK  2 active torsions:
REMARK  status: ('A' for Active; 'I' for Inactive)
REMARK    1  A    between atoms: C_5  and  N_6
REMARK    2  A    between atoms: N_13  and  C_14
REMARK                            x       y       z     vdW  Elec       q    Type
REMARK                         _______ _______ _______ _____ _____    ______ ____
ROOT
ATOM      1  N   UNL     1       1.200  -1.633  -0.318  0.00  0.00    +0.000 NA
ATOM      2  C   UNL     1      -0.229  -1.568  -0.370  0.00  0.00    +0.000 A 
ATOM      3  N   UNL     1      -0.980  -2.662  -0.602  0.00  0.00    +0.000 NA
ATOM      4  C   UNL     1      -2.319  -2.626  -0.656  0.00  0.00    +0.000 A 
ATOM      5 CL   UNL     1      -3.279  -4.049  -0.956  0.00  0.00    +0.000 Cl
ATOM      6  N   UNL     1      -2.951  -1.458  -0.473  0.00  0.00    +0.000 NA
ATOM      7  C   UNL     1      -2.226  -0.339  -0.238  0.00  0.00    +0.000 A 
ATOM      8  N   UNL     1      -2.929   0.872  -0.051  0.00  0.00    +0.000 NA
ATOM      9  N   UNL     1      -0.880  -0.405  -0.190  0.00  0.00    +0.000 NA
ENDROOT
BRANCH   1  14
ATOM     10  C   UNL     1       4.527   2.897   0.651  0.00  0.00    +0.000 C 
ATOM     11  C   UNL     1       3.614   1.752   0.403  0.00  0.00    +0.000 A 
ATOM     12  C   UNL     1       2.254   1.828   0.356  0.00  0.00    +0.000 A 
ATOM     13  C   UNL     1       1.441   0.742   0.123  0.00  0.00    +0.000 A 
ATOM     14  C   UNL     1       2.001  -0.496  -0.076  0.00  0.00    +0.000 A 
ATOM     15  C   UNL     1       3.371  -0.604  -0.034  0.00  0.00    +0.000 A 
ATOM     16  C   UNL     1       4.163   0.498   0.201  0.00  0.00    +0.000 A 
ENDBRANCH   1  14
BRANCH   8  17
ATOM     17  C   UNL     1      -2.175   2.092   0.203  0.00  0.00    +0.000 C 
ATOM     18  C   UNL     1      -3.141   3.259   0.371  0.00  0.00    +0.000 C 
ATOM     19  C   UNL     1      -1.463   1.899   1.530  0.00  0.00    +0.000 C 
ENDBRANCH   8  17
TORSDOF 2
