REMARK  Name = 
REMARK  5 active torsions:
REMARK  status: ('A' for Active; 'I' for Inactive)
REMARK    1  A    between atoms: N_2  and  C_4
REMARK    2  A    between atoms: C_9  and  N_10
REMARK    3  A    between atoms: N_10  and  C_11
REMARK    4  A    between atoms: C_11  and  N_13
REMARK    5  A    between atoms: N_13  and  C_14
REMARK                            x       y       z     vdW  Elec       q    Type
REMARK                         _______ _______ _______ _____ _____    ______ ____
ROOT
ATOM      1  N   UNL     1      -0.790  -1.428   0.748  0.00  0.00    +0.000 NA
ENDROOT
BRANCH   1   7
ATOM      2  C   UNL     1      -2.876   1.279  -0.657  0.00  0.00    +0.000 A 
ATOM      3  C   UNL     1      -4.146   0.771  -0.398  0.00  0.00    +0.000 A 
ATOM      4  C   UNL     1      -4.287  -0.449   0.233  0.00  0.00    +0.000 A 
ATOM      5  C   UNL     1      -3.206  -1.167   0.607  0.00  0.00    +0.000 A 
ATOM      6  F   UNL     1      -3.312  -2.358   1.223  0.00  0.00    +0.000 F 
ATOM      7  C   UNL     1      -1.914  -0.690   0.364  0.00  0.00    +0.000 A 
ATOM      8  C   UNL     1      -1.811   0.511  -0.257  0.00  0.00    +0.000 A 
BRANCH   2  10
ATOM      9  O   UNL     1      -1.569   2.957  -1.523  0.00  0.00    +0.000 OA
ATOM     10  N   UNL     1      -2.719   2.534  -1.306  0.00  0.00    +0.000 N 
ATOM     11  O   UNL     1      -3.809   3.268  -1.689  0.00  0.00    +0.000 OA
ENDBRANCH   2  10
ENDBRANCH   1   7
BRANCH   1  12
ATOM     12  C   UNL     1       0.546  -0.912   0.485  0.00  0.00    +0.000 C 
ATOM     13  S   UNL     1       0.568   0.548  -0.269  0.00  0.00    +0.000 S 
BRANCH  12  14
ATOM     14  N   UNL     1       1.591  -1.673   0.881  0.00  0.00    +0.000 NA
BRANCH  14  15
ATOM     15  C   UNL     1       3.009  -1.725   0.911  0.00  0.00    +0.000 C 
ATOM     16  C   UNL     1       3.414  -0.429   1.738  0.00  0.00    +0.000 C 
ATOM     17  C   UNL     1       4.971  -0.188   1.200  0.00  0.00    +0.000 C 
ATOM     18  C   UNL     1       4.578   1.005   0.135  0.00  0.00    +0.000 C 
ATOM     19  C   UNL     1       3.332   0.500  -0.296  0.00  0.00    +0.000 C 
ATOM     20  C   UNL     1       3.445  -1.084  -0.585  0.00  0.00    +0.000 C 
ATOM     21  C   UNL     1       4.984  -1.270  -0.033  0.00  0.00    +0.000 C 
ENDBRANCH  14  15
ENDBRANCH  12  14
ENDBRANCH   1  12
TORSDOF 5
