REMARK  Name = 
REMARK  4 active torsions:
REMARK  status: ('A' for Active; 'I' for Inactive)
REMARK    1  A    between atoms: C_2  and  C_3
REMARK    2  A    between atoms: C_7  and  N_8
REMARK    3  A    between atoms: C_9  and  C_11
REMARK    4  A    between atoms: C_16  and  C_17
REMARK                            x       y       z     vdW  Elec       q    Type
REMARK                         _______ _______ _______ _____ _____    ______ ____
ROOT
ATOM      1  C   UNL     1      -2.687  -0.969  -0.241  0.00  0.00    +0.000 A 
ATOM      2  C   UNL     1      -2.805  -1.085   1.115  0.00  0.00    +0.000 A 
ATOM      3  C   UNL     1      -4.018  -1.536   1.894  0.00  0.00    +0.000 C 
ATOM      4  S   UNL     1      -1.280  -0.607   1.688  0.00  0.00    +0.000 S 
ATOM      5  C   UNL     1      -0.521  -0.268   0.201  0.00  0.00    +0.000 A 
ATOM      6  C   UNL     1      -1.499  -0.543  -0.720  0.00  0.00    +0.000 A 
ENDROOT
BRANCH   5   7
ATOM      7  N   UNL     1       0.809   0.194  -0.087  0.00  0.00    +0.000 NA
ATOM      8  C   UNL     1       1.696   0.429   0.968  0.00  0.00    +0.000 C 
ATOM      9  O   UNL     1       1.292   0.226   2.139  0.00  0.00    +0.000 OA
BRANCH   8  10
ATOM     10  C   UNL     1       3.053   0.899   0.684  0.00  0.00    +0.000 A 
ATOM     11  C   UNL     1       3.561   1.144  -0.550  0.00  0.00    +0.000 A 
ATOM     12  C   UNL     1       4.831   1.573  -0.628  0.00  0.00    +0.000 A 
ATOM     13  C   UNL     1       5.514   1.731   0.540  0.00  0.00    +0.000 A 
ATOM     14  S   UNL     1       4.358   1.274   1.709  0.00  0.00    +0.000 S 
ENDBRANCH   8  10
ENDBRANCH   5   7
BRANCH   6  15
ATOM     15  C   UNL     1      -1.233  -0.371  -2.184  0.00  0.00    +0.000 C 
ATOM     16  N   UNL     1      -2.208  -0.641  -3.161  0.00  0.00    +0.000 NA
ATOM     17  O   UNL     1      -0.120   0.025  -2.603  0.00  0.00    +0.000 OA
ENDBRANCH   6  15
BRANCH   1  19
ATOM     18  C   UNL     1      -4.869  -0.161  -1.042  0.00  0.00    +0.000 C 
ATOM     19  C   UNL     1      -3.875  -1.315  -1.133  0.00  0.00    +0.000 C 
ENDBRANCH   1  19
TORSDOF 4
