REMARK  Name = 
REMARK  2 active torsions:
REMARK  status: ('A' for Active; 'I' for Inactive)
REMARK    1  A    between atoms: C_2  and  N_3
REMARK    2  A    between atoms: C_7  and  N_8
REMARK                            x       y       z     vdW  Elec       q    Type
REMARK                         _______ _______ _______ _____ _____    ______ ____
ROOT
ATOM      1  N   UNL     1      -3.354   0.229  -0.178  0.00  0.00    +0.000 N 
ATOM      2  C   UNL     1      -2.217  -0.467  -0.676  0.00  0.00    +0.000 C 
ATOM      3  O   UNL     1      -2.407  -1.209  -1.693  0.00  0.00    +0.000 OA
ATOM      4  C   UNL     1      -0.905  -0.336  -0.054  0.00  0.00    +0.000 C 
ATOM      5  C   UNL     1       0.097  -1.013  -0.575  0.00  0.00    +0.000 C 
ATOM      6  C   UNL     1      -0.765   0.528   1.101  0.00  0.00    +0.000 C 
ATOM      7  O   UNL     1       0.370   0.640   1.638  0.00  0.00    +0.000 OA
ATOM      8  N   UNL     1      -1.910   1.218   1.589  0.00  0.00    +0.000 NA
ATOM      9  C   UNL     1      -3.160   1.063   0.959  0.00  0.00    +0.000 C 
ATOM     10  S   UNL     1      -4.442   1.863   1.539  0.00  0.00    +0.000 S 
ENDROOT
BRANCH   5  11
ATOM     11  N   UNL     1       1.412  -1.015  -0.123  0.00  0.00    +0.000 N 
ATOM     12  C   UNL     1       1.985  -2.004   0.756  0.00  0.00    +0.000 C 
ATOM     13  C   UNL     1       3.410  -2.077   0.310  0.00  0.00    +0.000 C 
ATOM     14  C   UNL     1       3.650  -0.679  -0.169  0.00  0.00    +0.000 A 
ATOM     15  C   UNL     1       4.853  -0.039  -0.355  0.00  0.00    +0.000 A 
ATOM     16  C   UNL     1       4.862   1.263  -0.808  0.00  0.00    +0.000 A 
ATOM     17  C   UNL     1       3.653   1.875  -1.059  0.00  0.00    +0.000 A 
ATOM     18  C   UNL     1       2.446   1.235  -0.873  0.00  0.00    +0.000 A 
ATOM     19  C   UNL     1       2.434  -0.081  -0.416  0.00  0.00    +0.000 A 
ENDBRANCH   5  11
BRANCH   1  21
ATOM     20  C   UNL     1      -5.346  -1.085  -0.104  0.00  0.00    +0.000 C 
ATOM     21  C   UNL     1      -4.666   0.090  -0.810  0.00  0.00    +0.000 C 
ENDBRANCH   1  21
TORSDOF 2
