REMARK  Name = 
REMARK  3 active torsions:
REMARK  status: ('A' for Active; 'I' for Inactive)
REMARK    1  A    between atoms: C_5  and  C_6
REMARK    2  A    between atoms: N_7  and  C_8
REMARK    3  A    between atoms: C_11  and  N_12
REMARK                            x       y       z     vdW  Elec       q    Type
REMARK                         _______ _______ _______ _____ _____    ______ ____
ROOT
ATOM      1  C   UNL     1       0.172  -1.714  -1.061  0.00  0.00    +0.000 A 
ATOM      2  C   UNL     1      -0.406  -0.734  -1.847  0.00  0.00    +0.000 A 
ATOM      3  C   UNL     1      -1.464   0.020  -1.384  0.00  0.00    +0.000 A 
ATOM      4  C   UNL     1      -1.996  -0.155  -0.140  0.00  0.00    +0.000 A 
ATOM      5  C   UNL     1      -1.427  -1.137   0.661  0.00  0.00    +0.000 A 
ATOM      6  C   UNL     1      -0.368  -1.893   0.203  0.00  0.00    +0.000 A 
ENDROOT
BRANCH   4   7
ATOM      7  N   UNL     1      -3.079   0.641   0.289  0.00  0.00    +0.000 N 
ATOM      8  C   UNL     1      -3.717   1.674  -0.486  0.00  0.00    +0.000 C 
ATOM      9  C   UNL     1      -5.115   1.782   0.041  0.00  0.00    +0.000 C 
ATOM     10  C   UNL     1      -5.052   1.239   1.431  0.00  0.00    +0.000 C 
ATOM     11  C   UNL     1      -3.718   0.541   1.581  0.00  0.00    +0.000 C 
ENDBRANCH   4   7
BRANCH   1  13
ATOM     12  C   UNL     1       2.444  -2.153  -1.280  0.00  0.00    +0.000 C 
ATOM     13  N   UNL     1       1.258  -2.520  -1.488  0.00  0.00    +0.000 NA
BRANCH  12  18
ATOM     14  O   UNL     1       3.828   2.671   1.343  0.00  0.00    +0.000 OA
ATOM     15  C   UNL     1       3.474   1.474   0.692  0.00  0.00    +0.000 A 
ATOM     16  C   UNL     1       2.147   1.152   0.506  0.00  0.00    +0.000 A 
ATOM     17  C   UNL     1       1.793  -0.021  -0.131  0.00  0.00    +0.000 A 
ATOM     18  C   UNL     1       2.733  -0.906  -0.602  0.00  0.00    +0.000 A 
ATOM     19  C   UNL     1       4.056  -0.565  -0.407  0.00  0.00    +0.000 A 
ATOM     20  C   UNL     1       4.436   0.603   0.228  0.00  0.00    +0.000 A 
ENDBRANCH  12  18
ENDBRANCH   1  13
TORSDOF 3
