REMARK  Name = 
REMARK  3 active torsions:
REMARK  status: ('A' for Active; 'I' for Inactive)
REMARK    1  A    between atoms: C_4  and  N_5
REMARK    2  A    between atoms: N_5  and  N_6
REMARK    3  A    between atoms: C_7  and  C_9
REMARK                            x       y       z     vdW  Elec       q    Type
REMARK                         _______ _______ _______ _____ _____    ______ ____
ROOT
ATOM      1  N   UNL     1       0.610  -0.647   1.272  0.00  0.00    +0.000 NA
ENDROOT
BRANCH   1   5
ATOM      2  C   UNL     1       2.963  -2.380   0.871  0.00  0.00    +0.000 C 
ATOM      3  C   UNL     1       4.100  -1.318   1.387  0.00  0.00    +0.000 C 
ATOM      4  C   UNL     1       3.017  -0.229   1.925  0.00  0.00    +0.000 C 
ATOM      5  C   UNL     1       1.868  -0.198   0.971  0.00  0.00    +0.000 C 
ATOM      6  C   UNL     1       2.265   0.315  -0.213  0.00  0.00    +0.000 C 
ATOM      7  C   UNL     1       3.715   0.670  -0.158  0.00  0.00    +0.000 C 
ATOM      8  C   UNL     1       4.221   1.380  -1.349  0.00  0.00    +0.000 C 
ATOM      9  C   UNL     1       4.066   1.378   1.128  0.00  0.00    +0.000 C 
ATOM     10  C   UNL     1       4.364  -0.704  -0.099  0.00  0.00    +0.000 C 
ENDBRANCH   1   5
BRANCH   1  11
ATOM     11  N   UNL     1      -0.650  -0.572   0.985  0.00  0.00    +0.000 NA
ATOM     12  C   UNL     1      -1.387   0.236   0.125  0.00  0.00    +0.000 C 
ATOM     13  O   UNL     1      -0.818   1.109  -0.568  0.00  0.00    +0.000 OA
BRANCH  12  14
ATOM     14  C   UNL     1      -2.836   0.045   0.050  0.00  0.00    +0.000 A 
ATOM     15  C   UNL     1      -3.472  -0.917   0.807  0.00  0.00    +0.000 A 
ATOM     16  C   UNL     1      -4.832  -1.096   0.728  0.00  0.00    +0.000 A 
ATOM     17  C   UNL     1      -5.594  -0.316  -0.113  0.00  0.00    +0.000 A 
ATOM     18  C   UNL     1      -4.988   0.655  -0.884  0.00  0.00    +0.000 A 
ATOM     19  C   UNL     1      -3.613   0.808  -0.780  0.00  0.00    +0.000 A 
ATOM     20  O   UNL     1      -3.000   1.781  -1.556  0.00  0.00    +0.000 OA
ENDBRANCH  12  14
ENDBRANCH   1  11
TORSDOF 3
