REMARK  Name = 
REMARK  3 active torsions:
REMARK  status: ('A' for Active; 'I' for Inactive)
REMARK    1  A    between atoms: C_2  and  C_3
REMARK    2  A    between atoms: C_3  and  N_4
REMARK    3  A    between atoms: C_8  and  C_9
REMARK                            x       y       z     vdW  Elec       q    Type
REMARK                         _______ _______ _______ _____ _____    ______ ____
ROOT
ATOM      1  N   UNL     1       4.726  -0.138  -0.362  0.00  0.00    +0.000 NA
ATOM      2  C   UNL     1       3.336  -0.141  -0.327  0.00  0.00    +0.000 C 
ATOM      3  N   UNL     1       2.748   0.068   0.788  0.00  0.00    +0.000 NA
ATOM      4  N   UNL     1       1.395   0.096   0.983  0.00  0.00    +0.000 NA
ATOM      5  C   UNL     1       0.382  -0.095   0.018  0.00  0.00    +0.000 C 
ATOM      6  C   UNL     1       0.649  -0.336  -1.253  0.00  0.00    +0.000 C 
ATOM      7  S   UNL     1       2.334  -0.429  -1.798  0.00  0.00    +0.000 S 
ENDROOT
BRANCH   5   8
ATOM      8  C   UNL     1      -1.042  -0.027   0.423  0.00  0.00    +0.000 A 
ATOM      9  C   UNL     1      -1.352   0.222   1.734  0.00  0.00    +0.000 A 
ATOM     10  C   UNL     1      -2.683   0.295   2.166  0.00  0.00    +0.000 A 
ATOM     11  C   UNL     1      -3.687   0.107   1.216  0.00  0.00    +0.000 A 
ATOM     12  C   UNL     1      -3.383  -0.142  -0.098  0.00  0.00    +0.000 A 
ATOM     13  C   UNL     1      -2.066  -0.206  -0.479  0.00  0.00    +0.000 A 
ATOM     14  O   UNL     1      -4.378  -0.327  -1.028  0.00  0.00    +0.000 OA
ATOM     15  C   UNL     1      -5.760  -0.231  -0.704  0.00  0.00    +0.000 C 
ATOM     16  C   UNL     1      -5.942   0.579   0.564  0.00  0.00    +0.000 C 
ATOM     17  O   UNL     1      -5.032   0.167   1.579  0.00  0.00    +0.000 OA
ENDBRANCH   5   8
BRANCH   1  18
ATOM     18  C   UNL     1       5.478   0.505   0.699  0.00  0.00    +0.000 C 
BRANCH  18  20
ATOM     19  C   UNL     1       7.342  -0.309  -0.723  0.00  0.00    +0.000 C 
ATOM     20  C   UNL     1       6.934   0.343   0.385  0.00  0.00    +0.000 C 
ENDBRANCH  18  20
ENDBRANCH   1  18
TORSDOF 3
