REMARK  Name = 
REMARK  4 active torsions:
REMARK  status: ('A' for Active; 'I' for Inactive)
REMARK    1  A    between atoms: C_3  and  C_4
REMARK    2  A    between atoms: C_4  and  O_6
REMARK    3  A    between atoms: O_6  and  C_7
REMARK    4  A    between atoms: C_11  and  C_12
REMARK                            x       y       z     vdW  Elec       q    Type
REMARK                         _______ _______ _______ _____ _____    ______ ____
ROOT
ATOM      1  C   UNL     1       1.209   0.424   2.316  0.00  0.00    +0.000 C 
ATOM      2  C   UNL     1       0.257   1.129   1.348  0.00  0.00    +0.000 C 
ATOM      3  C   UNL     1       0.352   0.822   0.122  0.00  0.00    +0.000 C 
ATOM      4  C   UNL     1      -0.457   1.275  -1.103  0.00  0.00    +0.000 C 
ATOM      5  S   UNL     1      -1.504   2.660  -0.402  0.00  0.00    +0.000 S 
ATOM      6  C   UNL     1      -1.379   2.806   1.316  0.00  0.00    +0.000 C 
ATOM      7  N   UNL     1      -2.213   3.767   1.972  0.00  0.00    +0.000 NA
ATOM      8  N   UNL     1      -0.558   2.067   1.957  0.00  0.00    +0.000 NA
ENDROOT
BRANCH   4   9
ATOM      9  C   UNL     1      -1.530   0.133  -1.129  0.00  0.00    +0.000 A 
ATOM     10  C   UNL     1      -2.829   0.363  -1.369  0.00  0.00    +0.000 A 
ATOM     11  C   UNL     1      -3.706  -0.700  -1.375  0.00  0.00    +0.000 A 
ATOM     12  C   UNL     1      -3.299  -1.985  -1.145  0.00  0.00    +0.000 A 
ATOM     13  C   UNL     1      -1.970  -2.223  -0.900  0.00  0.00    +0.000 A 
ATOM     14  C   UNL     1      -1.095  -1.149  -0.895  0.00  0.00    +0.000 A 
ENDBRANCH   4   9
BRANCH   3  15
ATOM     15  C   UNL     1       1.384  -0.195  -0.300  0.00  0.00    +0.000 C 
ATOM     16  O   UNL     1       1.472  -0.480  -1.505  0.00  0.00    +0.000 OA
BRANCH  15  17
ATOM     17  O   UNL     1       2.202  -0.785   0.636  0.00  0.00    +0.000 OA
BRANCH  17  18
ATOM     18  C   UNL     1       3.166  -1.736   0.230  0.00  0.00    +0.000 C 
ATOM     19  C   UNL     1       4.114  -1.086  -0.739  0.00  0.00    +0.000 C 
ATOM     20  C   UNL     1       3.919  -2.248   1.456  0.00  0.00    +0.000 C 
ATOM     21  C   UNL     1       2.467  -2.861  -0.492  0.00  0.00    +0.000 C 
ENDBRANCH  17  18
ENDBRANCH  15  17
ENDBRANCH   3  15
TORSDOF 4
