REMARK  Name = 
REMARK  8 active torsions:
REMARK  status: ('A' for Active; 'I' for Inactive)
REMARK    1  A    between atoms: N_2  and  C_3
REMARK    2  A    between atoms: N_2  and  C_10
REMARK    3  A    between atoms: C_3  and  C_4
REMARK    4  A    between atoms: C_13  and  C_14
REMARK    5  A    between atoms: C_14  and  C_15
REMARK    6  A    between atoms: C_15  and  C_16
REMARK    7  A    between atoms: C_16  and  C_17
REMARK    8  A    between atoms: C_23  and  N_24
REMARK                            x       y       z     vdW  Elec       q    Type
REMARK                         _______ _______ _______ _____ _____    ______ ____
ROOT
ATOM      1  C   UNL     1       0.368   1.144   1.137  0.00  0.00    +0.000 C 
ENDROOT
BRANCH   1   5
ATOM      2  C   UNL     1      -3.692  -0.159   0.608  0.00  0.00    +0.000 C 
ATOM      3  C   UNL     1      -3.365   1.264   0.912  0.00  0.00    +0.000 C 
ATOM      4  C   UNL     1      -2.005   1.627   0.404  0.00  0.00    +0.000 C 
ATOM      5  C   UNL     1      -1.009   0.665   0.952  0.00  0.00    +0.000 C 
ATOM      6  C   UNL     1      -1.245  -0.739   0.593  0.00  0.00    +0.000 C 
ATOM      7  C   UNL     1      -2.640  -1.146   1.028  0.00  0.00    +0.000 C 
BRANCH   2   9
ATOM      8  C   UNL     1      -4.515  -1.685  -1.006  0.00  0.00    +0.000 C 
ATOM      9  N   UNL     1      -4.111  -0.334  -0.764  0.00  0.00    +0.000 NA
BRANCH   9  10
ATOM     10  C   UNL     1      -5.174   0.585  -1.040  0.00  0.00    +0.000 C 
BRANCH  10  11
ATOM     11  C   UNL     1      -6.360   0.343  -0.193  0.00  0.00    +0.000 A 
ATOM     12  C   UNL     1      -6.511   0.984   1.033  0.00  0.00    +0.000 A 
ATOM     13  C   UNL     1      -7.580   0.797   1.846  0.00  0.00    +0.000 A 
ATOM     14  C   UNL     1      -8.578  -0.068   1.454  0.00  0.00    +0.000 A 
ATOM     15  C   UNL     1      -8.470  -0.721   0.252  0.00  0.00    +0.000 A 
ATOM     16  C   UNL     1      -7.370  -0.516  -0.563  0.00  0.00    +0.000 A 
ENDBRANCH  10  11
ENDBRANCH   9  10
ENDBRANCH   2   9
ENDBRANCH   1   5
BRANCH   1  17
ATOM     17  C   UNL     1       1.292   0.098   1.681  0.00  0.00    +0.000 C 
BRANCH  17  18
ATOM     18  C   UNL     1       1.332  -1.038   0.652  0.00  0.00    +0.000 C 
BRANCH  18  19
ATOM     19  C   UNL     1       1.871  -0.449  -0.591  0.00  0.00    +0.000 A 
ATOM     20  C   UNL     1       1.129  -0.115  -1.696  0.00  0.00    +0.000 A 
ATOM     21  N   UNL     1       1.978   0.382  -2.592  0.00  0.00    +0.000 NA
ATOM     22  C   UNL     1       3.236   0.380  -2.108  0.00  0.00    +0.000 A 
ATOM     23  C   UNL     1       4.446   0.785  -2.647  0.00  0.00    +0.000 A 
ATOM     24  C   UNL     1       5.621   0.666  -1.913  0.00  0.00    +0.000 A 
ATOM     25  C   UNL     1       5.554   0.140  -0.646  0.00  0.00    +0.000 A 
ATOM     26  C   UNL     1       4.359  -0.268  -0.093  0.00  0.00    +0.000 A 
ATOM     27  C   UNL     1       3.189  -0.139  -0.850  0.00  0.00    +0.000 A 
BRANCH  25  28
ATOM     28  N   UNL     1       6.724  -0.018   0.175  0.00  0.00    +0.000 N 
ATOM     29  C   UNL     1       7.360   0.988   0.781  0.00  0.00    +0.000 A 
ATOM     30  N   UNL     1       8.393   0.471   1.451  0.00  0.00    +0.000 NA
ATOM     31  N   UNL     1       8.402  -0.836   1.267  0.00  0.00    +0.000 NA
ATOM     32  C   UNL     1       7.371  -1.145   0.478  0.00  0.00    +0.000 A 
ENDBRANCH  25  28
ENDBRANCH  18  19
ENDBRANCH  17  18
ENDBRANCH   1  17
TORSDOF 8
