REMARK  Name = 
REMARK  4 active torsions:
REMARK  status: ('A' for Active; 'I' for Inactive)
REMARK    1  A    between atoms: C_2  and  C_3
REMARK    2  A    between atoms: C_3  and  N_4
REMARK    3  A    between atoms: C_8  and  C_9
REMARK    4  A    between atoms: C_12  and  O_13
REMARK                            x       y       z     vdW  Elec       q    Type
REMARK                         _______ _______ _______ _____ _____    ______ ____
ROOT
ATOM      1  N   UNL     1      -4.191   0.486   0.478  0.00  0.00    +0.000 NA
ATOM      2  C   UNL     1      -2.787   0.516   0.353  0.00  0.00    +0.000 C 
ATOM      3  N   UNL     1      -2.153  -0.527  -0.048  0.00  0.00    +0.000 NA
ATOM      4  N   UNL     1      -0.790  -0.587  -0.198  0.00  0.00    +0.000 NA
ATOM      5  C   UNL     1       0.172   0.391   0.029  0.00  0.00    +0.000 C 
ATOM      6  C   UNL     1      -0.148   1.594   0.452  0.00  0.00    +0.000 C 
ATOM      7  S   UNL     1      -1.853   1.984   0.743  0.00  0.00    +0.000 S 
ENDROOT
BRANCH   5   8
ATOM      8  C   UNL     1       1.611   0.106  -0.202  0.00  0.00    +0.000 A 
ATOM      9  C   UNL     1       2.513   1.112   0.040  0.00  0.00    +0.000 A 
ATOM     10  C   UNL     1       3.865   0.963  -0.139  0.00  0.00    +0.000 A 
ATOM     11  C   UNL     1       4.309  -0.249  -0.577  0.00  0.00    +0.000 A 
ATOM     12  C   UNL     1       3.426  -1.290  -0.833  0.00  0.00    +0.000 A 
ATOM     13  C   UNL     1       2.056  -1.099  -0.638  0.00  0.00    +0.000 A 
BRANCH  11  14
ATOM     14  O   UNL     1       5.662  -0.428  -0.765  0.00  0.00    +0.000 OA
ATOM     15  C   UNL     1       6.583   0.602  -0.518  0.00  0.00    +0.000 C 
ENDBRANCH  11  14
ENDBRANCH   5   8
BRANCH   1  16
ATOM     16  C   UNL     1      -4.943  -0.753   0.471  0.00  0.00    +0.000 C 
BRANCH  16  18
ATOM     17  C   UNL     1      -6.948   0.643   0.737  0.00  0.00    +0.000 C 
ATOM     18  C   UNL     1      -6.386  -0.542   0.614  0.00  0.00    +0.000 C 
ENDBRANCH  16  18
ENDBRANCH   1  16
TORSDOF 4
