REMARK  Name = 
REMARK  4 active torsions:
REMARK  status: ('A' for Active; 'I' for Inactive)
REMARK    1  A    between atoms: C_2  and  C_3
REMARK    2  A    between atoms: C_6  and  C_7
REMARK    3  A    between atoms: N_9  and  N_10
REMARK    4  A    between atoms: N_10  and  C_11
REMARK                            x       y       z     vdW  Elec       q    Type
REMARK                         _______ _______ _______ _____ _____    ______ ____
ROOT
ATOM      1  C   UNL     1       0.348   0.424  -1.570  0.00  0.00    +0.000 C 
ATOM      2  O   UNL     1       0.110   0.563  -2.792  0.00  0.00    +0.000 OA
ATOM      3  N   UNL     1      -0.730   0.445  -0.656  0.00  0.00    +0.000 NA
ENDROOT
BRANCH   1   7
ATOM      4  C   UNL     1       4.326  -0.133  -0.152  0.00  0.00    +0.000 A 
ATOM      5  C   UNL     1       3.273   0.031   0.722  0.00  0.00    +0.000 A 
ATOM      6  C   UNL     1       1.999   0.214   0.246  0.00  0.00    +0.000 A 
ATOM      7  C   UNL     1       1.728   0.242  -1.113  0.00  0.00    +0.000 A 
ATOM      8  C   UNL     1       2.790   0.079  -1.966  0.00  0.00    +0.000 A 
ATOM      9  C   UNL     1       4.085  -0.108  -1.489  0.00  0.00    +0.000 A 
BRANCH   4  11
ATOM     10  C   UNL     1       6.416   0.964   0.545  0.00  0.00    +0.000 C 
ATOM     11  C   UNL     1       5.728  -0.342   0.356  0.00  0.00    +0.000 C 
ENDBRANCH   4  11
ENDBRANCH   1   7
BRANCH   3  12
ATOM     12  N   UNL     1      -2.078   0.611  -0.998  0.00  0.00    +0.000 NA
BRANCH  12  13
ATOM     13  C   UNL     1      -2.994   0.431   0.111  0.00  0.00    +0.000 A 
ATOM     14  C   UNL     1      -3.361   1.517   0.847  0.00  0.00    +0.000 A 
ATOM     15  C   UNL     1      -4.224   1.336   1.908  0.00  0.00    +0.000 A 
ATOM     16  C   UNL     1      -4.705   0.082   2.218  0.00  0.00    +0.000 A 
ATOM     17  C   UNL     1      -4.334  -1.024   1.473  0.00  0.00    +0.000 A 
ATOM     18  C   UNL     1      -4.897  -2.329   1.880  0.00  0.00    +0.000 C 
ATOM     19  C   UNL     1      -3.482  -0.833   0.429  0.00  0.00    +0.000 A 
ENDBRANCH  12  13
ENDBRANCH   3  12
TORSDOF 4
