REMARK  Name = 
REMARK  3 active torsions:
REMARK  status: ('A' for Active; 'I' for Inactive)
REMARK    1  A    between atoms: C_2  and  C_5
REMARK    2  A    between atoms: C_5  and  C_7
REMARK    3  A    between atoms: N_10  and  C_11
REMARK                            x       y       z     vdW  Elec       q    Type
REMARK                         _______ _______ _______ _____ _____    ______ ____
ROOT
ATOM      1  C   UNL     1      -1.740   0.292   0.559  0.00  0.00    +0.000 A 
ATOM      2  S   UNL     1      -0.161  -0.011  -0.018  0.00  0.00    +0.000 S 
ATOM      3  C   UNL     1       0.725   0.712   1.249  0.00  0.00    +0.000 A 
ATOM      4  N   UNL     1       2.158   0.829   1.423  0.00  0.00    +0.000 NA
ATOM      5  N   UNL     1      -0.235   1.146   2.043  0.00  0.00    +0.000 NA
ATOM      6  C   UNL     1      -1.475   0.951   1.726  0.00  0.00    +0.000 A 
ATOM      7  N   UNL     1      -2.560   1.415   2.576  0.00  0.00    +0.000 NA
ENDROOT
BRANCH   4   8
ATOM      8  C   UNL     1       3.001   0.264   0.399  0.00  0.00    +0.000 A 
ATOM      9  C   UNL     1       2.500  -0.369  -0.717  0.00  0.00    +0.000 A 
ATOM     10  C   UNL     1       3.332  -0.900  -1.681  0.00  0.00    +0.000 A 
ATOM     11  C   UNL     1       4.703  -0.814  -1.561  0.00  0.00    +0.000 A 
ATOM     12  C   UNL     1       5.212  -0.181  -0.446  0.00  0.00    +0.000 A 
ATOM     13  C   UNL     1       4.368   0.351   0.522  0.00  0.00    +0.000 A 
ENDBRANCH   4   8
BRANCH   1  14
ATOM     14  C   UNL     1      -3.051  -0.058  -0.033  0.00  0.00    +0.000 C 
ATOM     15  O   UNL     1      -4.072   0.288   0.607  0.00  0.00    +0.000 OA
BRANCH  14  17
ATOM     16  C   UNL     1      -2.457  -2.115  -1.198  0.00  0.00    +0.000 C 
ATOM     17  C   UNL     1      -3.146  -0.776  -1.308  0.00  0.00    +0.000 C 
ATOM     18  C   UNL     1      -4.590  -0.999  -1.631  0.00  0.00    +0.000 C 
ATOM     19  C   UNL     1      -2.511  -0.026  -2.454  0.00  0.00    +0.000 C 
ENDBRANCH  14  17
ENDBRANCH   1  14
TORSDOF 3
