REMARK  Name = 
REMARK  2 active torsions:
REMARK  status: ('A' for Active; 'I' for Inactive)
REMARK    1  A    between atoms: O_2  and  C_3
REMARK    2  A    between atoms: C_8  and  C_9
REMARK                            x       y       z     vdW  Elec       q    Type
REMARK                         _______ _______ _______ _____ _____    ______ ____
ROOT
ATOM      1  C   UNL     1       1.120   1.320  -0.169  0.00  0.00    +0.000 C 
ATOM      2  N   UNL     1       0.608   0.352  -1.352  0.00  0.00    +0.000 NA
ATOM      3  C   UNL     1      -0.765   0.109  -1.327  0.00  0.00    +0.000 C 
ATOM      4  O   UNL     1      -1.390   0.067  -2.410  0.00  0.00    +0.000 OA
ATOM      5  C   UNL     1      -1.452  -0.093  -0.020  0.00  0.00    +0.000 A 
ATOM      6  C   UNL     1      -0.642  -0.018   1.063  0.00  0.00    +0.000 A 
ATOM      7  S   UNL     1      -1.716  -0.297   2.362  0.00  0.00    +0.000 S 
ATOM      8  C   UNL     1      -3.169  -0.502   1.493  0.00  0.00    +0.000 A 
ATOM      9  C   UNL     1      -2.759  -0.342   0.189  0.00  0.00    +0.000 A 
ATOM     10  C   UNL     1      -3.921  -0.486  -0.793  0.00  0.00    +0.000 C 
ATOM     11  C   UNL     1      -4.952   0.524  -0.306  0.00  0.00    +0.000 C 
ATOM     12  C   UNL     1      -5.531   0.089   1.005  0.00  0.00    +0.000 C 
ATOM     13  C   UNL     1      -4.618  -0.784   1.814  0.00  0.00    +0.000 C 
ATOM     14  N   UNL     1       0.749   0.232   0.949  0.00  0.00    +0.000 NA
ENDROOT
BRANCH   1  20
ATOM     15  C   UNL     1       3.074  -0.365  -0.275  0.00  0.00    +0.000 A 
ATOM     16  C   UNL     1       4.438  -0.644  -0.299  0.00  0.00    +0.000 A 
ATOM     17  C   UNL     1       5.340   0.367  -0.248  0.00  0.00    +0.000 A 
ATOM     18  C   UNL     1       4.914   1.671  -0.172  0.00  0.00    +0.000 A 
ATOM     19  C   UNL     1       3.545   1.965  -0.147  0.00  0.00    +0.000 A 
ATOM     20  C   UNL     1       2.689   0.891  -0.202  0.00  0.00    +0.000 A 
BRANCH  15  22
ATOM     21  C   UNL     1       2.343  -2.719  -0.403  0.00  0.00    +0.000 C 
ATOM     22  O   UNL     1       2.096  -1.336  -0.324  0.00  0.00    +0.000 OA
ENDBRANCH  15  22
ENDBRANCH   1  20
TORSDOF 2
