REMARK  Name = 
REMARK  3 active torsions:
REMARK  status: ('A' for Active; 'I' for Inactive)
REMARK    1  A    between atoms: N_2  and  C_4
REMARK    2  A    between atoms: C_7  and  N_8
REMARK    3  A    between atoms: N_9  and  C_10
REMARK                            x       y       z     vdW  Elec       q    Type
REMARK                         _______ _______ _______ _____ _____    ______ ____
ROOT
ATOM      1  N   UNL     1       0.316   0.363   0.584  0.00  0.00    +0.000 NA
ATOM      2  N   UNL     1       0.896   0.498  -0.526  0.00  0.00    +0.000 NA
ENDROOT
BRANCH   2   3
ATOM      3  C   UNL     1       2.268   0.714  -0.710  0.00  0.00    +0.000 A 
ATOM      4  C   UNL     1       2.693   1.943  -1.192  0.00  0.00    +0.000 A 
ATOM      5  C   UNL     1       4.041   2.177  -1.381  0.00  0.00    +0.000 A 
ATOM      6  C   UNL     1       5.006   1.227  -1.106  0.00  0.00    +0.000 A 
ATOM      7  N   UNL     1       6.402   1.492  -1.309  0.00  0.00    +0.000 NA
ATOM      8  C   UNL     1       4.556   0.011  -0.626  0.00  0.00    +0.000 A 
ATOM      9  C   UNL     1       3.216  -0.248  -0.429  0.00  0.00    +0.000 A 
ATOM     10 CL   UNL     1       2.642  -1.786   0.179  0.00  0.00    +0.000 Cl
ENDBRANCH   2   3
BRANCH   1  14
ATOM     11  C   UNL     1      -3.863  -0.370   0.722  0.00  0.00    +0.000 A 
ATOM     12  C   UNL     1      -3.297   0.710   1.366  0.00  0.00    +0.000 A 
ATOM     13  C   UNL     1      -1.944   0.982   1.344  0.00  0.00    +0.000 A 
ATOM     14  C   UNL     1      -1.085   0.148   0.651  0.00  0.00    +0.000 A 
ATOM     15  C   UNL     1      -1.649  -0.928   0.010  0.00  0.00    +0.000 A 
ATOM     16  C   UNL     1      -2.990  -1.201   0.029  0.00  0.00    +0.000 A 
BRANCH  11  18
ATOM     17  C   UNL     1      -6.083   0.311   1.518  0.00  0.00    +0.000 C 
ATOM     18  N   UNL     1      -5.256  -0.609   0.771  0.00  0.00    +0.000 N 
ATOM     19  C   UNL     1      -5.872  -1.734   0.105  0.00  0.00    +0.000 C 
ENDBRANCH  11  18
ENDBRANCH   1  14
TORSDOF 3
