REMARK  Name = 
REMARK  4 active torsions:
REMARK  status: ('A' for Active; 'I' for Inactive)
REMARK    1  A    between atoms: C_2  and  C_3
REMARK    2  A    between atoms: C_3  and  N_4
REMARK    3  A    between atoms: C_5  and  S_6
REMARK    4  A    between atoms: S_6  and  C_7
REMARK                            x       y       z     vdW  Elec       q    Type
REMARK                         _______ _______ _______ _____ _____    ______ ____
ROOT
ATOM      1  N   UNL     1      -1.060   0.566   0.034  0.00  0.00    +0.000 N 
ATOM      2  C   UNL     1      -0.294  -0.119  -0.832  0.00  0.00    +0.000 A 
ATOM      3  N   UNL     1      -0.760  -1.381  -0.791  0.00  0.00    +0.000 NA
ATOM      4  C   UNL     1      -1.787  -1.475   0.074  0.00  0.00    +0.000 A 
ATOM      5  C   UNL     1      -2.591  -2.515   0.475  0.00  0.00    +0.000 A 
ATOM      6  C   UNL     1      -3.601  -2.316   1.410  0.00  0.00    +0.000 A 
ATOM      7  C   UNL     1      -3.796  -1.056   1.943  0.00  0.00    +0.000 A 
ATOM      8  C   UNL     1      -2.991  -0.003   1.548  0.00  0.00    +0.000 A 
ATOM      9  C   UNL     1      -1.984  -0.218   0.610  0.00  0.00    +0.000 A 
ENDROOT
BRANCH   1  10
ATOM     10  C   UNL     1      -0.897   1.980   0.303  0.00  0.00    +0.000 C 
BRANCH  10  12
ATOM     11  O   UNL     1      -1.367   2.604  -1.938  0.00  0.00    +0.000 OA
ATOM     12  C   UNL     1      -1.730   2.830  -0.626  0.00  0.00    +0.000 C 
ENDBRANCH  10  12
ENDBRANCH   1  10
BRANCH   2  13
ATOM     13  S   UNL     1       1.064   0.480  -1.835  0.00  0.00    +0.000 S 
BRANCH  13  14
ATOM     14  C   UNL     1       2.638   0.376  -1.035  0.00  0.00    +0.000 C 
ATOM     15  C   UNL     1       2.840   1.242   0.147  0.00  0.00    +0.000 C 
ATOM     16  C   UNL     1       4.327   1.283   0.454  0.00  0.00    +0.000 C 
ATOM     17  C   UNL     1       4.907  -0.111   0.616  0.00  0.00    +0.000 C 
ATOM     18  C   UNL     1       3.850  -1.175   0.404  0.00  0.00    +0.000 C 
ATOM     19  C   UNL     1       3.232  -0.991  -0.961  0.00  0.00    +0.000 C 
ENDBRANCH  13  14
ENDBRANCH   2  13
TORSDOF 4
