REMARK  Name = 
REMARK  3 active torsions:
REMARK  status: ('A' for Active; 'I' for Inactive)
REMARK    1  A    between atoms: C_2  and  C_11
REMARK    2  A    between atoms: N_3  and  C_4
REMARK    3  A    between atoms: C_14  and  N_15
REMARK                            x       y       z     vdW  Elec       q    Type
REMARK                         _______ _______ _______ _____ _____    ______ ____
ROOT
ATOM      1  O   UNL     1      -0.912   0.442   1.538  0.00  0.00    +0.000 OA
ATOM      2  C   UNL     1      -0.411   0.043   0.428  0.00  0.00    +0.000 C 
ATOM      3  N   UNL     1      -1.372  -0.227  -0.582  0.00  0.00    +0.000 NA
ENDROOT
BRANCH   3   4
ATOM      4  C   UNL     1      -2.798  -0.082  -0.428  0.00  0.00    +0.000 C 
ATOM      5  C   UNL     1      -3.361  -0.655   0.816  0.00  0.00    +0.000 C 
ATOM      6  C   UNL     1      -4.706  -1.288   0.681  0.00  0.00    +0.000 C 
ATOM      7  C   UNL     1      -5.700  -0.276   0.150  0.00  0.00    +0.000 C 
ATOM      8  C   UNL     1      -5.323  -0.003  -1.285  0.00  0.00    +0.000 C 
ATOM      9  C   UNL     1      -4.629   1.358  -1.359  0.00  0.00    +0.000 C 
ATOM     10  C   UNL     1      -3.265   1.315  -0.745  0.00  0.00    +0.000 C 
ENDBRANCH   3   4
BRANCH   2  11
ATOM     11  C   UNL     1       1.025  -0.105   0.261  0.00  0.00    +0.000 A 
ATOM     12  C   UNL     1       1.648  -1.302   0.547  0.00  0.00    +0.000 A 
ATOM     13  C   UNL     1       3.026  -1.457   0.390  0.00  0.00    +0.000 A 
ATOM     14  C   UNL     1       3.787  -0.396  -0.059  0.00  0.00    +0.000 A 
ATOM     15  C   UNL     1       3.193   0.822  -0.355  0.00  0.00    +0.000 A 
ATOM     16  C   UNL     1       1.836   0.922  -0.185  0.00  0.00    +0.000 A 
ATOM     17 CL   UNL     1       1.026   2.443  -0.546  0.00  0.00    +0.000 Cl
BRANCH  14  18
ATOM     18  N   UNL     1       5.204  -0.510  -0.237  0.00  0.00    +0.000 N 
ATOM     19  O   UNL     1       5.769  -1.585   0.013  0.00  0.00    +0.000 OA
ATOM     20  O   UNL     1       5.963   0.540  -0.682  0.00  0.00    +0.000 OA
ENDBRANCH  14  18
ENDBRANCH   2  11
TORSDOF 3
