REMARK  Name = 
REMARK  4 active torsions:
REMARK  status: ('A' for Active; 'I' for Inactive)
REMARK    1  A    between atoms: C_2  and  C_3
REMARK    2  A    between atoms: C_6  and  N_7
REMARK    3  A    between atoms: C_8  and  C_10
REMARK    4  A    between atoms: C_15  and  N_16
REMARK                            x       y       z     vdW  Elec       q    Type
REMARK                         _______ _______ _______ _____ _____    ______ ____
ROOT
ATOM      1  N   UNL     1       1.086   0.072  -0.909  0.00  0.00    +0.000 NA
ATOM      2  C   UNL     1      -0.051  -0.059  -0.070  0.00  0.00    +0.000 C 
ATOM      3  O   UNL     1       0.161  -0.377   1.124  0.00  0.00    +0.000 OA
ENDROOT
BRANCH   2   4
ATOM      4  C   UNL     1      -1.412   0.156  -0.533  0.00  0.00    +0.000 A 
ATOM      5  C   UNL     1      -1.695   0.520  -1.844  0.00  0.00    +0.000 A 
ATOM      6  C   UNL     1      -3.005   0.711  -2.235  0.00  0.00    +0.000 A 
ATOM      7  C   UNL     1      -4.026   0.541  -1.330  0.00  0.00    +0.000 A 
ATOM      8  C   UNL     1      -5.448   0.739  -1.721  0.00  0.00    +0.000 C 
ATOM      9  C   UNL     1      -3.744   0.177  -0.021  0.00  0.00    +0.000 A 
ATOM     10  C   UNL     1      -2.446  -0.008   0.350  0.00  0.00    +0.000 A 
BRANCH   9  11
ATOM     11  N   UNL     1      -4.821   0.011   0.877  0.00  0.00    +0.000 N 
ATOM     12  O   UNL     1      -5.911  -0.389   0.451  0.00  0.00    +0.000 OA
ATOM     13  O   UNL     1      -4.663   0.289   2.204  0.00  0.00    +0.000 OA
ENDBRANCH   9  11
ENDBRANCH   2   4
BRANCH   1  17
ATOM     14  C   UNL     1       5.065  -0.558   0.441  0.00  0.00    +0.000 A 
ATOM     15  C   UNL     1       4.793  -0.211  -0.867  0.00  0.00    +0.000 A 
ATOM     16  C   UNL     1       3.484  -0.006  -1.300  0.00  0.00    +0.000 A 
ATOM     17  C   UNL     1       2.413  -0.141  -0.444  0.00  0.00    +0.000 A 
ATOM     18  C   UNL     1       2.689  -0.488   0.862  0.00  0.00    +0.000 A 
ATOM     19  C   UNL     1       3.989  -0.692   1.296  0.00  0.00    +0.000 A 
BRANCH  14  21
ATOM     20  C   UNL     1       7.073   0.495   1.427  0.00  0.00    +0.000 C 
ATOM     21  C   UNL     1       6.467  -0.780   0.916  0.00  0.00    +0.000 C 
ENDBRANCH  14  21
ENDBRANCH   1  17
TORSDOF 4
