REMARK  Name = 
REMARK  1 active torsions:
REMARK  status: ('A' for Active; 'I' for Inactive)
REMARK    1  A    between atoms: C_4  and  C_5
REMARK                            x       y       z     vdW  Elec       q    Type
REMARK                         _______ _______ _______ _____ _____    ______ ____
ROOT
ATOM      1  N   UNL     1       0.099   3.887   0.570  0.00  0.00    +0.000 NA
ATOM      2  C   UNL     1       0.065   2.471   0.300  0.00  0.00    +0.000 A 
ATOM      3  N   UNL     1      -1.079   1.773   0.424  0.00  0.00    +0.000 NA
ATOM      4  C   UNL     1      -1.130   0.447   0.176  0.00  0.00    +0.000 A 
ATOM      5  C   UNL     1       0.076  -0.132  -0.213  0.00  0.00    +0.000 A 
ATOM      6  C   UNL     1       1.249   0.573  -0.343  0.00  0.00    +0.000 A 
ATOM      7  N   UNL     1       2.419  -0.109  -0.744  0.00  0.00    +0.000 N 
ATOM      8  C   UNL     1       2.354  -1.524  -1.006  0.00  0.00    +0.000 C 
ATOM      9  C   UNL     1       3.270  -2.204   0.006  0.00  0.00    +0.000 C 
ATOM     10  C   UNL     1       4.115  -1.197   0.752  0.00  0.00    +0.000 C 
ATOM     11  C   UNL     1       4.744  -0.181  -0.187  0.00  0.00    +0.000 C 
ATOM     12  C   UNL     1       3.658   0.612  -0.885  0.00  0.00    +0.000 C 
ATOM     13  N   UNL     1       1.216   1.890  -0.077  0.00  0.00    +0.000 NA
ENDROOT
BRANCH   4  14
ATOM     14  C   UNL     1      -2.333  -0.334   0.298  0.00  0.00    +0.000 A 
ATOM     15  C   UNL     1      -3.493   0.277   0.682  0.00  0.00    +0.000 A 
ATOM     16  C   UNL     1      -4.688  -0.401   0.823  0.00  0.00    +0.000 A 
ATOM     17  C   UNL     1      -4.680  -1.754   0.555  0.00  0.00    +0.000 A 
ATOM     18  C   UNL     1      -3.523  -2.419   0.161  0.00  0.00    +0.000 A 
ATOM     19  C   UNL     1      -2.338  -1.675   0.036  0.00  0.00    +0.000 A 
ENDBRANCH   4  14
TORSDOF 1
