REMARK  Name = 
REMARK  4 active torsions:
REMARK  status: ('A' for Active; 'I' for Inactive)
REMARK    1  A    between atoms: C_2  and  O_5
REMARK    2  A    between atoms: O_5  and  C_6
REMARK    3  A    between atoms: N_8  and  C_9
REMARK    4  A    between atoms: C_16  and  C_17
REMARK                            x       y       z     vdW  Elec       q    Type
REMARK                         _______ _______ _______ _____ _____    ______ ____
ROOT
ATOM      1  C   UNL     1      -0.656  -0.459   0.429  0.00  0.00    +0.000 A 
ATOM      2  C   UNL     1      -0.472  -1.538   1.266  0.00  0.00    +0.000 A 
ATOM      3  C   UNL     1      -1.580  -2.146   1.855  0.00  0.00    +0.000 A 
ATOM      4  C   UNL     1      -2.871  -1.718   1.640  0.00  0.00    +0.000 A 
ATOM      5  C   UNL     1      -3.041  -0.638   0.801  0.00  0.00    +0.000 A 
ATOM      6  N   UNL     1      -4.177  -0.013   0.415  0.00  0.00    +0.000 NA
ATOM      7  C   UNL     1      -3.813   0.983  -0.409  0.00  0.00    +0.000 A 
ATOM      8  C   UNL     1      -2.449   1.004  -0.558  0.00  0.00    +0.000 A 
ATOM      9  C   UNL     1      -1.943  -0.020   0.205  0.00  0.00    +0.000 A 
ENDROOT
BRANCH   1  12
ATOM     10  C   UNL     1       1.768  -0.124  -0.070  0.00  0.00    +0.000 C 
ATOM     11  O   UNL     1       2.025  -1.102   0.680  0.00  0.00    +0.000 OA
ATOM     12  N   UNL     1       0.410   0.228  -0.218  0.00  0.00    +0.000 NA
BRANCH  10  13
ATOM     13  O   UNL     1       2.807   0.557  -0.710  0.00  0.00    +0.000 OA
BRANCH  13  15
ATOM     14  C   UNL     1       4.457   0.280   0.948  0.00  0.00    +0.000 C 
ATOM     15  C   UNL     1       4.158   0.159  -0.525  0.00  0.00    +0.000 C 
ATOM     16  C   UNL     1       4.249  -1.288  -0.989  0.00  0.00    +0.000 C 
ATOM     17  C   UNL     1       5.034   1.066  -1.362  0.00  0.00    +0.000 C 
ENDBRANCH  13  15
ENDBRANCH  10  13
ENDBRANCH   1  12
BRANCH   8  18
ATOM     18  C   UNL     1      -1.668   1.930  -1.367  0.00  0.00    +0.000 C 
ATOM     19  O   UNL     1      -2.239   2.837  -2.031  0.00  0.00    +0.000 OA
ENDBRANCH   8  18
TORSDOF 4
