REMARK  Name = 
REMARK  3 active torsions:
REMARK  status: ('A' for Active; 'I' for Inactive)
REMARK    1  A    between atoms: C_2  and  C_3
REMARK    2  A    between atoms: C_6  and  N_7
REMARK    3  A    between atoms: N_7  and  C_8
REMARK                            x       y       z     vdW  Elec       q    Type
REMARK                         _______ _______ _______ _____ _____    ______ ____
ROOT
ATOM      1  C   UNL     1      -3.794   0.362   0.612  0.00  0.00    +0.000 A 
ATOM      2  C   UNL     1      -2.444   0.536   0.582  0.00  0.00    +0.000 A 
ATOM      3  C   UNL     1      -1.674  -0.491   0.204  0.00  0.00    +0.000 A 
ATOM      4  C   UNL     1      -0.273  -0.502   0.112  0.00  0.00    +0.000 A 
ATOM      5  N   UNL     1       0.351  -1.605  -0.282  0.00  0.00    +0.000 NA
ATOM      6  C   UNL     1      -0.258  -2.753  -0.612  0.00  0.00    +0.000 A 
ATOM      7  N   UNL     1      -1.608  -2.760  -0.529  0.00  0.00    +0.000 NA
ATOM      8  C   UNL     1      -2.310  -1.655  -0.130  0.00  0.00    +0.000 A 
ATOM      9  S   UNL     1      -3.958  -1.261   0.101  0.00  0.00    +0.000 S 
ENDROOT
BRANCH   1  11
ATOM     10  C   UNL     1      -5.252   2.097  -0.255  0.00  0.00    +0.000 C 
ATOM     11  C   UNL     1      -4.852   1.361   0.999  0.00  0.00    +0.000 C 
ENDBRANCH   1  11
BRANCH   4  12
ATOM     12  N   UNL     1       0.476   0.672   0.442  0.00  0.00    +0.000 NA
BRANCH  12  13
ATOM     13  C   UNL     1       1.874   0.713   0.367  0.00  0.00    +0.000 A 
ATOM     14  C   UNL     1       2.650  -0.351  -0.024  0.00  0.00    +0.000 A 
ATOM     15  C   UNL     1       4.024  -0.244  -0.076  0.00  0.00    +0.000 A 
ATOM     16  C   UNL     1       4.632   0.932   0.263  0.00  0.00    +0.000 A 
ATOM     17  O   UNL     1       6.031   1.024   0.205  0.00  0.00    +0.000 OA
ATOM     18  C   UNL     1       3.876   2.030   0.664  0.00  0.00    +0.000 A 
ATOM     19  C   UNL     1       2.509   1.893   0.706  0.00  0.00    +0.000 A 
ENDBRANCH  12  13
ENDBRANCH   4  12
TORSDOF 3
