REMARK  Name = 
REMARK  3 active torsions:
REMARK  status: ('A' for Active; 'I' for Inactive)
REMARK    1  A    between atoms: C_6  and  C_7
REMARK    2  A    between atoms: C_7  and  C_8
REMARK    3  A    between atoms: CA_12  and  C_13
REMARK                            x       y       z     vdW  Elec       q    Type
REMARK                         _______ _______ _______ _____ _____    ______ ____
ROOT
ATOM      1  C   UNL     1      -5.415   0.129   1.659  0.00  0.00    +0.000 C 
ATOM      2  C   UNL     1      -4.154   0.107   0.855  0.00  0.00    +0.000 A 
ATOM      3  C   UNL     1      -3.169  -0.832   1.055  0.00  0.00    +0.000 A 
ATOM      4  C   UNL     1      -2.000  -0.849   0.306  0.00  0.00    +0.000 A 
ATOM      5  N   UNL     1      -0.903  -1.593   0.259  0.00  0.00    +0.000 NA
ATOM      6  C   UNL     1      -0.052  -1.160  -0.686  0.00  0.00    +0.000 A 
ATOM      7  N   UNL     1      -0.661  -0.099  -1.242  0.00  0.00    +0.000 NA
ATOM      8  C   UNL     1      -1.863   0.126  -0.659  0.00  0.00    +0.000 A 
ATOM      9  C   UNL     1      -2.858   1.078  -0.864  0.00  0.00    +0.000 A 
ATOM     10  C   UNL     1      -4.013   1.080  -0.111  0.00  0.00    +0.000 A 
ATOM     11  C   UNL     1      -5.093   2.094  -0.317  0.00  0.00    +0.000 C 
ENDROOT
BRANCH   6  12
ATOM     12  C   UNL     1       1.280  -1.666  -1.102  0.00  0.00    +0.000 C 
BRANCH  12  13
ATOM     13  C   UNL     1       2.359  -1.032  -0.344  0.00  0.00    +0.000 A 
ATOM     14  C   UNL     1       2.793  -1.597   0.830  0.00  0.00    +0.000 A 
ATOM     15  C   UNL     1       3.823  -1.020   1.583  0.00  0.00    +0.000 A 
ATOM     16  C   UNL     1       4.391   0.131   1.116  0.00  0.00    +0.000 A 
ATOM     17  CA  UNL     1       3.950   0.685  -0.057  0.00  0.00    +0.000 A 
ATOM     18  N   UNL     1       2.942   0.099  -0.772  0.00  0.00    +0.000 NA
BRANCH  17  19
ATOM     19  C   UNL     1       4.596   1.938  -0.531  0.00  0.00    +0.000 C 
ATOM     20  O   UNL     1       4.048   2.382  -1.727  0.00  0.00    +0.000 OA
ENDBRANCH  17  19
ENDBRANCH  12  13
ENDBRANCH   6  12
TORSDOF 3
