REMARK  Name = 
REMARK  4 active torsions:
REMARK  status: ('A' for Active; 'I' for Inactive)
REMARK    1  A    between atoms: C_2  and  N_3
REMARK    2  A    between atoms: C_2  and  N_10
REMARK    3  A    between atoms: N_3  and  C_4
REMARK    4  A    between atoms: N_10  and  C_11
REMARK                            x       y       z     vdW  Elec       q    Type
REMARK                         _______ _______ _______ _____ _____    ______ ____
ROOT
ATOM      1  S   UNL     1      -0.512  -1.533   1.111  0.00  0.00    +0.000 S 
ATOM      2  C   UNL     1      -0.024  -0.032   0.734  0.00  0.00    +0.000 C 
ENDROOT
BRANCH   2   3
ATOM      3  N   UNL     1      -0.957   1.034   0.706  0.00  0.00    +0.000 NA
BRANCH   3   4
ATOM      4  C   UNL     1      -2.334   0.791   1.009  0.00  0.00    +0.000 A 
ATOM      5  C   UNL     1      -3.256   1.797   0.990  0.00  0.00    +0.000 A 
ATOM      6  C   UNL     1      -4.563   1.491   1.291  0.00  0.00    +0.000 A 
ATOM      7  C   UNL     1      -4.935   0.208   1.605  0.00  0.00    +0.000 A 
ATOM      8  N   UNL     1      -4.016  -0.771   1.620  0.00  0.00    +0.000 NA
ATOM      9  C   UNL     1      -2.751  -0.481   1.328  0.00  0.00    +0.000 A 
ENDBRANCH   3   4
ENDBRANCH   2   3
BRANCH   2  10
ATOM     10  N   UNL     1       1.314   0.226   0.436  0.00  0.00    +0.000 NA
BRANCH  10  11
ATOM     11  C   UNL     1       2.273  -0.839   0.460  0.00  0.00    +0.000 C 
ATOM     12  C   UNL     1       1.900  -1.911  -0.530  0.00  0.00    +0.000 C 
ATOM     13  C   UNL     1       1.978  -1.332  -1.944  0.00  0.00    +0.000 C 
ATOM     14  C   UNL     1       1.566   0.114  -1.958  0.00  0.00    +0.000 C 
ATOM     15  C   UNL     1       2.615   1.013  -2.580  0.00  0.00    +0.000 C 
ATOM     16  C   UNL     1       3.940   0.918  -1.871  0.00  0.00    +0.000 C 
ATOM     17  C   UNL     1       4.124  -0.417  -1.181  0.00  0.00    +0.000 C 
ATOM     18  C   UNL     1       3.639  -0.277   0.255  0.00  0.00    +0.000 C 
ENDBRANCH  10  11
ENDBRANCH   2  10
TORSDOF 4
