REMARK  Name = 
REMARK  2 active torsions:
REMARK  status: ('A' for Active; 'I' for Inactive)
REMARK    1  A    between atoms: C_2  and  C_3
REMARK    2  A    between atoms: N_8  and  C_9
REMARK                            x       y       z     vdW  Elec       q    Type
REMARK                         _______ _______ _______ _____ _____    ______ ____
ROOT
ATOM      1  C   UNL     1      -1.514   1.620  -0.042  0.00  0.00    +0.000 A 
ATOM      2  C   UNL     1      -2.361   0.537   0.013  0.00  0.00    +0.000 A 
ATOM      3  O   UNL     1      -3.761   0.677  -0.041  0.00  0.00    +0.000 OA
ATOM      4  N   UNL     1      -1.803  -0.687   0.123  0.00  0.00    +0.000 N 
ATOM      5  C   UNL     1      -0.446  -0.843   0.177  0.00  0.00    +0.000 A 
ATOM      6  N   UNL     1       0.377   0.208   0.124  0.00  0.00    +0.000 N 
ATOM      7  C   UNL     1      -0.133   1.445   0.014  0.00  0.00    +0.000 A 
ATOM      8  O   UNL     1       0.664   2.416  -0.034  0.00  0.00    +0.000 OA
ATOM      9  C   UNL     1       0.154  -2.198   0.297  0.00  0.00    +0.000 C 
ATOM     10  C   UNL     1      -0.694  -3.125  -0.566  0.00  0.00    +0.000 C 
ATOM     11  C   UNL     1      -2.065  -3.143   0.034  0.00  0.00    +0.000 C 
ATOM     12  C   UNL     1      -2.714  -1.808   0.181  0.00  0.00    +0.000 C 
ENDROOT
BRANCH   6  13
ATOM     13  C   UNL     1       1.792  -0.017   0.179  0.00  0.00    +0.000 A 
ATOM     14  C   UNL     1       2.429  -0.841  -0.721  0.00  0.00    +0.000 A 
ATOM     15  C   UNL     1       3.786  -1.042  -0.662  0.00  0.00    +0.000 A 
ATOM     16  C   UNL     1       4.538  -0.419   0.307  0.00  0.00    +0.000 A 
ATOM     17  C   UNL     1       3.883   0.401   1.198  0.00  0.00    +0.000 A 
ATOM     18  C   UNL     1       2.531   0.612   1.151  0.00  0.00    +0.000 A 
ENDBRANCH   6  13
BRANCH   1  20
ATOM     19  C   UNL     1      -2.570   3.237  -1.569  0.00  0.00    +0.000 C 
ATOM     20  C   UNL     1      -2.095   2.968  -0.164  0.00  0.00    +0.000 C 
ENDBRANCH   1  20
TORSDOF 2
