REMARK  Name = 
REMARK  5 active torsions:
REMARK  status: ('A' for Active; 'I' for Inactive)
REMARK    1  A    between atoms: C_2  and  C_3
REMARK    2  A    between atoms: C_3  and  C_4
REMARK    3  A    between atoms: C_4  and  C_5
REMARK    4  A    between atoms: C_8  and  C_9
REMARK    5  A    between atoms: C_14  and  C_15
REMARK                            x       y       z     vdW  Elec       q    Type
REMARK                         _______ _______ _______ _____ _____    ______ ____
ROOT
ATOM      1  C   UNL     1       2.072  -0.907   0.368  0.00  0.00    +0.000 A 
ATOM      2  C   UNL     1       1.753   0.081   1.275  0.00  0.00    +0.000 A 
ATOM      3  C   UNL     1       0.538   0.732   1.205  0.00  0.00    +0.000 A 
ATOM      4  C   UNL     1      -0.402   0.432   0.241  0.00  0.00    +0.000 A 
ATOM      5  C   UNL     1      -0.063  -0.557  -0.654  0.00  0.00    +0.000 A 
ATOM      6  C   UNL     1       1.146  -1.218  -0.600  0.00  0.00    +0.000 A 
ENDROOT
BRANCH   4   7
ATOM      7  C   UNL     1      -1.708   1.135   0.170  0.00  0.00    +0.000 A 
ATOM      8  C   UNL     1      -1.732   2.495   0.297  0.00  0.00    +0.000 A 
ATOM      9  S   UNL     1      -3.385   2.878   0.159  0.00  0.00    +0.000 S 
ATOM     10  C   UNL     1      -4.005   1.309  -0.056  0.00  0.00    +0.000 A 
ATOM     11  N   UNL     1      -5.388   0.928  -0.239  0.00  0.00    +0.000 NA
ATOM     12  C   UNL     1      -2.894   0.515  -0.015  0.00  0.00    +0.000 A 
BRANCH  12  13
ATOM     13  C   UNL     1      -3.044  -0.937  -0.169  0.00  0.00    +0.000 C 
ATOM     14  N   UNL     1      -3.153  -2.097  -0.280  0.00  0.00    +0.000 NA
ENDBRANCH  12  13
ENDBRANCH   4   7
BRANCH   1  15
ATOM     15  C   UNL     1       3.397  -1.622   0.438  0.00  0.00    +0.000 C 
BRANCH  15  16
ATOM     16  C   UNL     1       4.380  -0.840  -0.421  0.00  0.00    +0.000 C 
BRANCH  16  18
ATOM     17  C   UNL     1       6.749  -0.803  -1.211  0.00  0.00    +0.000 C 
ATOM     18  C   UNL     1       5.743  -1.525  -0.385  0.00  0.00    +0.000 C 
ENDBRANCH  16  18
ENDBRANCH  15  16
ENDBRANCH   1  15
TORSDOF 5
