REMARK  Name = 
REMARK  7 active torsions:
REMARK  status: ('A' for Active; 'I' for Inactive)
REMARK    1  A    between atoms: O_2  and  C_3
REMARK    2  A    between atoms: C_6  and  O_7
REMARK    3  A    between atoms: C_9  and  N_10
REMARK    4  A    between atoms: C_11  and  C_13
REMARK    5  A    between atoms: C_13  and  N_14
REMARK    6  A    between atoms: C_17  and  C_18
REMARK    7  A    between atoms: C_20  and  C_21
REMARK                            x       y       z     vdW  Elec       q    Type
REMARK                         _______ _______ _______ _____ _____    ______ ____
ROOT
ATOM      1  N   UNL     1       0.356  -0.377   1.430  0.00  0.00    +0.000 NA
ATOM      2  C   UNL     1       1.437   0.282   2.141  0.00  0.00    +0.000 C 
ATOM      3  C   UNL     1       1.328   1.764   1.845  0.00  0.00    +0.000 C 
ATOM      4  C   UNL     1       1.457   2.004   0.343  0.00  0.00    +0.000 C 
ATOM      5  C   UNL     1       0.457   1.144  -0.410  0.00  0.00    +0.000 C 
ATOM      6  C   UNL     1       0.668  -0.316   0.013  0.00  0.00    +0.000 C 
ENDROOT
BRANCH   4   7
ATOM      7  C   UNL     1       2.825   1.685  -0.094  0.00  0.00    +0.000 A 
ATOM      8  N   UNL     1       3.520   0.589   0.230  0.00  0.00    +0.000 NA
ATOM      9  C   UNL     1       4.714   0.714  -0.387  0.00  0.00    +0.000 A 
ATOM     10  N   UNL     1       4.731   1.871  -1.072  0.00  0.00    +0.000 NA
ATOM     11  O   UNL     1       3.570   2.426  -0.867  0.00  0.00    +0.000 OA
BRANCH   9  12
ATOM     12  C   UNL     1       5.803  -0.262  -0.314  0.00  0.00    +0.000 A 
ATOM     13  C   UNL     1       6.981  -0.019  -0.992  0.00  0.00    +0.000 A 
ATOM     14  C   UNL     1       8.019  -0.912  -0.943  0.00  0.00    +0.000 A 
ATOM     15  C   UNL     1       7.866  -2.059  -0.203  0.00  0.00    +0.000 A 
ATOM     16  N   UNL     1       6.705  -2.277   0.453  0.00  0.00    +0.000 NA
ATOM     17  C   UNL     1       5.680  -1.407   0.412  0.00  0.00    +0.000 A 
ENDBRANCH   9  12
ENDBRANCH   4   7
BRANCH   1  18
ATOM     18  C   UNL     1      -0.843   0.403   1.644  0.00  0.00    +0.000 C 
BRANCH  18  20
ATOM     19  N   UNL     1      -3.266   0.508   1.101  0.00  0.00    +0.000 NA
ATOM     20  C   UNL     1      -2.018  -0.159   0.974  0.00  0.00    +0.000 C 
ATOM     21  O   UNL     1      -1.923  -1.215   0.298  0.00  0.00    +0.000 OA
BRANCH  19  26
ATOM     22  C   UNL     1      -5.526  -1.653  -0.903  0.00  0.00    +0.000 A 
ATOM     23  C   UNL     1      -6.691  -0.936  -0.723  0.00  0.00    +0.000 A 
ATOM     24  C   UNL     1      -6.739   0.218   0.030  0.00  0.00    +0.000 A 
ATOM     25  C   UNL     1      -5.606   0.709   0.642  0.00  0.00    +0.000 A 
ATOM     26  C   UNL     1      -4.436   0.001   0.469  0.00  0.00    +0.000 A 
ATOM     27  C   UNL     1      -4.394  -1.153  -0.286  0.00  0.00    +0.000 A 
BRANCH  22  29
ATOM     28  C   UNL     1      -6.714  -3.247  -2.261  0.00  0.00    +0.000 C 
ATOM     29  O   UNL     1      -5.507  -2.811  -1.666  0.00  0.00    +0.000 OA
ENDBRANCH  22  29
BRANCH  25  30
ATOM     30  O   UNL     1      -5.634   1.878   1.410  0.00  0.00    +0.000 OA
ATOM     31  C   UNL     1      -6.821   2.606   1.592  0.00  0.00    +0.000 C 
ENDBRANCH  25  30
ENDBRANCH  19  26
ENDBRANCH  18  20
ENDBRANCH   1  18
TORSDOF 7
