REMARK  Name = 
REMARK  3 active torsions:
REMARK  status: ('A' for Active; 'I' for Inactive)
REMARK    1  A    between atoms: C_2  and  C_3
REMARK    2  A    between atoms: C_3  and  C_9
REMARK    3  A    between atoms: C_11  and  C_12
REMARK                            x       y       z     vdW  Elec       q    Type
REMARK                         _______ _______ _______ _____ _____    ______ ____
ROOT
ATOM      1  C   UNL     1       0.999   0.260   0.051  0.00  0.00    +0.000 A 
ATOM      2  N   UNL     1      -0.243   0.184  -0.341  0.00  0.00    +0.000 NA
ATOM      3  C   UNL     1      -1.209   0.511   0.447  0.00  0.00    +0.000 A 
ATOM      4  C   UNL     1      -0.877   0.942   1.708  0.00  0.00    +0.000 A 
ATOM      5  S   UNL     1       0.853   0.834   1.651  0.00  0.00    +0.000 S 
ENDROOT
BRANCH   3   6
ATOM      6  C   UNL     1      -2.618   0.421   0.031  0.00  0.00    +0.000 A 
ATOM      7  C   UNL     1      -2.995  -0.064  -1.206  0.00  0.00    +0.000 A 
ATOM      8  C   UNL     1      -4.296  -0.160  -1.627  0.00  0.00    +0.000 A 
ATOM      9  C   UNL     1      -5.308   0.243  -0.793  0.00  0.00    +0.000 A 
ATOM     10  C   UNL     1      -4.975   0.736   0.461  0.00  0.00    +0.000 A 
ATOM     11  C   UNL     1      -3.663   0.819   0.855  0.00  0.00    +0.000 A 
ATOM     12  O   UNL     1      -3.335   1.315   2.123  0.00  0.00    +0.000 OA
ENDBRANCH   3   6
BRANCH   1  13
ATOM     13  C   UNL     1       2.231  -0.047  -0.707  0.00  0.00    +0.000 C 
ATOM     14  C   UNL     1       3.227  -0.741  -0.220  0.00  0.00    +0.000 C 
ATOM     15  C   UNL     1       4.471  -1.029  -0.965  0.00  0.00    +0.000 C 
ATOM     16  C   UNL     1       5.131  -2.193  -0.312  0.00  0.00    +0.000 C 
ATOM     17  C   UNL     1       4.672  -2.084   1.134  0.00  0.00    +0.000 C 
ATOM     18  C   UNL     1       3.341  -1.398   1.123  0.00  0.00    +0.000 C 
BRANCH  13  20
ATOM     19  N   UNL     1       2.319   0.950  -3.113  0.00  0.00    +0.000 NA
ATOM     20  C   UNL     1       2.275   0.499  -2.049  0.00  0.00    +0.000 C 
ENDBRANCH  13  20
ENDBRANCH   1  13
TORSDOF 3
