REMARK  Name = 
REMARK  6 active torsions:
REMARK  status: ('A' for Active; 'I' for Inactive)
REMARK    1  A    between atoms: C_2  and  C_4
REMARK    2  A    between atoms: C_7  and  N_8
REMARK    3  A    between atoms: N_8  and  C_9
REMARK    4  A    between atoms: C_9  and  N_11
REMARK    5  A    between atoms: C_12  and  C_14
REMARK    6  A    between atoms: C_14  and  C_15
REMARK                            x       y       z     vdW  Elec       q    Type
REMARK                         _______ _______ _______ _____ _____    ______ ____
ROOT
ATOM      1  N   UNL     1      -0.420   0.156   0.030  0.00  0.00    +0.000 NA
ENDROOT
BRANCH   1   5
ATOM      2  C   UNL     1       3.759  -0.417   0.455  0.00  0.00    +0.000 A 
ATOM      3  C   UNL     1       3.210   0.841   0.440  0.00  0.00    +0.000 A 
ATOM      4  C   UNL     1       1.841   1.057   0.301  0.00  0.00    +0.000 A 
ATOM      5  C   UNL     1       0.984  -0.014   0.173  0.00  0.00    +0.000 A 
ATOM      6  C   UNL     1       1.519  -1.281   0.187  0.00  0.00    +0.000 A 
ATOM      7  C   UNL     1       2.874  -1.486   0.324  0.00  0.00    +0.000 A 
BRANCH   2   9
ATOM      8  C   UNL     1       5.718  -2.036   0.608  0.00  0.00    +0.000 C 
ATOM      9  C   UNL     1       5.188  -0.654   0.599  0.00  0.00    +0.000 C 
ATOM     10  O   UNL     1       5.964   0.313   0.715  0.00  0.00    +0.000 OA
ENDBRANCH   2   9
ENDBRANCH   1   5
BRANCH   1  11
ATOM     11  C   UNL     1      -1.008   1.447   0.011  0.00  0.00    +0.000 C 
ATOM     12  S   UNL     1      -0.037   2.746   0.159  0.00  0.00    +0.000 S 
BRANCH  11  13
ATOM     13  N   UNL     1      -2.413   1.571  -0.134  0.00  0.00    +0.000 NA
ATOM     14  C   UNL     1      -3.231   0.427  -0.260  0.00  0.00    +0.000 C 
ATOM     15  O   UNL     1      -2.632  -0.697  -0.235  0.00  0.00    +0.000 OA
BRANCH  14  16
ATOM     16  C   UNL     1      -4.708   0.498  -0.415  0.00  0.00    +0.000 C 
BRANCH  16  17
ATOM     17  C   UNL     1      -5.231  -0.906  -0.519  0.00  0.00    +0.000 C 
ATOM     18  C   UNL     1      -6.734  -0.846  -0.676  0.00  0.00    +0.000 C 
ATOM     19  C   UNL     1      -4.644  -1.542  -1.764  0.00  0.00    +0.000 C 
ENDBRANCH  16  17
ENDBRANCH  14  16
ENDBRANCH  11  13
ENDBRANCH   1  11
TORSDOF 6
