REMARK  Name = 
REMARK  3 active torsions:
REMARK  status: ('A' for Active; 'I' for Inactive)
REMARK    1  A    between atoms: O_2  and  C_3
REMARK    2  A    between atoms: C_10  and  N_11
REMARK    3  A    between atoms: C_12  and  C_14
REMARK                            x       y       z     vdW  Elec       q    Type
REMARK                         _______ _______ _______ _____ _____    ______ ____
ROOT
ATOM      1  C   UNL     1      -2.074  -1.434   0.012  0.00  0.00    +0.000 A 
ATOM      2  C   UNL     1      -3.447  -1.236  -0.149  0.00  0.00    +0.000 A 
ATOM      3  C   UNL     1      -3.957   0.024  -0.383  0.00  0.00    +0.000 A 
ATOM      4 CL   UNL     1      -5.686   0.271  -0.585  0.00  0.00    +0.000 Cl
ATOM      5  C   UNL     1      -3.065   1.071  -0.451  0.00  0.00    +0.000 A 
ATOM      6  C   UNL     1      -3.583   2.432  -0.701  0.00  0.00    +0.000 C 
ATOM      7  C   UNL     1      -1.713   0.864  -0.291  0.00  0.00    +0.000 A 
ATOM      8  C   UNL     1      -1.183  -0.386  -0.057  0.00  0.00    +0.000 A 
ENDROOT
BRANCH   8   9
ATOM      9  N   UNL     1       0.210  -0.606   0.109  0.00  0.00    +0.000 NA
ATOM     10  C   UNL     1       1.129   0.445   0.043  0.00  0.00    +0.000 C 
ATOM     11  O   UNL     1       0.673   1.614  -0.172  0.00  0.00    +0.000 OA
BRANCH  10  12
ATOM     12  C   UNL     1       2.563   0.314   0.200  0.00  0.00    +0.000 A 
ATOM     13  C   UNL     1       3.137  -0.914   0.435  0.00  0.00    +0.000 A 
ATOM     14  C   UNL     1       4.485  -1.126   0.595  0.00  0.00    +0.000 A 
ATOM     15  C   UNL     1       5.335  -0.053   0.519  0.00  0.00    +0.000 A 
ATOM     16  C   UNL     1       4.800   1.192   0.285  0.00  0.00    +0.000 A 
ATOM     17  C   UNL     1       3.431   1.381   0.126  0.00  0.00    +0.000 A 
ATOM     18  N   UNL     1       2.949   2.679  -0.111  0.00  0.00    +0.000 NA
ENDBRANCH  10  12
ENDBRANCH   8   9
BRANCH   1  20
ATOM     19  C   UNL     1      -2.444  -3.826   0.327  0.00  0.00    +0.000 C 
ATOM     20  O   UNL     1      -1.562  -2.704   0.247  0.00  0.00    +0.000 OA
ENDBRANCH   1  20
TORSDOF 3
