REMARK  Name = 
REMARK  2 active torsions:
REMARK  status: ('A' for Active; 'I' for Inactive)
REMARK    1  A    between atoms: C_2  and  C_5
REMARK    2  A    between atoms: C_10  and  C_12
REMARK                            x       y       z     vdW  Elec       q    Type
REMARK                         _______ _______ _______ _____ _____    ______ ____
ROOT
ATOM      1  C   UNL     1       3.243   0.370  -0.186  0.00  0.00    +0.000 A 
ATOM      2  C   UNL     1       3.123   1.520   0.555  0.00  0.00    +0.000 A 
ATOM      3  S   UNL     1       1.454   1.589   0.851  0.00  0.00    +0.000 S 
ATOM      4  C   UNL     1       1.006   0.143  -0.004  0.00  0.00    +0.000 A 
ATOM      5  N   UNL     1      -0.333  -0.384  -0.211  0.00  0.00    +0.000 NA
ATOM      6  C   UNL     1      -1.459   0.336   0.258  0.00  0.00    +0.000 C 
ATOM      7  O   UNL     1      -1.188   1.424   0.846  0.00  0.00    +0.000 OA
ATOM      8  N   UNL     1       2.143  -0.296  -0.450  0.00  0.00    +0.000 NA
ENDROOT
BRANCH   6   9
ATOM      9  C   UNL     1      -2.845  -0.035   0.131  0.00  0.00    +0.000 A 
ATOM     10  C   UNL     1      -3.804   0.854   0.595  0.00  0.00    +0.000 A 
ATOM     11  C   UNL     1      -5.134   0.607   0.473  0.00  0.00    +0.000 A 
ATOM     12  C   UNL     1      -5.547  -0.539  -0.115  0.00  0.00    +0.000 A 
ATOM     13  C   UNL     1      -4.621  -1.429  -0.573  0.00  0.00    +0.000 A 
ATOM     14  C   UNL     1      -3.243  -1.188  -0.460  0.00  0.00    +0.000 A 
ATOM     15  O   UNL     1      -2.401  -2.144  -0.955  0.00  0.00    +0.000 OA
ENDBRANCH   6   9
BRANCH   1  17
ATOM     16  C   UNL     1       4.396  -1.037  -1.879  0.00  0.00    +0.000 C 
ATOM     17  C   UNL     1       4.591  -0.085  -0.701  0.00  0.00    +0.000 C 
ATOM     18  C   UNL     1       5.258  -0.801   0.415  0.00  0.00    +0.000 C 
ATOM     19  C   UNL     1       5.360   1.097  -1.178  0.00  0.00    +0.000 C 
ENDBRANCH   1  17
TORSDOF 2
