REMARK  Name = 
REMARK  6 active torsions:
REMARK  status: ('A' for Active; 'I' for Inactive)
REMARK    1  A    between atoms: C_2  and  O_5
REMARK    2  A    between atoms: O_5  and  C_6
REMARK    3  A    between atoms: N_8  and  CA_9
REMARK    4  A    between atoms: CA_9  and  C_10
REMARK    5  A    between atoms: CA_9  and  CB_12
REMARK    6  A    between atoms: CB_12  and  CG_13
REMARK                            x       y       z     vdW  Elec       q    Type
REMARK                         _______ _______ _______ _____ _____    ______ ____
ROOT
ATOM      1  CA  TRP A   1      -0.234  -0.754   1.563  0.00  0.00    +0.000 C 
ENDROOT
BRANCH   1   4
ATOM      2  C   UNK A   0      -2.422   0.029   0.580  0.00  0.00    +0.000 C 
ATOM      3  O   UNK A   0      -2.798   0.077   1.758  0.00  0.00    +0.000 OA
ATOM      4  N   TRP A   1      -1.076  -0.394   0.272  0.00  0.00    +0.000 NA
BRANCH   2   5
ATOM      5  O   UNK A   0      -3.329   0.389  -0.413  0.00  0.00    +0.000 OA
BRANCH   5   7
ATOM      6  C   UNK A   0      -5.299  -0.387   0.606  0.00  0.00    +0.000 C 
ATOM      7  C   UNK A   0      -4.659   0.806  -0.122  0.00  0.00    +0.000 C 
ATOM      8  C   UNK A   0      -4.725   2.065   0.687  0.00  0.00    +0.000 C 
ATOM      9  C   UNK A   0      -5.431   0.929  -1.425  0.00  0.00    +0.000 C 
ENDBRANCH   5   7
ENDBRANCH   2   5
ENDBRANCH   1   4
BRANCH   1  10
ATOM     10  C   TRP A   1       0.807   0.450   1.452  0.00  0.00    +0.000 C 
ATOM     11  O   TRP A   1       0.660   1.204   0.532  0.00  0.00    +0.000 OA
ENDBRANCH   1  10
BRANCH   1  12
ATOM     12  CB  TRP A   1       0.666  -1.901   0.799  0.00  0.00    +0.000 C 
BRANCH  12  13
ATOM     13  CG  TRP A   1       1.410  -1.294  -0.286  0.00  0.00    +0.000 A 
ATOM     14  CD1 TRP A   1       1.178  -1.174  -1.627  0.00  0.00    +0.000 A 
ATOM     15  NE1 TRP A   1       2.184  -0.485  -2.193  0.00  0.00    +0.000 NA
ATOM     16  CE2 TRP A   1       3.096  -0.133  -1.276  0.00  0.00    +0.000 A 
ATOM     17  CZ2 TRP A   1       4.283   0.557  -1.363  0.00  0.00    +0.000 A 
ATOM     18  CH2 TRP A   1       5.031   0.760  -0.228  0.00  0.00    +0.000 A 
ATOM     19  CZ3 TRP A   1       4.608   0.283   0.990  0.00  0.00    +0.000 A 
ATOM     20  CE3 TRP A   1       3.425  -0.394   1.028  0.00  0.00    +0.000 A 
ATOM     21  CD2 TRP A   1       2.625  -0.634  -0.068  0.00  0.00    +0.000 A 
ENDBRANCH  12  13
ENDBRANCH   1  12
TORSDOF 6
