REMARK  Name = 
REMARK  4 active torsions:
REMARK  status: ('A' for Active; 'I' for Inactive)
REMARK    1  A    between atoms: C_2  and  C_18
REMARK    2  A    between atoms: N_3  and  C_4
REMARK    3  A    between atoms: C_4  and  N_6
REMARK    4  A    between atoms: N_6  and  C_7
REMARK                            x       y       z     vdW  Elec       q    Type
REMARK                         _______ _______ _______ _____ _____    ______ ____
ROOT
ATOM      1  C   UNL     1       0.818  -0.294  -0.215  0.00  0.00    +0.000 A 
ATOM      2  C   UNL     1       1.033  -1.656  -0.222  0.00  0.00    +0.000 A 
ATOM      3  C   UNL     1       2.318  -2.195  -0.288  0.00  0.00    +0.000 A 
ATOM      4  C   UNL     1       3.380  -1.321  -0.347  0.00  0.00    +0.000 A 
ATOM      5  C   UNL     1       3.184   0.063  -0.341  0.00  0.00    +0.000 A 
ATOM      6  C   UNL     1       4.259   0.931  -0.401  0.00  0.00    +0.000 A 
ATOM      7  O   UNL     1       5.552   0.408  -0.467  0.00  0.00    +0.000 OA
ATOM      8  C   UNL     1       4.040   2.296  -0.394  0.00  0.00    +0.000 A 
ATOM      9  C   UNL     1       2.757   2.780  -0.328  0.00  0.00    +0.000 A 
ATOM     10  C   UNL     1       1.688   1.910  -0.269  0.00  0.00    +0.000 A 
ATOM     11  C   UNL     1       1.897   0.560  -0.275  0.00  0.00    +0.000 A 
ENDROOT
BRANCH   1  12
ATOM     12  N   UNL     1      -0.486   0.251  -0.148  0.00  0.00    +0.000 NA
BRANCH  12  13
ATOM     13  C   UNL     1      -1.598  -0.610  -0.087  0.00  0.00    +0.000 C 
ATOM     14  S   UNL     1      -1.372  -2.217  -0.093  0.00  0.00    +0.000 S 
BRANCH  13  17
ATOM     15  O   UNL     1      -4.019  -2.062   0.046  0.00  0.00    +0.000 OA
ATOM     16  C   UNL     1      -4.083  -0.818   0.045  0.00  0.00    +0.000 C 
ATOM     17  N   UNL     1      -2.892  -0.079  -0.021  0.00  0.00    +0.000 NA
BRANCH  16  18
ATOM     18  C   UNL     1      -5.405  -0.135   0.112  0.00  0.00    +0.000 C 
ATOM     19  C   UNL     1      -5.740   0.795  -1.100  0.00  0.00    +0.000 C 
ATOM     20  C   UNL     1      -5.332   1.394   0.268  0.00  0.00    +0.000 C 
ENDBRANCH  16  18
ENDBRANCH  13  17
ENDBRANCH  12  13
ENDBRANCH   1  12
TORSDOF 4
