REMARK  Name = 
REMARK  4 active torsions:
REMARK  status: ('A' for Active; 'I' for Inactive)
REMARK    1  A    between atoms: C_2  and  C_4
REMARK    2  A    between atoms: C_8  and  C_9
REMARK    3  A    between atoms: N_11  and  C_12
REMARK    4  A    between atoms: C_12  and  C_13
REMARK                            x       y       z     vdW  Elec       q    Type
REMARK                         _______ _______ _______ _____ _____    ______ ____
ROOT
ATOM      1  C   UNL     1       0.064   1.000  -0.096  0.00  0.00    +0.000 C 
ATOM      2  O   UNL     1       0.514   1.550   0.932  0.00  0.00    +0.000 OA
ATOM      3  N   UNL     1       0.935   0.887  -1.216  0.00  0.00    +0.000 NA
ENDROOT
BRANCH   1   8
ATOM      4  C   UNL     1      -3.440  -0.067   0.390  0.00  0.00    +0.000 A 
ATOM      5  C   UNL     1      -3.174  -0.464  -0.907  0.00  0.00    +0.000 A 
ATOM      6  C   UNL     1      -4.131  -1.159  -1.838  0.00  0.00    +0.000 C 
ATOM      7  N   UNL     1      -1.906  -0.124  -1.204  0.00  0.00    +0.000 NA
ATOM      8  C   UNL     1      -1.319   0.482  -0.160  0.00  0.00    +0.000 A 
ATOM      9  C   UNL     1      -2.261   0.526   0.843  0.00  0.00    +0.000 A 
ATOM     10  C   UNL     1      -2.033   1.118   2.185  0.00  0.00    +0.000 C 
BRANCH   4  12
ATOM     11  C   UNL     1      -5.718   0.842   1.069  0.00  0.00    +0.000 C 
ATOM     12  C   UNL     1      -4.684  -0.228   1.133  0.00  0.00    +0.000 C 
ATOM     13  O   UNL     1      -4.948  -1.234   1.841  0.00  0.00    +0.000 OA
ENDBRANCH   4  12
ENDBRANCH   1   8
BRANCH   3  14
ATOM     14  C   UNL     1       2.278   1.381  -1.177  0.00  0.00    +0.000 C 
BRANCH  14  15
ATOM     15  C   UNL     1       3.168   0.488  -0.400  0.00  0.00    +0.000 A 
ATOM     16  C   UNL     1       3.375   0.638   0.954  0.00  0.00    +0.000 A 
ATOM     17  C   UNL     1       4.235  -0.262   1.585  0.00  0.00    +0.000 A 
ATOM     18  C   UNL     1       4.872  -1.277   0.912  0.00  0.00    +0.000 A 
ATOM     19  F   UNL     1       5.708  -2.152   1.530  0.00  0.00    +0.000 F 
ATOM     20  C   UNL     1       4.655  -1.414  -0.440  0.00  0.00    +0.000 A 
ATOM     21  C   UNL     1       3.810  -0.531  -1.062  0.00  0.00    +0.000 A 
ENDBRANCH  14  15
ENDBRANCH   3  14
TORSDOF 4
