REMARK  Name = 
REMARK  6 active torsions:
REMARK  status: ('A' for Active; 'I' for Inactive)
REMARK    1  A    between atoms: C_2  and  N_3
REMARK    2  A    between atoms: N_3  and  C_4
REMARK    3  A    between atoms: N_3  and  C_6
REMARK    4  A    between atoms: C_6  and  N_8
REMARK    5  A    between atoms: C_9  and  C_11
REMARK    6  A    between atoms: C_14  and  N_15
REMARK                            x       y       z     vdW  Elec       q    Type
REMARK                         _______ _______ _______ _____ _____    ______ ____
ROOT
ATOM      1  N   UNL     1       1.392   0.471  -0.349  0.00  0.00    +0.000 NA
ATOM      2  C   UNL     1       0.214   0.630  -1.090  0.00  0.00    +0.000 C 
ATOM      3  O   UNL     1       0.326   1.232  -2.206  0.00  0.00    +0.000 OA
ENDROOT
BRANCH   2   4
ATOM      4  C   UNL     1      -1.070   0.137  -0.615  0.00  0.00    +0.000 A 
ATOM      5  C   UNL     1      -1.986   0.894   0.084  0.00  0.00    +0.000 A 
ATOM      6  C   UNL     1      -3.203   0.418   0.526  0.00  0.00    +0.000 A 
ATOM      7  C   UNL     1      -3.535  -0.899   0.256  0.00  0.00    +0.000 A 
ATOM      8  C   UNL     1      -2.636  -1.692  -0.445  0.00  0.00    +0.000 A 
ATOM      9  C   UNL     1      -1.418  -1.186  -0.878  0.00  0.00    +0.000 A 
BRANCH   7  10
ATOM     10  N   UNL     1      -4.754  -1.478   0.660  0.00  0.00    +0.000 N 
ATOM     11  O   UNL     1      -5.597  -0.801   1.294  0.00  0.00    +0.000 OA
ATOM     12  O   UNL     1      -5.068  -2.775   0.386  0.00  0.00    +0.000 OA
ENDBRANCH   7  10
ENDBRANCH   2   4
BRANCH   1  13
ATOM     13  C   UNL     1       2.671   0.932  -0.765  0.00  0.00    +0.000 C 
ATOM     14  S   UNL     1       2.834   1.700  -2.186  0.00  0.00    +0.000 S 
BRANCH  13  15
ATOM     15  N   UNL     1       3.763   0.716   0.068  0.00  0.00    +0.000 N 
BRANCH  15  17
ATOM     16  C   UNL     1       4.255  -1.304   1.304  0.00  0.00    +0.000 C 
ATOM     17  C   UNL     1       3.590   0.033   1.331  0.00  0.00    +0.000 C 
ENDBRANCH  15  17
BRANCH  15  18
ATOM     18  C   UNL     1       5.083   1.144  -0.271  0.00  0.00    +0.000 C 
ATOM     19  C   UNL     1       5.137   1.829  -1.589  0.00  0.00    +0.000 C 
ENDBRANCH  15  18
ENDBRANCH  13  15
ENDBRANCH   1  13
TORSDOF 6
