REMARK  Name = 
REMARK  4 active torsions:
REMARK  status: ('A' for Active; 'I' for Inactive)
REMARK    1  A    between atoms: C_2  and  O_3
REMARK    2  A    between atoms: O_3  and  C_4
REMARK    3  A    between atoms: C_7  and  N_8
REMARK    4  A    between atoms: C_16  and  C_17
REMARK                            x       y       z     vdW  Elec       q    Type
REMARK                         _______ _______ _______ _____ _____    ______ ____
ROOT
ATOM      1  N   UNL     1      -0.036  -0.854   0.458  0.00  0.00    +0.000 NA
ATOM      2  C   UNL     1      -1.365  -0.512   0.174  0.00  0.00    +0.000 A 
ATOM      3  N   UNL     1      -1.708   0.575  -0.532  0.00  0.00    +0.000 NA
ATOM      4  C   UNL     1      -2.976   0.918  -0.814  0.00  0.00    +0.000 A 
ATOM      5  C   UNL     1      -3.257   2.165  -1.618  0.00  0.00    +0.000 C 
ATOM      6  C   UNL     1      -4.010   0.134  -0.369  0.00  0.00    +0.000 A 
ATOM      7  C   UNL     1      -3.725  -0.993   0.359  0.00  0.00    +0.000 A 
ATOM      8  C   UNL     1      -4.786  -1.900   0.880  0.00  0.00    +0.000 C 
ATOM      9  C   UNL     1      -2.393  -1.306   0.625  0.00  0.00    +0.000 A 
ENDROOT
BRANCH   1  13
ATOM     10  C   UNL     1       3.339   1.390  -0.793  0.00  0.00    +0.000 A 
ATOM     11  C   UNL     1       2.065   1.799  -1.116  0.00  0.00    +0.000 A 
ATOM     12  C   UNL     1       0.975   1.061  -0.704  0.00  0.00    +0.000 A 
ATOM     13  C   UNL     1       1.090  -0.099   0.036  0.00  0.00    +0.000 A 
ATOM     14  C   UNL     1       2.369  -0.501   0.356  0.00  0.00    +0.000 A 
ATOM     15  C   UNL     1       3.464   0.232  -0.053  0.00  0.00    +0.000 A 
BRANCH  10  16
ATOM     16  O   UNL     1       4.471   2.109  -1.191  0.00  0.00    +0.000 OA
BRANCH  16  18
ATOM     17  C   UNL     1       6.764   2.689  -1.443  0.00  0.00    +0.000 C 
ATOM     18  C   UNL     1       5.774   1.705  -0.869  0.00  0.00    +0.000 C 
ENDBRANCH  16  18
ENDBRANCH  10  16
ENDBRANCH   1  13
BRANCH   9  19
ATOM     19  C   UNL     1      -2.060  -2.483   1.387  0.00  0.00    +0.000 C 
ATOM     20  N   UNL     1      -3.101  -3.318   1.865  0.00  0.00    +0.000 NA
ATOM     21  O   UNL     1      -0.892  -2.809   1.653  0.00  0.00    +0.000 OA
ENDBRANCH   9  19
TORSDOF 4
