REMARK  Name = 
REMARK  4 active torsions:
REMARK  status: ('A' for Active; 'I' for Inactive)
REMARK    1  A    between atoms: C_2  and  N_3
REMARK    2  A    between atoms: N_3  and  C_4
REMARK    3  A    between atoms: N_3  and  C_6
REMARK    4  A    between atoms: C_9  and  C_10
REMARK                            x       y       z     vdW  Elec       q    Type
REMARK                         _______ _______ _______ _____ _____    ______ ____
ROOT
ATOM      1  C   UNL     1      -1.933   0.171   0.335  0.00  0.00    +0.000 A 
ATOM      2  C   UNL     1      -1.424  -1.120   0.171  0.00  0.00    +0.000 A 
ATOM      3  C   UNL     1      -0.058  -1.313   0.092  0.00  0.00    +0.000 A 
ATOM      4  C   UNL     1       0.821  -0.270   0.171  0.00  0.00    +0.000 A 
ATOM      5  C   UNL     1       0.295   0.990   0.333  0.00  0.00    +0.000 A 
ATOM      6  C   UNL     1      -1.053   1.235   0.416  0.00  0.00    +0.000 A 
ENDROOT
BRANCH   4   7
ATOM      7  C   UNL     1       2.300  -0.448   0.088  0.00  0.00    +0.000 A 
ATOM      8  C   UNL     1       2.798  -1.723  -0.072  0.00  0.00    +0.000 A 
ATOM      9  S   UNL     1       4.479  -1.456  -0.118  0.00  0.00    +0.000 S 
ATOM     10  C   UNL     1       4.458   0.239   0.066  0.00  0.00    +0.000 A 
ATOM     11  N   UNL     1       5.572   1.171   0.117  0.00  0.00    +0.000 NA
ATOM     12  N   UNL     1       3.173   0.516   0.153  0.00  0.00    +0.000 NA
ENDBRANCH   4   7
BRANCH   1  13
ATOM     13  N   UNL     1      -3.312   0.434   0.418  0.00  0.00    +0.000 N 
BRANCH  13  15
ATOM     14  C   UNL     1      -3.604  -1.950   0.142  0.00  0.00    +0.000 C 
ATOM     15  C   UNL     1      -4.266  -0.630   0.327  0.00  0.00    +0.000 C 
ENDBRANCH  13  15
BRANCH  13  16
ATOM     16  C   UNL     1      -3.763   1.789   0.598  0.00  0.00    +0.000 C 
ATOM     17  C   UNL     1      -4.484   2.366  -0.569  0.00  0.00    +0.000 C 
ENDBRANCH  13  16
ENDBRANCH   1  13
TORSDOF 4
