REMARK  Name = 
REMARK  3 active torsions:
REMARK  status: ('A' for Active; 'I' for Inactive)
REMARK    1  A    between atoms: C_2  and  C_5
REMARK    2  A    between atoms: C_8  and  C_9
REMARK    3  A    between atoms: N_11  and  C_12
REMARK                            x       y       z     vdW  Elec       q    Type
REMARK                         _______ _______ _______ _____ _____    ______ ____
ROOT
ATOM      1  C   UNL     1       3.660  -0.056   0.359  0.00  0.00    +0.000 A 
ATOM      2  C   UNL     1       2.965  -1.140   0.875  0.00  0.00    +0.000 A 
ATOM      3  C   UNL     1       1.596  -1.243   0.873  0.00  0.00    +0.000 A 
ATOM      4  C   UNL     1       0.822  -0.196   0.325  0.00  0.00    +0.000 A 
ATOM      5  C   UNL     1       1.507   0.861  -0.185  0.00  0.00    +0.000 A 
ATOM      6  C   UNL     1       2.878   0.946  -0.175  0.00  0.00    +0.000 A 
ENDROOT
BRANCH   1   8
ATOM      7  C   UNL     1       5.704  -0.887   1.470  0.00  0.00    +0.000 C 
ATOM      8  C   UNL     1       5.160  -0.001   0.386  0.00  0.00    +0.000 C 
ATOM      9  C   UNL     1       5.725  -0.507  -0.923  0.00  0.00    +0.000 C 
ATOM     10  C   UNL     1       5.609   1.436   0.577  0.00  0.00    +0.000 C 
ENDBRANCH   1   8
BRANCH   4  11
ATOM     11  C   UNL     1      -0.628  -0.286   0.385  0.00  0.00    +0.000 C 
ATOM     12  O   UNL     1      -1.129  -0.949   1.311  0.00  0.00    +0.000 OA
ATOM     13  N   UNL     1      -1.426   0.361  -0.591  0.00  0.00    +0.000 NA
BRANCH  13  14
ATOM     14  C   UNL     1      -2.849   0.329  -0.552  0.00  0.00    +0.000 A 
ATOM     15  C   UNL     1      -3.668   0.840  -1.522  0.00  0.00    +0.000 A 
ATOM     16  C   UNL     1      -5.030   0.782  -1.429  0.00  0.00    +0.000 A 
ATOM     17  C   UNL     1      -5.622   0.195  -0.344  0.00  0.00    +0.000 A 
ATOM     18  O   UNL     1      -7.009   0.111  -0.221  0.00  0.00    +0.000 OA
ATOM     19  C   UNL     1      -4.814  -0.327   0.652  0.00  0.00    +0.000 A 
ATOM     20  C   UNL     1      -3.454  -0.267   0.561  0.00  0.00    +0.000 A 
ENDBRANCH  13  14
ENDBRANCH   4  11
TORSDOF 3
