REMARK  Name = 
REMARK  4 active torsions:
REMARK  status: ('A' for Active; 'I' for Inactive)
REMARK    1  A    between atoms: C_2  and  C_5
REMARK    2  A    between atoms: C_8  and  N_9
REMARK    3  A    between atoms: N_9  and  N_10
REMARK    4  A    between atoms: C_11  and  C_13
REMARK                            x       y       z     vdW  Elec       q    Type
REMARK                         _______ _______ _______ _____ _____    ______ ____
ROOT
ATOM      1  C   UNL     1       3.349   0.182  -0.044  0.00  0.00    +0.000 A 
ATOM      2  C   UNL     1       3.090  -0.304   1.225  0.00  0.00    +0.000 A 
ATOM      3  C   UNL     1       1.849  -0.654   1.666  0.00  0.00    +0.000 A 
ATOM      4  C   UNL     1       0.717  -0.518   0.806  0.00  0.00    +0.000 A 
ATOM      5  C   UNL     1       0.983  -0.034  -0.450  0.00  0.00    +0.000 A 
ATOM      6  C   UNL     1       2.248   0.305  -0.860  0.00  0.00    +0.000 A 
ENDROOT
BRANCH   1   8
ATOM      7  C   UNL     1       5.299  -0.433  -1.448  0.00  0.00    +0.000 C 
ATOM      8  C   UNL     1       4.751   0.549  -0.425  0.00  0.00    +0.000 C 
ATOM      9  C   UNL     1       5.647   0.582   0.792  0.00  0.00    +0.000 C 
ATOM     10  C   UNL     1       4.789   1.900  -1.088  0.00  0.00    +0.000 C 
ENDBRANCH   1   8
BRANCH   4  11
ATOM     11  N   UNL     1      -0.535  -0.880   1.324  0.00  0.00    +0.000 NA
BRANCH  11  12
ATOM     12  N   UNL     1      -1.792  -0.762   0.942  0.00  0.00    +0.000 NA
ATOM     13  C   UNL     1      -2.458   0.116   0.065  0.00  0.00    +0.000 C 
ATOM     14  O   UNL     1      -1.764   0.991  -0.527  0.00  0.00    +0.000 OA
BRANCH  13  15
ATOM     15  C   UNL     1      -3.911  -0.033  -0.094  0.00  0.00    +0.000 A 
ATOM     16  C   UNL     1      -4.713  -0.989   0.461  0.00  0.00    +0.000 A 
ATOM     17  C   UNL     1      -6.022  -0.949   0.203  0.00  0.00    +0.000 A 
ATOM     18  C   UNL     1      -6.490   0.050  -0.609  0.00  0.00    +0.000 A 
ATOM     19  S   UNL     1      -5.037   0.882  -0.955  0.00  0.00    +0.000 S 
ENDBRANCH  13  15
ENDBRANCH  11  12
ENDBRANCH   4  11
TORSDOF 4
