REMARK  Name = 
REMARK  6 active torsions:
REMARK  status: ('A' for Active; 'I' for Inactive)
REMARK    1  A    between atoms: C_2  and  C_3
REMARK    2  A    between atoms: C_2  and  N_7
REMARK    3  A    between atoms: C_3  and  C_4
REMARK    4  A    between atoms: C_4  and  C_5
REMARK    5  A    between atoms: N_7  and  N_8
REMARK    6  A    between atoms: C_9  and  C_11
REMARK                            x       y       z     vdW  Elec       q    Type
REMARK                         _______ _______ _______ _____ _____    ______ ____
ROOT
ATOM      1  N   UNL     1       0.251   0.137  -1.009  0.00  0.00    +0.000 NA
ATOM      2  C   UNL     1      -0.691  -0.908  -0.933  0.00  0.00    +0.000 C 
ATOM      3  O   UNL     1      -0.317  -2.058  -1.298  0.00  0.00    +0.000 OA
ENDROOT
BRANCH   2   4
ATOM      4  C   UNL     1      -2.052  -0.707  -0.456  0.00  0.00    +0.000 A 
ATOM      5  C   UNL     1      -2.935  -1.754  -0.463  0.00  0.00    +0.000 A 
ATOM      6  C   UNL     1      -4.241  -1.621  -0.029  0.00  0.00    +0.000 A 
ATOM      7  C   UNL     1      -4.706  -0.398   0.436  0.00  0.00    +0.000 A 
ATOM      8  C   UNL     1      -3.826   0.660   0.448  0.00  0.00    +0.000 A 
ATOM      9  C   UNL     1      -2.508   0.508   0.005  0.00  0.00    +0.000 A 
ATOM     10 BR   UNL     1      -1.308   1.963   0.026  0.00  0.00    +0.000 Br
ENDBRANCH   2   4
BRANCH   1  11
ATOM     11  N   UNL     1       1.547  -0.105  -1.474  0.00  0.00    +0.000 NA
BRANCH  11  13
ATOM     12  C   UNL     1       2.983   1.460  -0.515  0.00  0.00    +0.000 C 
ATOM     13  C   UNL     1       2.610   0.210  -0.581  0.00  0.00    +0.000 C 
BRANCH  13  14
ATOM     14  C   UNL     1       3.202  -0.849   0.183  0.00  0.00    +0.000 C 
BRANCH  14  15
ATOM     15  C   UNL     1       4.247  -0.641   1.156  0.00  0.00    +0.000 C 
BRANCH  15  16
ATOM     16  C   UNL     1       4.046   0.176   2.355  0.00  0.00    +0.000 C 
ATOM     17  C   UNL     1       3.698   1.598   2.149  0.00  0.00    +0.000 C 
ENDBRANCH  15  16
ENDBRANCH  14  15
ENDBRANCH  13  14
ENDBRANCH  11  13
ENDBRANCH   1  11
TORSDOF 6
