REMARK  Name = 
REMARK  3 active torsions:
REMARK  status: ('A' for Active; 'I' for Inactive)
REMARK    1  A    between atoms: C_6  and  C_7
REMARK    2  A    between atoms: N_9  and  C_10
REMARK    3  A    between atoms: C_10  and  C_11
REMARK                            x       y       z     vdW  Elec       q    Type
REMARK                         _______ _______ _______ _____ _____    ______ ____
ROOT
ATOM      1  N   UNL     1       0.128  -3.659   0.064  0.00  0.00    +0.000 NA
ATOM      2  C   UNL     1      -0.692  -2.528   0.424  0.00  0.00    +0.000 A 
ATOM      3  S   UNL     1      -2.056  -2.513   1.441  0.00  0.00    +0.000 S 
ATOM      4  C   UNL     1      -2.448  -0.860   1.363  0.00  0.00    +0.000 A 
ATOM      5  C   UNL     1      -1.483  -0.354   0.528  0.00  0.00    +0.000 A 
ATOM      6  C   UNL     1      -0.577  -1.213   0.043  0.00  0.00    +0.000 A 
ATOM      7  C   UNL     1      -1.298   1.087   0.066  0.00  0.00    +0.000 C 
ATOM      8  C   UNL     1      -2.576   1.607  -0.545  0.00  0.00    +0.000 C 
ATOM      9  C   UNL     1      -3.609   1.884   0.522  0.00  0.00    +0.000 C 
ATOM     10  C   UNL     1      -2.874   1.998   1.843  0.00  0.00    +0.000 C 
ATOM     11  C   UNL     1      -3.410   0.952   2.768  0.00  0.00    +0.000 C 
ATOM     12  C   UNL     1      -3.626  -0.381   2.137  0.00  0.00    +0.000 C 
ENDROOT
BRANCH   6  13
ATOM     13  C   UNL     1       0.538  -0.834  -0.876  0.00  0.00    +0.000 C 
ATOM     14  O   UNL     1       1.353  -1.662  -1.300  0.00  0.00    +0.000 OA
ATOM     15  N   UNL     1       0.689   0.517  -1.292  0.00  0.00    +0.000 NA
BRANCH  15  16
ATOM     16  C   UNL     1       1.731   0.976  -2.175  0.00  0.00    +0.000 C 
BRANCH  16  17
ATOM     17  C   UNL     1       3.032   0.679  -1.533  0.00  0.00    +0.000 A 
ATOM     18  C   UNL     1       3.819  -0.443  -1.624  0.00  0.00    +0.000 A 
ATOM     19  C   UNL     1       4.923  -0.211  -0.833  0.00  0.00    +0.000 A 
ATOM     20  C   UNL     1       4.779   1.028  -0.290  0.00  0.00    +0.000 A 
ATOM     21  O   UNL     1       3.657   1.504  -0.733  0.00  0.00    +0.000 OA
ENDBRANCH  16  17
ENDBRANCH  15  16
ENDBRANCH   6  13
TORSDOF 3
