REMARK  Name = 
REMARK  2 active torsions:
REMARK  status: ('A' for Active; 'I' for Inactive)
REMARK    1  A    between atoms: C_2  and  C_3
REMARK    2  A    between atoms: N_16  and  C_17
REMARK                            x       y       z     vdW  Elec       q    Type
REMARK                         _______ _______ _______ _____ _____    ______ ____
ROOT
ATOM      1  C   UNL     1       0.779  -1.161  -1.171  0.00  0.00    +0.000 C 
ATOM      2  C   UNL     1       0.482  -0.097  -0.408  0.00  0.00    +0.000 C 
ATOM      3  N   UNL     1       1.398   0.856   0.044  0.00  0.00    +0.000 NA
ATOM      4  N   UNL     1       2.753   0.912  -0.184  0.00  0.00    +0.000 NA
ATOM      5  C   UNL     1       3.359   0.017  -0.895  0.00  0.00    +0.000 C 
ATOM      6  N   UNL     1       4.732   0.140  -1.082  0.00  0.00    +0.000 NA
ATOM      7  S   UNL     1       2.488  -1.355  -1.633  0.00  0.00    +0.000 S 
ENDROOT
BRANCH   2   8
ATOM      8  C   UNL     1      -0.938   0.067  -0.022  0.00  0.00    +0.000 A 
ATOM      9  C   UNL     1      -1.294   1.139   0.758  0.00  0.00    +0.000 A 
ATOM     10  C   UNL     1      -2.604   1.327   1.139  0.00  0.00    +0.000 A 
ATOM     11  C   UNL     1      -3.590   0.442   0.745  0.00  0.00    +0.000 A 
ATOM     12  C   UNL     1      -3.209  -0.632  -0.041  0.00  0.00    +0.000 A 
ATOM     13  C   UNL     1      -1.901  -0.815  -0.417  0.00  0.00    +0.000 A 
ATOM     14  O   UNL     1      -4.222  -1.512  -0.425  0.00  0.00    +0.000 OA
ATOM     15  C   UNL     1      -5.428  -1.629   0.302  0.00  0.00    +0.000 C 
ATOM     16  C   UNL     1      -5.949  -0.285   0.755  0.00  0.00    +0.000 C 
ATOM     17  O   UNL     1      -4.913   0.598   1.108  0.00  0.00    +0.000 OA
ENDBRANCH   2   8
BRANCH   6  18
ATOM     18  C   UNL     1       5.603   0.862  -0.142  0.00  0.00    +0.000 C 
ATOM     19  C   UNL     1       5.650   0.364   1.272  0.00  0.00    +0.000 C 
ATOM     20  C   UNL     1       6.805  -0.020   0.298  0.00  0.00    +0.000 C 
ENDBRANCH   6  18
TORSDOF 2
