REMARK  Name = 
REMARK  2 active torsions:
REMARK  status: ('A' for Active; 'I' for Inactive)
REMARK    1  A    between atoms: N_11  and  C_12
REMARK    2  A    between atoms: C_12  and  C_13
REMARK                            x       y       z     vdW  Elec       q    Type
REMARK                         _______ _______ _______ _____ _____    ______ ____
ROOT
ATOM      1  C   UNL     1      -3.812   0.319   1.262  0.00  0.00    +0.000 C 
ATOM      2  C   UNL     1      -2.799   1.117   0.231  0.00  0.00    +0.000 C 
ATOM      3  C   UNL     1      -3.683   1.015  -1.079  0.00  0.00    +0.000 C 
ATOM      4  C   UNL     1      -4.780   0.082  -1.000  0.00  0.00    +0.000 C 
ATOM      5  C   UNL     1      -4.202  -1.280  -0.678  0.00  0.00    +0.000 C 
ATOM      6  C   UNL     1      -2.760  -1.284  -0.557  0.00  0.00    +0.000 C 
ATOM      7  C   UNL     1      -1.927  -0.250  -0.046  0.00  0.00    +0.000 C 
ATOM      8  N   UNL     1      -1.472  -0.470   1.343  0.00  0.00    +0.000 NA
ATOM      9  C   UNL     1      -0.260   0.253   1.492  0.00  0.00    +0.000 C 
ATOM     10  O   UNL     1       0.240   0.491   2.643  0.00  0.00    +0.000 OA
ATOM     11  N   UNL     1       0.206   0.598   0.259  0.00  0.00    +0.000 N 
ATOM     12  C   UNL     1      -0.722   0.071  -0.757  0.00  0.00    +0.000 C 
ATOM     13  O   UNL     1      -0.470  -0.054  -1.965  0.00  0.00    +0.000 OA
ENDROOT
BRANCH  11  14
ATOM     14  C   UNL     1       1.302   1.458  -0.244  0.00  0.00    +0.000 C 
BRANCH  14  15
ATOM     15  C   UNL     1       2.513   0.567  -0.097  0.00  0.00    +0.000 A 
ATOM     16  C   UNL     1       3.090   0.813   1.207  0.00  0.00    +0.000 A 
ATOM     17  C   UNL     1       4.339   0.272   1.386  0.00  0.00    +0.000 A 
ATOM     18  C   UNL     1       5.033  -0.446   0.521  0.00  0.00    +0.000 A 
ATOM     19  C   UNL     1       4.447  -0.664  -0.718  0.00  0.00    +0.000 A 
ATOM     20  C   UNL     1       3.191  -0.153  -1.010  0.00  0.00    +0.000 A 
ATOM     21  F   UNL     1       2.526  -0.442  -2.195  0.00  0.00    +0.000 F 
ENDBRANCH  14  15
ENDBRANCH  11  14
TORSDOF 2
