REMARK  Name = 
REMARK  3 active torsions:
REMARK  status: ('A' for Active; 'I' for Inactive)
REMARK    1  A    between atoms: O_2  and  C_3
REMARK    2  A    between atoms: C_6  and  N_7
REMARK    3  A    between atoms: C_15  and  C_16
REMARK                            x       y       z     vdW  Elec       q    Type
REMARK                         _______ _______ _______ _____ _____    ______ ____
ROOT
ATOM      1  N   UNL     1      -0.093  -0.324  -1.113  0.00  0.00    +0.000 NA
ATOM      2  C   UNL     1      -1.082   0.069  -0.178  0.00  0.00    +0.000 A 
ATOM      3  N   UNL     1      -0.754   0.457   1.061  0.00  0.00    +0.000 NA
ATOM      4  C   UNL     1      -1.706   0.828   1.939  0.00  0.00    +0.000 A 
ATOM      5  C   UNL     1      -1.284   1.250   3.301  0.00  0.00    +0.000 C 
ATOM      6  C   UNL     1      -3.022   0.805   1.555  0.00  0.00    +0.000 A 
ATOM      7  C   UNL     1      -3.386   0.409   0.285  0.00  0.00    +0.000 A 
ATOM      8  C   UNL     1      -4.812   0.376  -0.155  0.00  0.00    +0.000 C 
ATOM      9  C   UNL     1      -2.390   0.039  -0.580  0.00  0.00    +0.000 A 
ENDROOT
BRANCH   1  13
ATOM     10  C   UNL     1       3.930  -0.239   0.108  0.00  0.00    +0.000 A 
ATOM     11  C   UNL     1       2.915   0.127   0.958  0.00  0.00    +0.000 A 
ATOM     12  C   UNL     1       1.615   0.084   0.515  0.00  0.00    +0.000 A 
ATOM     13  C   UNL     1       1.265  -0.308  -0.738  0.00  0.00    +0.000 A 
ATOM     14  C   UNL     1       2.292  -0.676  -1.590  0.00  0.00    +0.000 A 
ATOM     15  C   UNL     1       3.601  -0.636  -1.157  0.00  0.00    +0.000 A 
BRANCH  10  17
ATOM     16  C   UNL     1       6.355  -0.537  -0.199  0.00  0.00    +0.000 C 
ATOM     17  O   UNL     1       5.223  -0.179   0.596  0.00  0.00    +0.000 OA
ENDBRANCH  10  17
ENDBRANCH   1  13
BRANCH   9  18
ATOM     18  C   UNL     1      -2.731  -0.386  -1.931  0.00  0.00    +0.000 C 
ATOM     19  N   UNL     1      -4.084  -0.424  -2.369  0.00  0.00    +0.000 NA
ATOM     20  O   UNL     1      -1.854  -0.735  -2.762  0.00  0.00    +0.000 OA
ENDBRANCH   9  18
TORSDOF 3
