REMARK  Name = 
REMARK  2 active torsions:
REMARK  status: ('A' for Active; 'I' for Inactive)
REMARK    1  A    between atoms: O_2  and  C_3
REMARK    2  A    between atoms: C_6  and  C_7
REMARK                            x       y       z     vdW  Elec       q    Type
REMARK                         _______ _______ _______ _____ _____    ______ ____
ROOT
ATOM      1  C   UNL     1       0.120  -0.389  -0.294  0.00  0.00    +0.000 A 
ATOM      2  C   UNL     1       0.615  -1.289  -1.202  0.00  0.00    +0.000 A 
ATOM      3  C   UNL     1      -0.285  -2.170  -2.019  0.00  0.00    +0.000 C 
ATOM      4  N   UNL     1       1.963  -1.417  -1.398  0.00  0.00    +0.000 NA
ATOM      5  C   UNL     1       2.852  -0.676  -0.716  0.00  0.00    +0.000 A 
ATOM      6  C   UNL     1       4.240  -0.572  -0.696  0.00  0.00    +0.000 A 
ATOM      7  C   UNL     1       4.566   0.384   0.225  0.00  0.00    +0.000 A 
ATOM      8  C   UNL     1       5.937   0.869   0.621  0.00  0.00    +0.000 C 
ATOM      9  N   UNL     1       3.424   0.856   0.756  0.00  0.00    +0.000 NA
ATOM     10  N   UNL     1       2.388   0.207   0.177  0.00  0.00    +0.000 N 
ATOM     11  C   UNL     1       1.069   0.365   0.401  0.00  0.00    +0.000 A 
ATOM     12  N   UNL     1       0.561   1.293   1.347  0.00  0.00    +0.000 NA
ENDROOT
BRANCH   1  16
ATOM     13  C   UNL     1      -4.041   0.294   0.204  0.00  0.00    +0.000 A 
ATOM     14  C   UNL     1      -3.238   1.212  -0.410  0.00  0.00    +0.000 A 
ATOM     15  C   UNL     1      -1.891   0.977  -0.561  0.00  0.00    +0.000 A 
ATOM     16  C   UNL     1      -1.304  -0.214  -0.091  0.00  0.00    +0.000 A 
ATOM     17  C   UNL     1      -2.139  -1.120   0.522  0.00  0.00    +0.000 A 
ATOM     18  C   UNL     1      -3.510  -0.881   0.678  0.00  0.00    +0.000 A 
BRANCH  13  20
ATOM     19  C   UNL     1      -5.931   1.753  -0.126  0.00  0.00    +0.000 C 
ATOM     20  O   UNL     1      -5.397   0.521   0.369  0.00  0.00    +0.000 OA
ENDBRANCH  13  20
ENDBRANCH   1  16
TORSDOF 2
