REMARK  Name = 
REMARK  5 active torsions:
REMARK  status: ('A' for Active; 'I' for Inactive)
REMARK    1  A    between atoms: C_2  and  O_3
REMARK    2  A    between atoms: O_3  and  C_4
REMARK    3  A    between atoms: C_4  and  C_6
REMARK    4  A    between atoms: C_6  and  C_7
REMARK    5  A    between atoms: C_10  and  C_11
REMARK                            x       y       z     vdW  Elec       q    Type
REMARK                         _______ _______ _______ _____ _____    ______ ____
ROOT
ATOM      1  C   UNL     1       1.565  -0.312   1.418  0.00  0.00    +0.000 A 
ATOM      2  C   UNL     1       1.167   0.768   2.154  0.00  0.00    +0.000 A 
ATOM      3  S   UNL     1      -0.409   1.041   1.557  0.00  0.00    +0.000 S 
ATOM      4  C   UNL     1      -0.467  -0.225   0.417  0.00  0.00    +0.000 A 
ATOM      5  N   UNL     1       0.713  -0.788   0.549  0.00  0.00    +0.000 NA
ENDROOT
BRANCH   4   6
ATOM      6  C   UNL     1      -1.567  -0.608  -0.502  0.00  0.00    +0.000 A 
ATOM      7  C   UNL     1      -1.630  -1.608  -1.411  0.00  0.00    +0.000 A 
ATOM      8  N   UNL     1      -2.852  -1.550  -2.010  0.00  0.00    +0.000 NA
ATOM      9  C   UNL     1      -3.560  -0.526  -1.488  0.00  0.00    +0.000 A 
ATOM     10  C   UNL     1      -4.827  -0.047  -1.741  0.00  0.00    +0.000 A 
ATOM     11  C   UNL     1      -5.269   1.038  -1.026  0.00  0.00    +0.000 A 
ATOM     12  C   UNL     1      -4.481   1.647  -0.073  0.00  0.00    +0.000 A 
ATOM     13  C   UNL     1      -3.232   1.165   0.167  0.00  0.00    +0.000 A 
ATOM     14  C   UNL     1      -2.756   0.070  -0.540  0.00  0.00    +0.000 A 
ENDBRANCH   4   6
BRANCH   1  15
ATOM     15  C   UNL     1       2.936  -0.921   1.612  0.00  0.00    +0.000 C 
BRANCH  15  16
ATOM     16  C   UNL     1       3.854  -0.223   0.673  0.00  0.00    +0.000 C 
ATOM     17  O   UNL     1       3.444   0.692  -0.094  0.00  0.00    +0.000 OA
BRANCH  16  18
ATOM     18  O   UNL     1       5.213  -0.560   0.607  0.00  0.00    +0.000 OA
BRANCH  18  20
ATOM     19  C   UNL     1       6.090   1.592   0.020  0.00  0.00    +0.000 C 
ATOM     20  C   UNL     1       6.069   0.111  -0.288  0.00  0.00    +0.000 C 
ENDBRANCH  18  20
ENDBRANCH  16  18
ENDBRANCH  15  16
ENDBRANCH   1  15
TORSDOF 5
