REMARK  Name = 
REMARK  4 active torsions:
REMARK  status: ('A' for Active; 'I' for Inactive)
REMARK    1  A    between atoms: C_4  and  O_5
REMARK    2  A    between atoms: O_5  and  C_6
REMARK    3  A    between atoms: C_6  and  N_7
REMARK    4  A    between atoms: C_15  and  C_16
REMARK                            x       y       z     vdW  Elec       q    Type
REMARK                         _______ _______ _______ _____ _____    ______ ____
ROOT
ATOM      1  C   UNL     1       1.723   2.227  -0.034  0.00  0.00    +0.000 C 
ATOM      2  C   UNL     1       1.565   0.744   0.106  0.00  0.00    +0.000 A 
ATOM      3  C   UNL     1       0.463   0.191   0.733  0.00  0.00    +0.000 A 
ATOM      4  C   UNL     1       0.324  -1.175   0.858  0.00  0.00    +0.000 A 
ATOM      5  C   UNL     1       1.336  -1.951   0.327  0.00  0.00    +0.000 A 
ATOM      6  C   UNL     1       2.434  -1.397  -0.298  0.00  0.00    +0.000 A 
ATOM      7  C   UNL     1       2.576  -0.030  -0.424  0.00  0.00    +0.000 A 
ENDROOT
BRANCH   7   8
ATOM      8  C   UNL     1       3.746   0.596  -1.091  0.00  0.00    +0.000 C 
ATOM      9  C   UNL     1       4.708  -0.442  -1.584  0.00  0.00    +0.000 C 
ATOM     10  C   UNL     1       4.410   1.639  -0.228  0.00  0.00    +0.000 C 
ENDBRANCH   7   8
BRANCH   4  11
ATOM     11  O   UNL     1      -0.776  -1.751   1.484  0.00  0.00    +0.000 OA
BRANCH  11  12
ATOM     12  C   UNL     1      -1.848  -1.073   2.050  0.00  0.00    +0.000 C 
BRANCH  12  13
ATOM     13  N   UNL     1      -2.561  -0.261   1.096  0.00  0.00    +0.000 N 
ATOM     14  C   UNL     1      -2.292   1.022   0.814  0.00  0.00    +0.000 A 
ATOM     15  C   UNL     1      -3.165   1.472  -0.134  0.00  0.00    +0.000 A 
ATOM     16  C   UNL     1      -3.986   0.420  -0.430  0.00  0.00    +0.000 A 
ATOM     17  N   UNL     1      -5.067   0.375  -1.360  0.00  0.00    +0.000 NA
ATOM     18  N   UNL     1      -3.587  -0.607   0.335  0.00  0.00    +0.000 NA
ENDBRANCH  12  13
ENDBRANCH  11  12
ENDBRANCH   4  11
TORSDOF 4
