REMARK  Name = 
REMARK  3 active torsions:
REMARK  status: ('A' for Active; 'I' for Inactive)
REMARK    1  A    between atoms: O_2  and  C_3
REMARK    2  A    between atoms: C_6  and  C_7
REMARK    3  A    between atoms: C_19  and  O_20
REMARK                            x       y       z     vdW  Elec       q    Type
REMARK                         _______ _______ _______ _____ _____    ______ ____
ROOT
ATOM      1  C   UNL     1       1.006  -0.920  -0.111  0.00  0.00    +0.000 A 
ATOM      2  C   UNL     1       1.397  -2.115  -0.661  0.00  0.00    +0.000 A 
ATOM      3  C   UNL     1       0.522  -3.259  -1.127  0.00  0.00    +0.000 C 
ATOM      4  S   UNL     1       3.097  -1.990  -0.697  0.00  0.00    +0.000 S 
ATOM      5  C   UNL     1       3.269  -0.439  -0.019  0.00  0.00    +0.000 A 
ATOM      6  N   UNL     1       4.358   0.337   0.261  0.00  0.00    +0.000 NA
ATOM      7  C   UNL     1       4.189   1.566   0.808  0.00  0.00    +0.000 A 
ATOM      8  N   UNL     1       2.945   1.962   1.049  0.00  0.00    +0.000 NA
ATOM      9  C   UNL     1       1.861   1.228   0.788  0.00  0.00    +0.000 A 
ATOM     10  N   UNL     1       0.563   1.794   1.093  0.00  0.00    +0.000 NA
ATOM     11  C   UNL     1       1.984  -0.050   0.222  0.00  0.00    +0.000 A 
ENDROOT
BRANCH   1  15
ATOM     12  C   UNL     1      -3.098  -0.012   0.295  0.00  0.00    +0.000 A 
ATOM     13  C   UNL     1      -2.555  -1.009   1.062  0.00  0.00    +0.000 A 
ATOM     14  C   UNL     1      -1.222  -1.345   0.956  0.00  0.00    +0.000 A 
ATOM     15  C   UNL     1      -0.441  -0.664   0.066  0.00  0.00    +0.000 A 
ATOM     16  C   UNL     1      -0.982   0.329  -0.698  0.00  0.00    +0.000 A 
ATOM     17  C   UNL     1      -2.302   0.661  -0.591  0.00  0.00    +0.000 A 
BRANCH  12  19
ATOM     18  C   UNL     1      -5.246  -0.420   1.371  0.00  0.00    +0.000 C 
ATOM     19  O   UNL     1      -4.444   0.292   0.437  0.00  0.00    +0.000 OA
ENDBRANCH  12  19
BRANCH  17  20
ATOM     20  O   UNL     1      -2.871   1.687  -1.374  0.00  0.00    +0.000 OA
ATOM     21  C   UNL     1      -2.030   2.367  -2.277  0.00  0.00    +0.000 C 
ENDBRANCH  17  20
ENDBRANCH   1  15
TORSDOF 3
