REMARK  Name = 
REMARK  2 active torsions:
REMARK  status: ('A' for Active; 'I' for Inactive)
REMARK    1  A    between atoms: O_2  and  C_3
REMARK    2  A    between atoms: C_8  and  C_9
REMARK                            x       y       z     vdW  Elec       q    Type
REMARK                         _______ _______ _______ _____ _____    ______ ____
ROOT
ATOM      1  C   UNL     1       1.520   1.482   0.694  0.00  0.00    +0.000 A 
ATOM      2  C   UNL     1       2.708   0.833   0.924  0.00  0.00    +0.000 A 
ATOM      3  C   UNL     1       2.995  -0.383   0.331  0.00  0.00    +0.000 A 
ATOM      4  C   UNL     1       2.079  -0.994  -0.529  0.00  0.00    +0.000 A 
ATOM      5  C   UNL     1       0.905  -0.348  -0.754  0.00  0.00    +0.000 A 
ATOM      6  C   UNL     1       0.604   0.861  -0.172  0.00  0.00    +0.000 A 
ATOM      7  C   UNL     1       2.490  -2.294  -1.110  0.00  0.00    +0.000 C 
ATOM      8  C   UNL     1       3.853  -2.088  -1.742  0.00  0.00    +0.000 C 
ATOM      9  C   UNL     1       4.839  -1.458  -0.806  0.00  0.00    +0.000 C 
ATOM     10  C   UNL     1       4.266  -1.121   0.554  0.00  0.00    +0.000 C 
ENDROOT
BRANCH   6  11
ATOM     11  C   UNL     1      -0.612   1.613  -0.396  0.00  0.00    +0.000 C 
ATOM     12  C   UNL     1      -1.817   1.095  -0.378  0.00  0.00    +0.000 C 
ATOM     13  C   UNL     1      -3.073   1.818  -0.604  0.00  0.00    +0.000 C 
ATOM     14  O   UNL     1      -3.165   3.043  -0.861  0.00  0.00    +0.000 OA
ATOM     15  N   UNL     1      -4.130   0.902  -0.482  0.00  0.00    +0.000 NA
ATOM     16  C   UNL     1      -3.561  -0.358  -0.189  0.00  0.00    +0.000 A 
ATOM     17  C   UNL     1      -4.199  -1.581   0.025  0.00  0.00    +0.000 A 
ATOM     18  C   UNL     1      -3.459  -2.692   0.303  0.00  0.00    +0.000 A 
ATOM     19  C   UNL     1      -2.067  -2.609   0.373  0.00  0.00    +0.000 A 
ATOM     20  C   UNL     1      -1.423  -1.413   0.164  0.00  0.00    +0.000 A 
ATOM     21  C   UNL     1      -2.186  -0.297  -0.116  0.00  0.00    +0.000 A 
ENDBRANCH   6  11
BRANCH   1  23
ATOM     22  C   UNL     1       2.189   3.292   2.160  0.00  0.00    +0.000 C 
ATOM     23  O   UNL     1       1.242   2.698   1.293  0.00  0.00    +0.000 OA
ENDBRANCH   1  23
TORSDOF 2
