REMARK  Name = 
REMARK  3 active torsions:
REMARK  status: ('A' for Active; 'I' for Inactive)
REMARK    1  A    between atoms: C_4  and  N_5
REMARK    2  A    between atoms: N_5  and  N_6
REMARK    3  A    between atoms: C_7  and  C_9
REMARK                            x       y       z     vdW  Elec       q    Type
REMARK                         _______ _______ _______ _____ _____    ______ ____
ROOT
ATOM      1  N   UNL     1      -0.596  -1.243   1.300  0.00  0.00    +0.000 NA
ENDROOT
BRANCH   1   5
ATOM      2  C   UNL     1      -2.149   1.116  -0.809  0.00  0.00    +0.000 C 
ATOM      3  C   UNL     1      -3.103  -0.124  -1.318  0.00  0.00    +0.000 C 
ATOM      4  C   UNL     1      -2.366  -1.302  -0.449  0.00  0.00    +0.000 C 
ATOM      5  C   UNL     1      -1.861  -0.791   0.775  0.00  0.00    +0.000 C 
ATOM      6  C   UNL     1      -2.496   0.098   1.485  0.00  0.00    +0.000 C 
ATOM      7  C   UNL     1      -3.786   0.609   1.023  0.00  0.00    +0.000 C 
ATOM      8  C   UNL     1      -4.814   0.209   2.089  0.00  0.00    +0.000 C 
ATOM      9  C   UNL     1      -3.714   2.139   1.090  0.00  0.00    +0.000 C 
ATOM     10  C   UNL     1      -4.303   0.112  -0.236  0.00  0.00    +0.000 C 
ENDBRANCH   1   5
BRANCH   1  11
ATOM     11  N   UNL     1       0.542  -1.001   0.531  0.00  0.00    +0.000 NA
ATOM     12  C   UNL     1       1.625  -0.252   1.067  0.00  0.00    +0.000 C 
ATOM     13  O   UNL     1       1.576   0.208   2.253  0.00  0.00    +0.000 OA
BRANCH  12  14
ATOM     14  C   UNL     1       2.805  -0.007   0.254  0.00  0.00    +0.000 A 
ATOM     15  C   UNL     1       3.869   0.722   0.774  0.00  0.00    +0.000 A 
ATOM     16  C   UNL     1       5.014   0.978   0.028  0.00  0.00    +0.000 A 
ATOM     17  C   UNL     1       5.052   0.477  -1.252  0.00  0.00    +0.000 A 
ATOM     18  C   UNL     1       4.003  -0.247  -1.780  0.00  0.00    +0.000 A 
ATOM     19  C   UNL     1       2.878  -0.492  -1.031  0.00  0.00    +0.000 A 
ATOM     20  F   UNL     1       1.823  -1.207  -1.530  0.00  0.00    +0.000 F 
ENDBRANCH  12  14
ENDBRANCH   1  11
TORSDOF 3
