REMARK  Name = 
REMARK  3 active torsions:
REMARK  status: ('A' for Active; 'I' for Inactive)
REMARK    1  A    between atoms: C_7  and  N_8
REMARK    2  A    between atoms: C_9  and  C_11
REMARK    3  A    between atoms: C_17  and  N_18
REMARK                            x       y       z     vdW  Elec       q    Type
REMARK                         _______ _______ _______ _____ _____    ______ ____
ROOT
ATOM      1  N   UNL     1      -0.737  -0.695   0.062  0.00  0.00    +0.000 NA
ATOM      2  C   UNL     1       0.133   0.185  -0.656  0.00  0.00    +0.000 C 
ATOM      3  O   UNL     1      -0.323   1.120  -1.286  0.00  0.00    +0.000 OA
ENDROOT
BRANCH   1  10
ATOM      4  C   UNL     1      -4.708   1.814  -1.383  0.00  0.00    +0.000 C 
ATOM      5  C   UNL     1      -4.137   0.681  -0.621  0.00  0.00    +0.000 A 
ATOM      6  C   UNL     1      -4.907  -0.215   0.075  0.00  0.00    +0.000 A 
ATOM      7  C   UNL     1      -4.343  -1.267   0.774  0.00  0.00    +0.000 A 
ATOM      8  C   UNL     1      -2.948  -1.397   0.752  0.00  0.00    +0.000 A 
ATOM      9  C   UNL     1      -2.277  -2.503   1.473  0.00  0.00    +0.000 C 
ATOM     10  C   UNL     1      -2.143  -0.508   0.057  0.00  0.00    +0.000 A 
ATOM     11  C   UNL     1      -2.754   0.527  -0.626  0.00  0.00    +0.000 A 
ENDBRANCH   1  10
BRANCH   2  12
ATOM     12  C   UNL     1       1.541  -0.152  -0.564  0.00  0.00    +0.000 A 
ATOM     13  C   UNL     1       1.932  -1.446  -0.994  0.00  0.00    +0.000 A 
ATOM     14  C   UNL     1       3.241  -1.838  -0.910  0.00  0.00    +0.000 A 
ATOM     15  C   UNL     1       4.201  -1.000  -0.413  0.00  0.00    +0.000 A 
ATOM     16  F   UNL     1       5.521  -1.398  -0.331  0.00  0.00    +0.000 F 
ATOM     17  C   UNL     1       3.831   0.259   0.006  0.00  0.00    +0.000 A 
ATOM     18  C   UNL     1       2.501   0.693  -0.065  0.00  0.00    +0.000 A 
BRANCH  18  19
ATOM     19  N   UNL     1       2.169   1.996   0.391  0.00  0.00    +0.000 N 
ATOM     20  O   UNL     1       1.281   2.656  -0.134  0.00  0.00    +0.000 OA
ATOM     21  O   UNL     1       2.926   2.487   1.456  0.00  0.00    +0.000 OA
ENDBRANCH  18  19
ENDBRANCH   2  12
TORSDOF 3
