REMARK  Name = 
REMARK  3 active torsions:
REMARK  status: ('A' for Active; 'I' for Inactive)
REMARK    1  A    between atoms: C_6  and  C_7
REMARK    2  A    between atoms: C_11  and  N_12
REMARK    3  A    between atoms: C_13  and  C_15
REMARK                            x       y       z     vdW  Elec       q    Type
REMARK                         _______ _______ _______ _____ _____    ______ ____
ROOT
ATOM      1  C   UNL     1       0.556  -3.365  -0.140  0.00  0.00    +0.000 C 
ATOM      2  C   UNL     1       1.320  -2.075   0.012  0.00  0.00    +0.000 A 
ATOM      3  C   UNL     1       2.696  -2.104   0.016  0.00  0.00    +0.000 A 
ATOM      4  C   UNL     1       3.425  -0.930   0.156  0.00  0.00    +0.000 A 
ATOM      5  O   UNL     1       4.812  -1.029   0.152  0.00  0.00    +0.000 OA
ATOM      6  C   UNL     1       2.798   0.294   0.296  0.00  0.00    +0.000 A 
ATOM      7  C   UNL     1       1.427   0.304   0.290  0.00  0.00    +0.000 A 
ATOM      8  C   UNL     1       0.692  -0.858   0.151  0.00  0.00    +0.000 A 
ENDROOT
BRANCH   6   9
ATOM      9  C   UNL     1       3.655   1.502   0.437  0.00  0.00    +0.000 C 
ATOM     10  C   UNL     1       2.814   2.733   0.718  0.00  0.00    +0.000 C 
ATOM     11  C   UNL     1       4.528   1.701  -0.789  0.00  0.00    +0.000 C 
ENDBRANCH   6   9
BRANCH   8  12
ATOM     12  N   UNL     1      -0.751  -0.827   0.141  0.00  0.00    +0.000 NA
ATOM     13  C   UNL     1      -1.445   0.397   0.298  0.00  0.00    +0.000 C 
ATOM     14  O   UNL     1      -0.827   1.472   0.450  0.00  0.00    +0.000 OA
BRANCH  13  15
ATOM     15  C   UNL     1      -2.889   0.402   0.283  0.00  0.00    +0.000 A 
ATOM     16  C   UNL     1      -3.544   1.616   0.433  0.00  0.00    +0.000 A 
ATOM     17  C   UNL     1      -4.920   1.658   0.419  0.00  0.00    +0.000 A 
ATOM     18  C   UNL     1      -5.675   0.511   0.258  0.00  0.00    +0.000 A 
ATOM     19  C   UNL     1      -5.022  -0.672   0.112  0.00  0.00    +0.000 A 
ATOM     20  C   UNL     1      -3.652  -0.730   0.123  0.00  0.00    +0.000 A 
ENDBRANCH  13  15
ENDBRANCH   8  12
TORSDOF 3
