REMARK  Name = 
REMARK  4 active torsions:
REMARK  status: ('A' for Active; 'I' for Inactive)
REMARK    1  A    between atoms: C_2  and  C_3
REMARK    2  A    between atoms: C_3  and  N_4
REMARK    3  A    between atoms: C_5  and  C_7
REMARK    4  A    between atoms: C_9  and  C_10
REMARK                            x       y       z     vdW  Elec       q    Type
REMARK                         _______ _______ _______ _____ _____    ______ ____
ROOT
ATOM      1  C   UNL     1       0.955  -0.820   0.126  0.00  0.00    +0.000 A 
ATOM      2  C   UNL     1      -0.019   0.128  -0.032  0.00  0.00    +0.000 A 
ATOM      3  C   UNL     1      -1.347  -0.221   0.067  0.00  0.00    +0.000 A 
ATOM      4  C   UNL     1      -1.618  -1.539   0.326  0.00  0.00    +0.000 A 
ATOM      5  N   UNL     1      -0.669  -2.470   0.481  0.00  0.00    +0.000 N 
ATOM      6  O   UNL     1      -1.018  -3.796   0.742  0.00  0.00    +0.000 OA
ATOM      7  C   UNL     1       0.615  -2.118   0.383  0.00  0.00    +0.000 A 
ATOM      8  N   UNL     1       1.644  -3.120   0.549  0.00  0.00    +0.000 NA
ENDROOT
BRANCH   3   9
ATOM      9  C   UNL     1      -2.394   0.795  -0.102  0.00  0.00    +0.000 A 
ATOM     10  C   UNL     1      -2.126   2.084   0.295  0.00  0.00    +0.000 A 
ATOM     11  C   UNL     1      -3.084   3.061   0.150  0.00  0.00    +0.000 A 
ATOM     12  C   UNL     1      -4.329   2.810  -0.386  0.00  0.00    +0.000 A 
ATOM     13  C   UNL     1      -4.553   1.501  -0.772  0.00  0.00    +0.000 A 
ATOM     14  C   UNL     1      -3.620   0.502  -0.641  0.00  0.00    +0.000 A 
ENDBRANCH   3   9
BRANCH   1  16
ATOM     15  N   UNL     1       2.768   0.898  -0.247  0.00  0.00    +0.000 NA
ATOM     16  C   UNL     1       2.383  -0.443   0.019  0.00  0.00    +0.000 C 
ATOM     17  O   UNL     1       3.258  -1.304   0.163  0.00  0.00    +0.000 OA
BRANCH  15  18
ATOM     18  C   UNL     1       4.162   1.289  -0.357  0.00  0.00    +0.000 C 
BRANCH  18  20
ATOM     19  C   UNL     1       4.128   1.789   2.018  0.00  0.00    +0.000 C 
ATOM     20  C   UNL     1       4.863   0.973   0.963  0.00  0.00    +0.000 C 
ENDBRANCH  18  20
ENDBRANCH  15  18
ENDBRANCH   1  16
TORSDOF 4
