REMARK  Name = 
REMARK  3 active torsions:
REMARK  status: ('A' for Active; 'I' for Inactive)
REMARK    1  A    between atoms: C_2  and  C_12
REMARK    2  A    between atoms: N_3  and  C_4
REMARK    3  A    between atoms: C_16  and  N_17
REMARK                            x       y       z     vdW  Elec       q    Type
REMARK                         _______ _______ _______ _____ _____    ______ ____
ROOT
ATOM      1  O   UNL     1      -0.159  -1.732   0.267  0.00  0.00    +0.000 OA
ATOM      2  C   UNL     1      -0.156  -0.506   0.040  0.00  0.00    +0.000 C 
ATOM      3  N   UNL     1       1.052   0.194   0.047  0.00  0.00    +0.000 NA
ENDROOT
BRANCH   3   4
ATOM      4  C   UNL     1       2.363  -0.258   0.276  0.00  0.00    +0.000 C 
ATOM      5  C   UNL     1       2.633  -1.710   0.339  0.00  0.00    +0.000 C 
ATOM      6  C   UNL     1       4.044  -1.899   0.920  0.00  0.00    +0.000 C 
ATOM      7  C   UNL     1       5.061  -1.023   0.197  0.00  0.00    +0.000 C 
ATOM      8  C   UNL     1       5.590   0.079   1.109  0.00  0.00    +0.000 C 
ATOM      9  C   UNL     1       4.538   1.153   1.335  0.00  0.00    +0.000 C 
ATOM     10  C   UNL     1       3.942   1.599   0.002  0.00  0.00    +0.000 C 
ATOM     11  C   UNL     1       3.377   0.390  -0.672  0.00  0.00    +0.000 C 
ENDBRANCH   3   4
BRANCH   2  12
ATOM     12  C   UNL     1      -1.460   0.147  -0.223  0.00  0.00    +0.000 A 
ATOM     13  C   UNL     1      -1.438   1.339  -0.913  0.00  0.00    +0.000 A 
ATOM     14  C   UNL     1      -2.601   2.006  -1.158  0.00  0.00    +0.000 A 
ATOM     15  C   UNL     1      -3.789   1.487  -0.715  0.00  0.00    +0.000 A 
ATOM     16  C   UNL     1      -3.857   0.273  -0.007  0.00  0.00    +0.000 A 
ATOM     17  C   UNL     1      -2.658  -0.351   0.208  0.00  0.00    +0.000 A 
BRANCH  16  18
ATOM     18  N   UNL     1      -5.120  -0.223   0.442  0.00  0.00    +0.000 N 
ATOM     19  O   UNL     1      -6.136   0.424   0.207  0.00  0.00    +0.000 OA
ATOM     20  O   UNL     1      -5.227  -1.389   1.128  0.00  0.00    +0.000 OA
ENDBRANCH  16  18
ENDBRANCH   2  12
TORSDOF 3
