REMARK  Name = 
REMARK  1 active torsions:
REMARK  status: ('A' for Active; 'I' for Inactive)
REMARK    1  A    between atoms: C_8  and  N_9
REMARK                            x       y       z     vdW  Elec       q    Type
REMARK                         _______ _______ _______ _____ _____    ______ ____
ROOT
ATOM      1  N   UNL     1       0.357   0.803  -1.040  0.00  0.00    +0.000 N 
ATOM      2  C   UNL     1       0.347   1.869  -2.053  0.00  0.00    +0.000 C 
ATOM      3  C   UNL     1      -0.954   1.687  -2.795  0.00  0.00    +0.000 C 
ATOM      4  C   UNL     1      -1.812   0.972  -1.815  0.00  0.00    +0.000 A 
ATOM      5  N   UNL     1      -3.142   0.746  -1.746  0.00  0.00    +0.000 NA
ATOM      6  N   UNL     1      -3.675   0.066  -0.748  0.00  0.00    +0.000 NA
ATOM      7  C   UNL     1      -2.921  -0.445   0.267  0.00  0.00    +0.000 A 
ATOM      8  C   UNL     1      -3.504  -1.150   1.297  0.00  0.00    +0.000 A 
ATOM      9  C   UNL     1      -2.706  -1.649   2.302  0.00  0.00    +0.000 A 
ATOM     10  C   UNL     1      -1.346  -1.431   2.253  0.00  0.00    +0.000 A 
ATOM     11  C   UNL     1      -0.726  -0.730   1.240  0.00  0.00    +0.000 A 
ATOM     12  C   UNL     1      -1.558  -0.236   0.235  0.00  0.00    +0.000 A 
ATOM     13  C   UNL     1      -1.004   0.478  -0.816  0.00  0.00    +0.000 A 
ENDROOT
BRANCH   1  21
ATOM     14  C   UNL     1       2.061   2.461   0.449  0.00  0.00    +0.000 C 
ATOM     15  C   UNL     1       2.336   1.004   0.330  0.00  0.00    +0.000 A 
ATOM     16  C   UNL     1       3.457   0.457   0.968  0.00  0.00    +0.000 A 
ATOM     17  C   UNL     1       3.743  -0.886   0.880  0.00  0.00    +0.000 A 
ATOM     18  O   UNL     1       4.873  -1.432   1.525  0.00  0.00    +0.000 OA
ATOM     19  C   UNL     1       2.891  -1.672   0.145  0.00  0.00    +0.000 A 
ATOM     20  C   UNL     1       1.801  -1.123  -0.472  0.00  0.00    +0.000 A 
ATOM     21  C   UNL     1       1.482   0.210  -0.408  0.00  0.00    +0.000 A 
ENDBRANCH   1  21
TORSDOF 1
