REMARK  Name = 
REMARK  2 active torsions:
REMARK  status: ('A' for Active; 'I' for Inactive)
REMARK    1  A    between atoms: C_6  and  C_7
REMARK    2  A    between atoms: N_11  and  C_12
REMARK                            x       y       z     vdW  Elec       q    Type
REMARK                         _______ _______ _______ _____ _____    ______ ____
ROOT
ATOM      1  C   UNL     1       1.990  -4.016   0.196  0.00  0.00    +0.000 C 
ATOM      2  C   UNL     1       2.229  -2.560   0.175  0.00  0.00    +0.000 A 
ATOM      3  C   UNL     1       3.485  -1.985   0.229  0.00  0.00    +0.000 A 
ATOM      4  C   UNL     1       3.625  -0.612   0.205  0.00  0.00    +0.000 A 
ATOM      5  C   UNL     1       4.957   0.043   0.261  0.00  0.00    +0.000 C 
ATOM      6  C   UNL     1       2.507   0.191   0.128  0.00  0.00    +0.000 A 
ATOM      7  C   UNL     1       1.279  -0.412   0.077  0.00  0.00    +0.000 A 
ATOM      8  N   UNL     1       0.132   0.377  -0.002  0.00  0.00    +0.000 NA
ATOM      9  N   UNL     1       1.150  -1.746   0.100  0.00  0.00    +0.000 NA
ENDROOT
BRANCH   8  10
ATOM     10  C   UNL     1      -1.195  -0.117  -0.060  0.00  0.00    +0.000 A 
ATOM     11  C   UNL     1      -1.378  -1.481  -0.039  0.00  0.00    +0.000 A 
ATOM     12  C   UNL     1      -2.645  -2.029  -0.094  0.00  0.00    +0.000 A 
ATOM     13  C   UNL     1      -3.734  -1.199  -0.170  0.00  0.00    +0.000 A 
ATOM     14  C   UNL     1      -3.602   0.189  -0.194  0.00  0.00    +0.000 A 
ATOM     15  C   UNL     1      -4.702   1.016  -0.271  0.00  0.00    +0.000 A 
ATOM     16  C   UNL     1      -4.522   2.375  -0.292  0.00  0.00    +0.000 A 
ATOM     17  C   UNL     1      -3.251   2.889  -0.237  0.00  0.00    +0.000 A 
ATOM     18  C   UNL     1      -2.169   2.042  -0.161  0.00  0.00    +0.000 A 
ATOM     19  C   UNL     1      -2.310   0.680  -0.137  0.00  0.00    +0.000 A 
ENDBRANCH   8  10
BRANCH   6  20
ATOM     20  C   UNL     1       2.633   1.663   0.102  0.00  0.00    +0.000 C 
ATOM     21  N   UNL     1       3.902   2.298   0.154  0.00  0.00    +0.000 NA
ATOM     22  O   UNL     1       1.619   2.395   0.032  0.00  0.00    +0.000 OA
ENDBRANCH   6  20
TORSDOF 2
