REMARK  Name = 
REMARK  2 active torsions:
REMARK  status: ('A' for Active; 'I' for Inactive)
REMARK    1  A    between atoms: C_5  and  C_6
REMARK    2  A    between atoms: C_13  and  O_14
REMARK                            x       y       z     vdW  Elec       q    Type
REMARK                         _______ _______ _______ _____ _____    ______ ____
ROOT
ATOM      1  C   UNL     1       0.029   0.582  -0.871  0.00  0.00    +0.000 A 
ATOM      2  C   UNL     1      -0.387   1.552  -1.760  0.00  0.00    +0.000 A 
ATOM      3  C   UNL     1       0.518   2.368  -2.619  0.00  0.00    +0.000 C 
ATOM      4  N   UNL     1      -1.738   1.625  -1.710  0.00  0.00    +0.000 NA
ATOM      5  C   UNL     1      -2.204   0.734  -0.818  0.00  0.00    +0.000 A 
ATOM      6  C   UNL     1      -3.461   0.374  -0.363  0.00  0.00    +0.000 A 
ATOM      7  C   UNL     1      -3.591  -0.602   0.580  0.00  0.00    +0.000 A 
ATOM      8  C   UNL     1      -2.515  -1.274   1.125  0.00  0.00    +0.000 A 
ATOM      9  C   UNL     1      -1.263  -0.922   0.678  0.00  0.00    +0.000 A 
ATOM     10  C   UNL     1      -1.124   0.075  -0.285  0.00  0.00    +0.000 A 
ENDROOT
BRANCH   1  15
ATOM     11  C   UNL     1       5.649   0.219   1.613  0.00  0.00    +0.000 C 
ATOM     12  N   UNL     1       4.306   0.799   1.514  0.00  0.00    +0.000 NA
ATOM     13  C   UNL     1       3.384   0.281   0.528  0.00  0.00    +0.000 A 
ATOM     14  N   UNL     1       2.157   0.703   0.328  0.00  0.00    +0.000 NA
ATOM     15  C   UNL     1       1.425   0.156  -0.590  0.00  0.00    +0.000 A 
ATOM     16  C   UNL     1       1.984  -0.859  -1.323  0.00  0.00    +0.000 A 
ATOM     17  S   UNL     1       3.557  -0.960  -0.627  0.00  0.00    +0.000 S 
ENDBRANCH   1  15
BRANCH   8  18
ATOM     18  O   UNL     1      -2.705  -2.273   2.095  0.00  0.00    +0.000 OA
ATOM     19  C   UNL     1      -4.021  -2.578   2.503  0.00  0.00    +0.000 C 
ENDBRANCH   8  18
TORSDOF 2
