REMARK  Name = 
REMARK  3 active torsions:
REMARK  status: ('A' for Active; 'I' for Inactive)
REMARK    1  A    between atoms: C_2  and  C_4
REMARK    2  A    between atoms: N_6  and  C_7
REMARK    3  A    between atoms: C_10  and  N_11
REMARK                            x       y       z     vdW  Elec       q    Type
REMARK                         _______ _______ _______ _____ _____    ______ ____
ROOT
ATOM      1  C   UNL     1      -2.929   0.335   0.107  0.00  0.00    +0.000 A 
ATOM      2  N   UNL     1      -1.731   1.004   0.161  0.00  0.00    +0.000 NA
ATOM      3  N   UNL     1      -0.723   0.145   0.324  0.00  0.00    +0.000 N 
ATOM      4  C   UNL     1      -1.309  -1.107   0.377  0.00  0.00    +0.000 A 
ATOM      5  C   UNL     1      -2.657  -0.969   0.238  0.00  0.00    +0.000 A 
ATOM      6  C   UNL     1      -3.338  -2.318   0.307  0.00  0.00    +0.000 C 
ATOM      7  C   UNL     1      -2.190  -3.278   0.608  0.00  0.00    +0.000 C 
ATOM      8  N   UNL     1      -0.945  -2.474   0.518  0.00  0.00    +0.000 NA
ENDROOT
BRANCH   3   9
ATOM      9  C   UNL     1       0.694   0.303   0.361  0.00  0.00    +0.000 A 
ATOM     10  C   UNL     1       1.456   1.083   1.130  0.00  0.00    +0.000 A 
ATOM     11  C   UNL     1       2.855   1.145   0.933  0.00  0.00    +0.000 A 
ATOM     12  C   UNL     1       3.493   0.449  -0.005  0.00  0.00    +0.000 A 
ATOM     13  C   UNL     1       2.711  -0.379  -0.818  0.00  0.00    +0.000 A 
ATOM     14  C   UNL     1       1.374  -0.444  -0.637  0.00  0.00    +0.000 A 
BRANCH  12  15
ATOM     15  N   UNL     1       4.888   0.525  -0.272  0.00  0.00    +0.000 N 
ATOM     16  O   UNL     1       5.624   1.244   0.354  0.00  0.00    +0.000 OA
ATOM     17  O   UNL     1       5.444  -0.220  -1.307  0.00  0.00    +0.000 OA
ENDBRANCH  12  15
ENDBRANCH   3   9
BRANCH   1  19
ATOM     18  C   UNL     1      -4.690   1.980   0.842  0.00  0.00    +0.000 C 
ATOM     19  C   UNL     1      -4.267   0.956  -0.288  0.00  0.00    +0.000 C 
ATOM     20  C   UNL     1      -3.758   2.020  -1.423  0.00  0.00    +0.000 C 
ENDBRANCH   1  19
TORSDOF 3
