REMARK  Name = 
REMARK  2 active torsions:
REMARK  status: ('A' for Active; 'I' for Inactive)
REMARK    1  A    between atoms: C_5  and  C_6
REMARK    2  A    between atoms: C_11  and  N_12
REMARK                            x       y       z     vdW  Elec       q    Type
REMARK                         _______ _______ _______ _____ _____    ______ ____
ROOT
ATOM      1  N   UNL     1      -0.342   0.544  -1.333  0.00  0.00    +0.000 N 
ATOM      2  C   UNL     1      -0.491   0.017  -2.670  0.00  0.00    +0.000 C 
ATOM      3  C   UNL     1      -1.392   0.754  -0.432  0.00  0.00    +0.000 A 
ATOM      4  N   UNL     1      -1.320   1.753   0.500  0.00  0.00    +0.000 NA
ATOM      5  C   UNL     1      -2.305   2.028   1.351  0.00  0.00    +0.000 A 
ATOM      6  N   UNL     1      -3.437   1.326   1.335  0.00  0.00    +0.000 NA
ATOM      7  C   UNL     1      -3.582   0.346   0.465  0.00  0.00    +0.000 A 
ATOM      8  N   UNL     1      -4.589  -0.502   0.246  0.00  0.00    +0.000 NA
ATOM      9  C   UNL     1      -4.272  -1.339  -0.747  0.00  0.00    +0.000 A 
ATOM     10  C   UNL     1      -3.000  -1.010  -1.186  0.00  0.00    +0.000 A 
ATOM     11  F   UNL     1      -2.368  -1.638  -2.149  0.00  0.00    +0.000 F 
ATOM     12  C   UNL     1      -2.584   0.041  -0.421  0.00  0.00    +0.000 A 
ENDROOT
BRANCH   1  19
ATOM     13  C   UNL     1       0.657  -0.203   1.303  0.00  0.00    +0.000 C 
ATOM     14  C   UNL     1       0.804   1.277   0.686  0.00  0.00    +0.000 C 
ATOM     15  C   UNL     1       2.318   1.547   1.174  0.00  0.00    +0.000 C 
ATOM     16  C   UNL     1       3.287   0.985   0.206  0.00  0.00    +0.000 C 
ATOM     17  C   UNL     1       2.785  -0.576   0.339  0.00  0.00    +0.000 C 
ATOM     18  C   UNL     1       1.716  -0.545  -0.884  0.00  0.00    +0.000 C 
ATOM     19  C   UNL     1       1.109   0.952  -0.935  0.00  0.00    +0.000 C 
BRANCH  17  20
ATOM     20  C   UNL     1       4.034  -1.227  -0.491  0.00  0.00    +0.000 C 
ATOM     21  C   UNL     1       5.301  -0.915   0.175  0.00  0.00    +0.000 C 
ATOM     22  C   UNL     1       3.917  -1.022  -1.919  0.00  0.00    +0.000 C 
ATOM     23  O   UNL     1       3.753  -2.595  -0.228  0.00  0.00    +0.000 OA
ENDBRANCH  17  20
ENDBRANCH   1  19
TORSDOF 2
