REMARK  Name = 
REMARK  4 active torsions:
REMARK  status: ('A' for Active; 'I' for Inactive)
REMARK    1  A    between atoms: C_2  and  N_4
REMARK    2  A    between atoms: N_4  and  C_14
REMARK    3  A    between atoms: C_5  and  C_7
REMARK    4  A    between atoms: C_7  and  N_8
REMARK                            x       y       z     vdW  Elec       q    Type
REMARK                         _______ _______ _______ _____ _____    ______ ____
ROOT
ATOM      1  N   UNL     1      -0.993  -1.026   0.098  0.00  0.00    +0.000 N 
ATOM      2  C   UNL     1       0.365  -1.121  -0.403  0.00  0.00    +0.000 C 
ATOM      3  O   UNL     1       0.966  -2.220  -0.414  0.00  0.00    +0.000 OA
ENDROOT
BRANCH   1   4
ATOM      4  C   UNL     1      -1.649   0.234   0.146  0.00  0.00    +0.000 A 
ATOM      5  C   UNL     1      -2.672   0.461   1.014  0.00  0.00    +0.000 A 
ATOM      6  C   UNL     1      -3.301   1.679   1.055  0.00  0.00    +0.000 A 
ATOM      7  C   UNL     1      -2.869   2.662   0.202  0.00  0.00    +0.000 A 
ATOM      8  C   UNL     1      -1.836   2.486  -0.697  0.00  0.00    +0.000 A 
ATOM      9  C   UNL     1      -1.217   1.255  -0.729  0.00  0.00    +0.000 A 
ENDBRANCH   1   4
BRANCH   1  11
ATOM     10  C   UNL     1      -2.409  -2.169   1.767  0.00  0.00    +0.000 C 
ATOM     11  C   UNL     1      -1.619  -2.255   0.498  0.00  0.00    +0.000 C 
ATOM     12  C   UNL     1      -2.416  -2.889  -0.624  0.00  0.00    +0.000 C 
ENDBRANCH   1  11
BRANCH   2  13
ATOM     13  C   UNL     1       1.036   0.101  -0.910  0.00  0.00    +0.000 C 
BRANCH  13  14
ATOM     14  N   UNL     1       2.144   0.451  -0.000  0.00  0.00    +0.000 N 
ATOM     15  C   UNL     1       1.996   1.251   1.012  0.00  0.00    +0.000 A 
ATOM     16  C   UNL     1       3.070   1.531   1.799  0.00  0.00    +0.000 A 
ATOM     17  S   UNL     1       4.291   0.609   1.034  0.00  0.00    +0.000 S 
ATOM     18  C   UNL     1       3.365  -0.065  -0.220  0.00  0.00    +0.000 A 
ATOM     19  N   UNL     1       3.750  -0.976  -1.283  0.00  0.00    +0.000 NA
ENDBRANCH  13  14
ENDBRANCH   2  13
TORSDOF 4
