REMARK  Name = 
REMARK  3 active torsions:
REMARK  status: ('A' for Active; 'I' for Inactive)
REMARK    1  A    between atoms: C_5  and  N_6
REMARK    2  A    between atoms: N_6  and  C_7
REMARK    3  A    between atoms: C_9  and  C_10
REMARK                            x       y       z     vdW  Elec       q    Type
REMARK                         _______ _______ _______ _____ _____    ______ ____
ROOT
ATOM      1  C   UNL     1      -0.591  -0.787  -0.241  0.00  0.00    +0.000 A 
ATOM      2  C   UNL     1       0.695  -1.055   0.001  0.00  0.00    +0.000 A 
ATOM      3  C   UNL     1       1.641  -0.124  -0.305  0.00  0.00    +0.000 A 
ATOM      4  C   UNL     1       1.134   1.044  -0.868  0.00  0.00    +0.000 A 
ATOM      5  S   UNL     1      -0.527   0.762  -0.918  0.00  0.00    +0.000 S 
ENDROOT
BRANCH   3   6
ATOM      6  C   UNL     1       3.061  -0.268   0.089  0.00  0.00    +0.000 C 
ATOM      7  C   UNL     1       3.189  -0.035   1.598  0.00  0.00    +0.000 C 
ATOM      8  C   UNL     1       3.796  -1.494  -0.318  0.00  0.00    +0.000 C 
ATOM      9  C   UNL     1       5.263  -1.053   0.007  0.00  0.00    +0.000 C 
ATOM     10  C   UNL     1       5.168   0.453  -0.145  0.00  0.00    +0.000 C 
ATOM     11  O   UNL     1       6.141   1.246   0.047  0.00  0.00    +0.000 OA
ATOM     12  O   UNL     1       3.842   0.756  -0.521  0.00  0.00    +0.000 OA
ENDBRANCH   3   6
BRANCH   1  13
ATOM     13  N   UNL     1      -1.798  -1.609  -0.033  0.00  0.00    +0.000 NA
BRANCH  13  18
ATOM     14  C   UNL     1      -6.380   1.866   0.409  0.00  0.00    +0.000 C 
ATOM     15  C   UNL     1      -5.214   0.912   0.248  0.00  0.00    +0.000 A 
ATOM     16  C   UNL     1      -4.391   0.621   1.327  0.00  0.00    +0.000 A 
ATOM     17  C   UNL     1      -3.318  -0.217   1.166  0.00  0.00    +0.000 A 
ATOM     18  C   UNL     1      -2.984  -0.825  -0.064  0.00  0.00    +0.000 A 
ATOM     19  C   UNL     1      -3.811  -0.528  -1.114  0.00  0.00    +0.000 A 
ATOM     20  C   UNL     1      -4.917   0.334  -0.955  0.00  0.00    +0.000 A 
ENDBRANCH  13  18
ENDBRANCH   1  13
TORSDOF 3
