REMARK  Name = 
REMARK  4 active torsions:
REMARK  status: ('A' for Active; 'I' for Inactive)
REMARK    1  A    between atoms: N_2  and  C_4
REMARK    2  A    between atoms: C_9  and  C_10
REMARK    3  A    between atoms: C_10  and  N_11
REMARK    4  A    between atoms: N_11  and  C_12
REMARK                            x       y       z     vdW  Elec       q    Type
REMARK                         _______ _______ _______ _____ _____    ______ ____
ROOT
ATOM      1  C   UNL     1      -2.701   0.734   0.246  0.00  0.00    +0.000 A 
ATOM      2  C   UNL     1      -3.309   0.052  -0.769  0.00  0.00    +0.000 A 
ATOM      3  C   UNL     1      -2.772  -1.103  -1.312  0.00  0.00    +0.000 A 
ATOM      4  C   UNL     1      -1.583  -1.562  -0.798  0.00  0.00    +0.000 A 
ATOM      5  C   UNL     1      -0.963  -0.887   0.220  0.00  0.00    +0.000 A 
ATOM      6  C   UNL     1      -1.495   0.249   0.751  0.00  0.00    +0.000 A 
ATOM      7  O   UNL     1      -1.217  -2.715  -1.467  0.00  0.00    +0.000 OA
ATOM      8  C   UNL     1      -2.242  -3.076  -2.397  0.00  0.00    +0.000 C 
ATOM      9  O   UNL     1      -3.163  -1.990  -2.331  0.00  0.00    +0.000 OA
ENDROOT
BRANCH   1  11
ATOM     10  O   UNL     1      -4.473   2.122   0.784  0.00  0.00    +0.000 OA
ATOM     11  N   UNL     1      -3.254   1.925   0.806  0.00  0.00    +0.000 N 
ATOM     12  O   UNL     1      -2.428   2.852   1.372  0.00  0.00    +0.000 OA
ENDBRANCH   1  11
BRANCH   6  13
ATOM     13  C   UNL     1      -0.865   1.013   1.858  0.00  0.00    +0.000 C 
BRANCH  13  14
ATOM     14  N   UNL     1       0.364   0.352   2.225  0.00  0.00    +0.000 NA
BRANCH  14  15
ATOM     15  C   UNL     1       1.407   0.270   1.261  0.00  0.00    +0.000 A 
ATOM     16  C   UNL     1       1.324   0.824   0.002  0.00  0.00    +0.000 A 
ATOM     17  C   UNL     1       2.359   0.720  -0.897  0.00  0.00    +0.000 A 
ATOM     18  C   UNL     1       3.551   0.050  -0.592  0.00  0.00    +0.000 A 
ATOM     19  C   UNL     1       3.636  -0.503   0.660  0.00  0.00    +0.000 A 
ATOM     20  C   UNL     1       2.583  -0.397   1.575  0.00  0.00    +0.000 A 
ATOM     21  C   UNL     1       4.972  -1.172   0.803  0.00  0.00    +0.000 C 
ATOM     22  C   UNL     1       5.482  -1.265  -0.617  0.00  0.00    +0.000 C 
ATOM     23  C   UNL     1       4.785  -0.190  -1.382  0.00  0.00    +0.000 C 
ENDBRANCH  14  15
ENDBRANCH  13  14
ENDBRANCH   6  13
TORSDOF 4
