REMARK  Name = 
REMARK  0 active torsions:
REMARK  status: ('A' for Active; 'I' for Inactive)
REMARK                            x       y       z     vdW  Elec       q    Type
REMARK                         _______ _______ _______ _____ _____    ______ ____
ROOT
ATOM      1  N   UNL     1       2.431   2.041   0.635  0.00  0.00    +0.000 NA
ATOM      2  C   UNL     1       1.022   2.127   0.469  0.00  0.00    +0.000 A 
ATOM      3  N   UNL     1       0.388   3.294   0.592  0.00  0.00    +0.000 NA
ATOM      4  C   UNL     1      -0.941   3.334   0.429  0.00  0.00    +0.000 A 
ATOM      5  N   UNL     1      -1.633   2.207   0.143  0.00  0.00    +0.000 NA
ATOM      6  C   UNL     1      -1.000   1.032   0.020  0.00  0.00    +0.000 A 
ATOM      7  C   UNL     1       0.361   0.931   0.176  0.00  0.00    +0.000 A 
ATOM      8  C   UNL     1       1.097  -0.334   0.050  0.00  0.00    +0.000 C 
ATOM      9  C   UNL     1       1.868  -0.567   1.369  0.00  0.00    +0.000 C 
ATOM     10  C   UNL     1       2.532  -1.925   1.199  0.00  0.00    +0.000 C 
ATOM     11  C   UNL     1       3.615  -1.757   0.166  0.00  0.00    +0.000 C 
ATOM     12  C   UNL     1       3.123  -1.224  -1.141  0.00  0.00    +0.000 C 
ATOM     13  C   UNL     1       2.152  -0.101  -1.027  0.00  0.00    +0.000 C 
ATOM     14  C   UNL     1       0.291  -1.535  -0.263  0.00  0.00    +0.000 C 
ATOM     15  C   UNL     1      -1.147  -1.369  -0.418  0.00  0.00    +0.000 A 
ATOM     16  C   UNL     1      -1.972  -2.460  -0.714  0.00  0.00    +0.000 A 
ATOM     17  C   UNL     1      -3.314  -2.345  -0.866  0.00  0.00    +0.000 A 
ATOM     18  C   UNL     1      -3.937  -1.126  -0.733  0.00  0.00    +0.000 A 
ATOM     19  C   UNL     1      -3.152  -0.054  -0.445  0.00  0.00    +0.000 A 
ATOM     20  C   UNL     1      -1.783  -0.169  -0.290  0.00  0.00    +0.000 A 
ENDROOT
TORSDOF 0
