REMARK  Name = 
REMARK  5 active torsions:
REMARK  status: ('A' for Active; 'I' for Inactive)
REMARK    1  A    between atoms: O_2  and  C_3
REMARK    2  A    between atoms: C_5  and  C_6
REMARK    3  A    between atoms: C_6  and  S_7
REMARK    4  A    between atoms: S_7  and  C_8
REMARK    5  A    between atoms: C_15  and  O_16
REMARK                            x       y       z     vdW  Elec       q    Type
REMARK                         _______ _______ _______ _____ _____    ______ ____
ROOT
ATOM      1  C   UNL     1      -2.924   0.852  -0.543  0.00  0.00    +0.000 A 
ATOM      2  C   UNL     1      -1.581   1.079  -0.380  0.00  0.00    +0.000 A 
ATOM      3  C   UNL     1      -0.792   0.080   0.148  0.00  0.00    +0.000 A 
ATOM      4  C   UNL     1      -1.355  -1.127   0.505  0.00  0.00    +0.000 A 
ATOM      5  C   UNL     1      -2.701  -1.380   0.351  0.00  0.00    +0.000 A 
ATOM      6  C   UNL     1      -3.482  -0.371  -0.179  0.00  0.00    +0.000 A 
ATOM      7  N   UNL     1      -4.893  -0.559  -0.370  0.00  0.00    +0.000 NA
ENDROOT
BRANCH   1   9
ATOM      8  C   UNL     1      -3.210   3.072  -1.445  0.00  0.00    +0.000 C 
ATOM      9  O   UNL     1      -3.765   1.822  -1.071  0.00  0.00    +0.000 OA
ENDBRANCH   1   9
BRANCH   5  10
ATOM     10  O   UNL     1      -3.273  -2.594   0.709  0.00  0.00    +0.000 OA
ATOM     11  C   UNL     1      -2.411  -3.596   1.252  0.00  0.00    +0.000 C 
ENDBRANCH   5  10
BRANCH   3  12
ATOM     12  C   UNL     1       0.653   0.318   0.326  0.00  0.00    +0.000 C 
BRANCH  12  13
ATOM     13  S   UNL     1       1.615  -0.157  -1.126  0.00  0.00    +0.000 S 
BRANCH  13  14
ATOM     14  C   UNL     1       3.336   0.181  -0.778  0.00  0.00    +0.000 A 
ATOM     15  C   UNL     1       3.749   0.717   0.432  0.00  0.00    +0.000 A 
ATOM     16  C   UNL     1       5.087   0.954   0.637  0.00  0.00    +0.000 A 
ATOM     17  C   UNL     1       6.028   0.669  -0.338  0.00  0.00    +0.000 A 
ATOM     18  C   UNL     1       5.631   0.132  -1.555  0.00  0.00    +0.000 A 
ATOM     19  C   UNL     1       4.289  -0.090  -1.722  0.00  0.00    +0.000 A 
ENDBRANCH  13  14
ENDBRANCH  12  13
ENDBRANCH   3  12
TORSDOF 5
