REMARK  Name = 
REMARK  3 active torsions:
REMARK  status: ('A' for Active; 'I' for Inactive)
REMARK    1  A    between atoms: C_7  and  S_8
REMARK    2  A    between atoms: S_8  and  C_9
REMARK    3  A    between atoms: C_14  and  N_15
REMARK                            x       y       z     vdW  Elec       q    Type
REMARK                         _______ _______ _______ _____ _____    ______ ____
ROOT
ATOM      1  C   UNL     1       4.744   1.256  -0.600  0.00  0.00    +0.000 C 
ATOM      2  C   UNL     1       3.527   0.580  -0.009  0.00  0.00    +0.000 C 
ATOM      3  C   UNL     1       3.683   0.556   1.509  0.00  0.00    +0.000 C 
ATOM      4  C   UNL     1       3.494  -0.831  -0.569  0.00  0.00    +0.000 C 
ATOM      5  C   UNL     1       2.250  -1.500  -0.145  0.00  0.00    +0.000 C 
ATOM      6  O   UNL     1       2.260  -2.759   0.014  0.00  0.00    +0.000 OA
ATOM      7  C   UNL     1       1.068  -0.683   0.072  0.00  0.00    +0.000 C 
ATOM      8  C   UNL     1       1.054   0.636  -0.029  0.00  0.00    +0.000 C 
ATOM      9  O   UNL     1      -0.105   1.385   0.188  0.00  0.00    +0.000 OA
ATOM     10  C   UNL     1       2.285   1.350  -0.380  0.00  0.00    +0.000 C 
ENDROOT
BRANCH   7  11
ATOM     11  S   UNL     1      -0.457  -1.502   0.501  0.00  0.00    +0.000 S 
BRANCH  11  12
ATOM     12  C   UNL     1      -1.783  -0.327   0.725  0.00  0.00    +0.000 A 
ATOM     13  C   UNL     1      -2.060   0.247   1.950  0.00  0.00    +0.000 A 
ATOM     14  C   UNL     1      -3.080   1.155   2.141  0.00  0.00    +0.000 A 
ATOM     15  C   UNL     1      -3.851   1.501   1.063  0.00  0.00    +0.000 A 
ATOM     16  C   UNL     1      -3.632   0.972  -0.176  0.00  0.00    +0.000 A 
ATOM     17  C   UNL     1      -2.603   0.065  -0.333  0.00  0.00    +0.000 A 
BRANCH  17  18
ATOM     18  N   UNL     1      -2.356  -0.497  -1.606  0.00  0.00    +0.000 N 
ATOM     19  O   UNL     1      -2.668   0.145  -2.621  0.00  0.00    +0.000 OA
ATOM     20  O   UNL     1      -1.771  -1.751  -1.695  0.00  0.00    +0.000 OA
ENDBRANCH  17  18
ENDBRANCH  11  12
ENDBRANCH   7  11
TORSDOF 3
