REMARK  Name = 
REMARK  4 active torsions:
REMARK  status: ('A' for Active; 'I' for Inactive)
REMARK    1  A    between atoms: C_2  and  C_4
REMARK    2  A    between atoms: C_7  and  C_8
REMARK    3  A    between atoms: C_8  and  N_9
REMARK    4  A    between atoms: C_10  and  C_11
REMARK                            x       y       z     vdW  Elec       q    Type
REMARK                         _______ _______ _______ _____ _____    ______ ____
ROOT
ATOM      1  N   UNL     1      -1.537  -0.473  -0.395  0.00  0.00    +0.000 N 
ATOM      2  C   UNL     1      -2.022  -1.435   0.409  0.00  0.00    +0.000 A 
ATOM      3  N   UNL     1      -2.971  -0.900   1.200  0.00  0.00    +0.000 NA
ATOM      4  C   UNL     1      -3.065   0.409   0.872  0.00  0.00    +0.000 A 
ATOM      5  C   UNL     1      -3.853   1.443   1.339  0.00  0.00    +0.000 A 
ATOM      6  C   UNL     1      -3.717   2.696   0.795  0.00  0.00    +0.000 A 
ATOM      7  C   UNL     1      -2.821   2.966  -0.203  0.00  0.00    +0.000 A 
ATOM      8  C   UNL     1      -2.022   1.952  -0.687  0.00  0.00    +0.000 A 
ATOM      9  C   UNL     1      -2.166   0.688  -0.132  0.00  0.00    +0.000 A 
ENDROOT
BRANCH   2  10
ATOM     10  C   UNL     1      -1.552  -2.865   0.394  0.00  0.00    +0.000 C 
ATOM     11  O   UNL     1      -2.306  -3.608  -0.500  0.00  0.00    +0.000 OA
ENDBRANCH   2  10
BRANCH   1  12
ATOM     12  C   UNL     1      -0.498  -0.678  -1.384  0.00  0.00    +0.000 C 
BRANCH  12  16
ATOM     13  C   UNL     1       3.403   0.050   0.299  0.00  0.00    +0.000 A 
ATOM     14  C   UNL     1       2.845  -1.211   0.335  0.00  0.00    +0.000 A 
ATOM     15  C   UNL     1       1.594  -1.445  -0.205  0.00  0.00    +0.000 A 
ATOM     16  C   UNL     1       0.850  -0.445  -0.798  0.00  0.00    +0.000 A 
ATOM     17  C   UNL     1       1.409   0.818  -0.833  0.00  0.00    +0.000 A 
ATOM     18  C   UNL     1       2.659   1.050  -0.294  0.00  0.00    +0.000 A 
BRANCH  13  20
ATOM     19  C   UNL     1       5.646  -0.894   0.777  0.00  0.00    +0.000 C 
ATOM     20  C   UNL     1       4.752   0.323   0.876  0.00  0.00    +0.000 C 
ATOM     21  C   UNL     1       5.371   1.560   0.317  0.00  0.00    +0.000 C 
ENDBRANCH  13  20
ENDBRANCH  12  16
ENDBRANCH   1  12
TORSDOF 4
