REMARK  Name = 
REMARK  2 active torsions:
REMARK  status: ('A' for Active; 'I' for Inactive)
REMARK    1  A    between atoms: C_5  and  N_6
REMARK    2  A    between atoms: C_7  and  C_8
REMARK                            x       y       z     vdW  Elec       q    Type
REMARK                         _______ _______ _______ _____ _____    ______ ____
ROOT
ATOM      1  N   UNL     1      -0.772  -0.628   0.292  0.00  0.00    +0.000 NA
ATOM      2  C   UNL     1       0.056   0.310   0.108  0.00  0.00    +0.000 C 
ENDROOT
BRANCH   2   3
ATOM      3  C   UNL     1       1.506   0.160   0.068  0.00  0.00    +0.000 A 
ATOM      4  C   UNL     1       2.133  -1.061   0.233  0.00  0.00    +0.000 A 
ATOM      5  O   UNL     1       1.346  -2.181   0.444  0.00  0.00    +0.000 OA
ATOM      6  C   UNL     1       3.523  -1.122   0.181  0.00  0.00    +0.000 A 
ATOM      7  C   UNL     1       4.286   0.002  -0.029  0.00  0.00    +0.000 A 
ATOM      8  C   UNL     1       5.769  -0.059  -0.085  0.00  0.00    +0.000 C 
ATOM      9  C   UNL     1       3.668   1.224  -0.195  0.00  0.00    +0.000 A 
ATOM     10 CL   UNL     1       4.557   2.705  -0.467  0.00  0.00    +0.000 Cl
ATOM     11  C   UNL     1       2.295   1.271  -0.142  0.00  0.00    +0.000 A 
ATOM     12  C   UNL     1       1.619   2.579  -0.318  0.00  0.00    +0.000 C 
ENDBRANCH   2   3
BRANCH   1  17
ATOM     13  C   UNL     1      -6.418  -0.076   0.341  0.00  0.00    +0.000 C 
ATOM     14  C   UNL     1      -4.931  -0.225   0.309  0.00  0.00    +0.000 A 
ATOM     15  C   UNL     1      -4.251  -0.039   1.500  0.00  0.00    +0.000 A 
ATOM     16  C   UNL     1      -2.872  -0.175   1.481  0.00  0.00    +0.000 A 
ATOM     17  C   UNL     1      -2.181  -0.485   0.332  0.00  0.00    +0.000 A 
ATOM     18  C   UNL     1      -2.860  -0.670  -0.852  0.00  0.00    +0.000 A 
ATOM     19  N   UNL     1      -2.225  -0.991  -2.085  0.00  0.00    +0.000 NA
ATOM     20  C   UNL     1      -4.249  -0.537  -0.854  0.00  0.00    +0.000 A 
ENDBRANCH   1  17
TORSDOF 2
