REMARK  Name = 
REMARK  4 active torsions:
REMARK  status: ('A' for Active; 'I' for Inactive)
REMARK    1  A    between atoms: C_4  and  N_5
REMARK    2  A    between atoms: N_5  and  C_6
REMARK    3  A    between atoms: C_6  and  C_7
REMARK    4  A    between atoms: C_7  and  C_8
REMARK                            x       y       z     vdW  Elec       q    Type
REMARK                         _______ _______ _______ _____ _____    ______ ____
ROOT
ATOM      1  O   UNL     1       1.226   0.207  -3.224  0.00  0.00    +0.000 OA
ATOM      2  C   UNL     1       1.584   0.039  -2.015  0.00  0.00    +0.000 A 
ATOM      3  C   UNL     1       0.660  -0.258  -1.042  0.00  0.00    +0.000 A 
ATOM      4  C   UNL     1       1.063  -0.436   0.260  0.00  0.00    +0.000 A 
ATOM      5  C   UNL     1       2.404  -0.311   0.555  0.00  0.00    +0.000 A 
ATOM      6  C   UNL     1       2.837  -0.486   1.858  0.00  0.00    +0.000 A 
ATOM      7  C   UNL     1       4.184  -0.362   2.168  0.00  0.00    +0.000 A 
ATOM      8  C   UNL     1       5.090  -0.061   1.159  0.00  0.00    +0.000 A 
ATOM      9  C   UNL     1       4.621   0.107  -0.134  0.00  0.00    +0.000 A 
ATOM     10  C   UNL     1       3.295  -0.010  -0.465  0.00  0.00    +0.000 A 
ATOM     11  O   UNL     1       2.841   0.145  -1.675  0.00  0.00    +0.000 OA
ENDROOT
BRANCH   4  12
ATOM     12  N   UNL     1       0.176  -0.745   1.327  0.00  0.00    +0.000 NA
BRANCH  12  13
ATOM     13  C   UNL     1      -1.232  -0.878   1.022  0.00  0.00    +0.000 C 
BRANCH  13  14
ATOM     14  C   UNL     1      -1.707   0.442   0.447  0.00  0.00    +0.000 C 
BRANCH  14  15
ATOM     15  C   UNL     1      -3.156   0.296   0.136  0.00  0.00    +0.000 C 
ATOM     16  C   UNL     1      -3.615   0.452  -1.101  0.00  0.00    +0.000 C 
ATOM     17  C   UNL     1      -5.095   0.281  -1.297  0.00  0.00    +0.000 C 
ATOM     18  C   UNL     1      -5.787   1.147  -0.289  0.00  0.00    +0.000 C 
ATOM     19  C   UNL     1      -5.255   0.975   1.113  0.00  0.00    +0.000 C 
ATOM     20  C   UNL     1      -4.134  -0.027   1.195  0.00  0.00    +0.000 C 
ENDBRANCH  14  15
ENDBRANCH  13  14
ENDBRANCH  12  13
ENDBRANCH   4  12
TORSDOF 4
