REMARK  Name = 
REMARK  3 active torsions:
REMARK  status: ('A' for Active; 'I' for Inactive)
REMARK    1  A    between atoms: C_2  and  C_15
REMARK    2  A    between atoms: N_3  and  N_4
REMARK    3  A    between atoms: C_5  and  C_6
REMARK                            x       y       z     vdW  Elec       q    Type
REMARK                         _______ _______ _______ _____ _____    ______ ____
ROOT
ATOM      1  N   UNL     1       0.391  -0.916   0.403  0.00  0.00    +0.000 NA
ATOM      2  C   UNL     1      -0.245   0.099  -0.021  0.00  0.00    +0.000 C 
ENDROOT
BRANCH   2   3
ATOM      3  C   UNL     1      -1.637   0.018  -0.450  0.00  0.00    +0.000 A 
ATOM      4  C   UNL     1      -2.327  -1.175  -0.410  0.00  0.00    +0.000 A 
ATOM      5  C   UNL     1      -3.650  -1.232  -0.822  0.00  0.00    +0.000 A 
ATOM      6  C   UNL     1      -4.330  -0.109  -1.284  0.00  0.00    +0.000 A 
ATOM      7  C   UNL     1      -3.643   1.083  -1.324  0.00  0.00    +0.000 A 
ATOM      8  C   UNL     1      -2.317   1.122  -0.908  0.00  0.00    +0.000 A 
ATOM      9  C   UNL     1      -4.582   2.113  -1.849  0.00  0.00    +0.000 C 
ATOM     10  C   UNL     1      -5.961   1.452  -1.731  0.00  0.00    +0.000 C 
ATOM     11  N   UNL     1      -5.660   0.014  -1.736  0.00  0.00    +0.000 NA
ENDBRANCH   2   3
BRANCH   1  14
ATOM     12  O   UNL     1       2.533   0.327  -0.930  0.00  0.00    +0.000 OA
ATOM     13  C   UNL     1       2.751  -0.280   0.138  0.00  0.00    +0.000 C 
ATOM     14  N   UNL     1       1.719  -0.907   0.826  0.00  0.00    +0.000 NA
BRANCH  13  15
ATOM     15  C   UNL     1       4.144  -0.295   0.623  0.00  0.00    +0.000 A 
ATOM     16  C   UNL     1       4.637  -0.885   1.754  0.00  0.00    +0.000 A 
ATOM     17  C   UNL     1       5.945  -0.765   1.988  0.00  0.00    +0.000 A 
ATOM     18  C   UNL     1       6.694  -0.068   1.091  0.00  0.00    +0.000 A 
ATOM     19  S   UNL     1       5.538   0.405  -0.068  0.00  0.00    +0.000 S 
ENDBRANCH  13  15
ENDBRANCH   1  14
TORSDOF 3
