REMARK  Name = 
REMARK  1 active torsions:
REMARK  status: ('A' for Active; 'I' for Inactive)
REMARK    1  A    between atoms: C_5  and  C_6
REMARK                            x       y       z     vdW  Elec       q    Type
REMARK                         _______ _______ _______ _____ _____    ______ ____
ROOT
ATOM      1  C   UNL     1       0.863   0.271  -0.134  0.00  0.00    +0.000 A 
ATOM      2  C   UNL     1      -0.198  -0.301   0.519  0.00  0.00    +0.000 A 
ATOM      3  N   UNL     1      -1.389   0.238   0.077  0.00  0.00    +0.000 N 
ATOM      4  C   UNL     1      -2.681   0.094   0.322  0.00  0.00    +0.000 A 
ATOM      5  C   UNL     1      -3.551   0.870  -0.380  0.00  0.00    +0.000 A 
ATOM      6  S   UNL     1      -2.498   1.778  -1.368  0.00  0.00    +0.000 S 
ATOM      7  C   UNL     1      -1.017   1.120  -0.830  0.00  0.00    +0.000 A 
ATOM      8  N   UNL     1       0.342   1.167  -0.984  0.00  0.00    +0.000 NA
ATOM      9  C   UNL     1      -5.036   0.739  -0.133  0.00  0.00    +0.000 C 
ATOM     10  C   UNL     1      -5.358  -0.728  -0.240  0.00  0.00    +0.000 C 
ATOM     11  C   UNL     1      -4.467  -1.601   0.590  0.00  0.00    +0.000 C 
ATOM     12  C   UNL     1      -3.377  -0.837   1.303  0.00  0.00    +0.000 C 
ENDROOT
BRANCH   1  17
ATOM     13  N   UNL     1       6.418  -0.888   0.579  0.00  0.00    +0.000 NA
ATOM     14  C   UNL     1       5.030  -0.611   0.414  0.00  0.00    +0.000 A 
ATOM     15  C   UNL     1       4.600   0.335  -0.494  0.00  0.00    +0.000 A 
ATOM     16  C   UNL     1       3.262   0.623  -0.675  0.00  0.00    +0.000 A 
ATOM     17  C   UNL     1       2.294  -0.031   0.053  0.00  0.00    +0.000 A 
ATOM     18  C   UNL     1       2.712  -0.978   0.962  0.00  0.00    +0.000 A 
ATOM     19  C   UNL     1       4.051  -1.260   1.137  0.00  0.00    +0.000 A 
ENDBRANCH   1  17
TORSDOF 1
