REMARK  Name = 
REMARK  3 active torsions:
REMARK  status: ('A' for Active; 'I' for Inactive)
REMARK    1  A    between atoms: C_3  and  C_4
REMARK    2  A    between atoms: N_6  and  C_7
REMARK    3  A    between atoms: C_17  and  N_18
REMARK                            x       y       z     vdW  Elec       q    Type
REMARK                         _______ _______ _______ _____ _____    ______ ____
ROOT
ATOM      1  C   UNL     1      -1.375   1.522   0.232  0.00  0.00    +0.000 C 
ATOM      2  C   UNL     1      -1.849   0.142  -0.094  0.00  0.00    +0.000 A 
ATOM      3  C   UNL     1      -0.932  -0.883  -0.134  0.00  0.00    +0.000 A 
ATOM      4  C   UNL     1      -1.356  -2.158  -0.438  0.00  0.00    +0.000 A 
ATOM      5  C   UNL     1      -2.717  -2.362  -0.696  0.00  0.00    +0.000 A 
ATOM      6  C   UNL     1      -3.615  -1.316  -0.649  0.00  0.00    +0.000 A 
ATOM      7  C   UNL     1      -3.212  -0.027  -0.346  0.00  0.00    +0.000 A 
ENDROOT
BRANCH   3   8
ATOM      8  C   UNL     1       0.503  -0.613   0.166  0.00  0.00    +0.000 C 
ATOM      9  O   UNL     1       1.273  -1.592   0.190  0.00  0.00    +0.000 OA
ATOM     10  N   UNL     1       0.971   0.673   0.418  0.00  0.00    +0.000 NA
BRANCH  10  11
ATOM     11  C   UNL     1       2.435   0.968   0.747  0.00  0.00    +0.000 C 
ATOM     12  C   UNL     1       2.897   1.368  -0.745  0.00  0.00    +0.000 C 
ATOM     13  C   UNL     1       4.462   0.844  -0.631  0.00  0.00    +0.000 C 
ATOM     14  C   UNL     1       4.670   0.951   0.999  0.00  0.00    +0.000 C 
ATOM     15  C   UNL     1       4.406  -0.338   1.537  0.00  0.00    +0.000 C 
ATOM     16  C   UNL     1       2.996  -0.633   0.745  0.00  0.00    +0.000 C 
ATOM     17  C   UNL     1       3.802  -0.649  -0.645  0.00  0.00    +0.000 C 
ENDBRANCH  10  11
ENDBRANCH   3   8
BRANCH   7  18
ATOM     18  N   UNL     1      -4.120   1.062  -0.267  0.00  0.00    +0.000 N 
ATOM     19  O   UNL     1      -3.843   2.236  -0.550  0.00  0.00    +0.000 OA
ATOM     20  O   UNL     1      -5.397   0.806   0.163  0.00  0.00    +0.000 OA
ENDBRANCH   7  18
TORSDOF 3
