REMARK  Name = 
REMARK  4 active torsions:
REMARK  status: ('A' for Active; 'I' for Inactive)
REMARK    1  A    between atoms: C_6  and  C_7
REMARK    2  A    between atoms: N_9  and  N_10
REMARK    3  A    between atoms: C_11  and  C_12
REMARK    4  A    between atoms: C_15  and  C_16
REMARK                            x       y       z     vdW  Elec       q    Type
REMARK                         _______ _______ _______ _____ _____    ______ ____
ROOT
ATOM      1  N   UNL     1      -0.446   0.819  -0.879  0.00  0.00    +0.000 NA
ATOM      2  C   UNL     1       0.313   0.461   0.101  0.00  0.00    +0.000 C 
ENDROOT
BRANCH   2   3
ATOM      3  C   UNL     1       1.749   0.266  -0.078  0.00  0.00    +0.000 A 
ATOM      4  C   UNL     1       2.572  -0.117   0.961  0.00  0.00    +0.000 A 
ATOM      5  C   UNL     1       3.939  -0.305   0.803  0.00  0.00    +0.000 A 
ATOM      6  C   UNL     1       4.516  -0.109  -0.431  0.00  0.00    +0.000 A 
ATOM      7  C   UNL     1       3.684   0.273  -1.464  0.00  0.00    +0.000 A 
ATOM      8  C   UNL     1       2.330   0.461  -1.308  0.00  0.00    +0.000 A 
BRANCH   6   9
ATOM      9  C   UNL     1       5.945  -0.276  -0.723  0.00  0.00    +0.000 C 
ATOM     10  C   UNL     1       6.845   0.598   0.084  0.00  0.00    +0.000 C 
ATOM     11  C   UNL     1       6.392  -1.697  -0.833  0.00  0.00    +0.000 C 
ENDBRANCH   6   9
ENDBRANCH   2   3
BRANCH   1  14
ATOM     12  C   UNL     1      -2.683   0.061  -0.115  0.00  0.00    +0.000 C 
ATOM     13  O   UNL     1      -2.169  -1.030   0.285  0.00  0.00    +0.000 OA
ATOM     14  N   UNL     1      -1.821   1.005  -0.706  0.00  0.00    +0.000 NA
BRANCH  12  20
ATOM     15  C   UNL     1      -4.810  -2.182  -0.417  0.00  0.00    +0.000 C 
ATOM     16  C   UNL     1      -5.048  -0.740  -0.078  0.00  0.00    +0.000 A 
ATOM     17  O   UNL     1      -6.247  -0.215   0.146  0.00  0.00    +0.000 OA
ATOM     18  C   UNL     1      -6.134   1.051   0.415  0.00  0.00    +0.000 A 
ATOM     19  C   UNL     1      -4.814   1.411   0.375  0.00  0.00    +0.000 A 
ATOM     20  C   UNL     1      -4.114   0.266   0.060  0.00  0.00    +0.000 A 
ENDBRANCH  12  20
ENDBRANCH   1  14
TORSDOF 4
