REMARK  Name = 
REMARK  4 active torsions:
REMARK  status: ('A' for Active; 'I' for Inactive)
REMARK    1  A    between atoms: C_2  and  C_3
REMARK    2  A    between atoms: C_3  and  O_4
REMARK    3  A    between atoms: O_4  and  C_5
REMARK    4  A    between atoms: N_7  and  C_8
REMARK                            x       y       z     vdW  Elec       q    Type
REMARK                         _______ _______ _______ _____ _____    ______ ____
ROOT
ATOM      1  C   UNL     1      -0.689   0.026  -0.641  0.00  0.00    +0.000 C 
ATOM      2  O   UNL     1      -0.603   0.024   0.608  0.00  0.00    +0.000 OA
ATOM      3  N   UNL     1       0.481  -0.008  -1.411  0.00  0.00    +0.000 NA
ENDROOT
BRANCH   3   4
ATOM      4  C   UNL     1       1.750  -0.044  -0.737  0.00  0.00    +0.000 A 
ATOM      5  C   UNL     1       2.943  -0.079  -1.425  0.00  0.00    +0.000 A 
ATOM      6  C   UNL     1       3.961  -0.108  -0.462  0.00  0.00    +0.000 A 
ATOM      7  C   UNL     1       5.321  -0.147  -0.514  0.00  0.00    +0.000 A 
ATOM      8  C   UNL     1       6.060  -0.168   0.641  0.00  0.00    +0.000 A 
ATOM      9  C   UNL     1       5.417  -0.148   1.854  0.00  0.00    +0.000 A 
ATOM     10  C   UNL     1       4.041  -0.109   1.921  0.00  0.00    +0.000 A 
ATOM     11  C   UNL     1       3.306  -0.088   0.751  0.00  0.00    +0.000 A 
ATOM     12  O   UNL     1       2.000  -0.051   0.537  0.00  0.00    +0.000 OA
ENDBRANCH   3   4
BRANCH   1  13
ATOM     13  O   UNL     1      -1.976   0.063  -1.177  0.00  0.00    +0.000 OA
BRANCH  13  14
ATOM     14  C   UNL     1      -3.121   0.096  -0.374  0.00  0.00    +0.000 C 
ATOM     15  C   UNL     1      -3.189   1.341   0.492  0.00  0.00    +0.000 C 
ATOM     16  C   UNL     1      -4.288   1.071   1.528  0.00  0.00    +0.000 C 
ATOM     17  C   UNL     1      -5.512   0.597   0.764  0.00  0.00    +0.000 C 
ATOM     18  C   UNL     1      -5.380   0.968  -0.710  0.00  0.00    +0.000 C 
ATOM     19  C   UNL     1      -4.326   0.029  -1.294  0.00  0.00    +0.000 C 
BRANCH  14  21
ATOM     20  C   UNL     1      -3.091  -2.140   1.114  0.00  0.00    +0.000 C 
ATOM     21  C   UNL     1      -3.106  -1.125   0.453  0.00  0.00    +0.000 C 
ENDBRANCH  14  21
ENDBRANCH  13  14
ENDBRANCH   1  13
TORSDOF 4
