REMARK  Name = 
REMARK  3 active torsions:
REMARK  status: ('A' for Active; 'I' for Inactive)
REMARK    1  A    between atoms: O_2  and  C_3
REMARK    2  A    between atoms: C_11  and  N_12
REMARK    3  A    between atoms: N_12  and  C_13
REMARK                            x       y       z     vdW  Elec       q    Type
REMARK                         _______ _______ _______ _____ _____    ______ ____
ROOT
ATOM      1  C   UNL     1      -4.278   0.750   0.002  0.00  0.00    +0.000 A 
ATOM      2  C   UNL     1      -3.449   1.784   0.310  0.00  0.00    +0.000 A 
ATOM      3  C   UNL     1      -2.123   1.529   0.573  0.00  0.00    +0.000 A 
ATOM      4  C   UNL     1      -1.600   0.221   0.530  0.00  0.00    +0.000 A 
ATOM      5  C   UNL     1      -2.430  -0.815   0.221  0.00  0.00    +0.000 A 
ATOM      6  C   UNL     1      -3.774  -0.512  -0.040  0.00  0.00    +0.000 A 
ATOM      7  C   UNL     1      -1.925  -2.192   0.164  0.00  0.00    +0.000 C 
ATOM      8  C   UNL     1      -0.525  -2.340   0.607  0.00  0.00    +0.000 C 
ATOM      9  C   UNL     1       0.340  -1.182  -0.202  0.00  0.00    +0.000 C 
ATOM     10  C   UNL     1      -0.180  -0.018   0.817  0.00  0.00    +0.000 C 
ENDROOT
BRANCH   1  12
ATOM     11  C   UNL     1      -6.304   2.131  -0.280  0.00  0.00    +0.000 C 
ATOM     12  O   UNL     1      -5.641   0.907  -0.281  0.00  0.00    +0.000 OA
ENDBRANCH   1  12
BRANCH   9  13
ATOM     13  N   UNL     1       1.633  -1.466   0.620  0.00  0.00    +0.000 NA
BRANCH  13  14
ATOM     14  C   UNL     1       2.769  -0.694   0.312  0.00  0.00    +0.000 A 
ATOM     15  C   UNL     1       3.885  -0.986   1.069  0.00  0.00    +0.000 A 
ATOM     16  C   UNL     1       5.090  -0.319   0.895  0.00  0.00    +0.000 A 
ATOM     17  C   UNL     1       5.184   0.666  -0.059  0.00  0.00    +0.000 A 
ATOM     18  O   UNL     1       6.399   1.308  -0.202  0.00  0.00    +0.000 OA
ATOM     19  C   UNL     1       4.066   0.948  -0.806  0.00  0.00    +0.000 A 
ATOM     20  C   UNL     1       2.865   0.279  -0.629  0.00  0.00    +0.000 A 
ENDBRANCH  13  14
ENDBRANCH   9  13
TORSDOF 3
