REMARK  Name = 
REMARK  2 active torsions:
REMARK  status: ('A' for Active; 'I' for Inactive)
REMARK    1  A    between atoms: C_5  and  C_6
REMARK    2  A    between atoms: C_12  and  C_13
REMARK                            x       y       z     vdW  Elec       q    Type
REMARK                         _______ _______ _______ _____ _____    ______ ____
ROOT
ATOM      1  C   UNL     1      -0.973   0.351   1.174  0.00  0.00    +0.000 C 
ATOM      2  N   UNL     1      -0.464   1.540   0.299  0.00  0.00    +0.000 NA
ATOM      3  C   UNL     1       0.868   1.677   0.017  0.00  0.00    +0.000 C 
ATOM      4  O   UNL     1       1.416   2.823  -0.107  0.00  0.00    +0.000 OA
ATOM      5  C   UNL     1       1.635   0.436  -0.135  0.00  0.00    +0.000 A 
ATOM      6  C   UNL     1       2.995   0.357  -0.431  0.00  0.00    +0.000 A 
ATOM      7  C   UNL     1       3.568  -0.833  -0.547  0.00  0.00    +0.000 A 
ATOM      8  S   UNL     1       2.227  -1.883  -0.248  0.00  0.00    +0.000 S 
ATOM      9  C   UNL     1       1.012  -0.744   0.009  0.00  0.00    +0.000 A 
ATOM     10  N   UNL     1      -0.316  -0.818   0.296  0.00  0.00    +0.000 NA
ENDROOT
BRANCH   1  15
ATOM     11  C   UNL     1      -6.304  -0.163  -1.256  0.00  0.00    +0.000 C 
ATOM     12  C   UNL     1      -4.937  -0.035  -0.634  0.00  0.00    +0.000 A 
ATOM     13  C   UNL     1      -4.186  -1.143  -0.329  0.00  0.00    +0.000 A 
ATOM     14  C   UNL     1      -2.909  -1.023   0.253  0.00  0.00    +0.000 A 
ATOM     15  C   UNL     1      -2.398   0.218   0.522  0.00  0.00    +0.000 A 
ATOM     16  C   UNL     1      -3.146   1.299   0.217  0.00  0.00    +0.000 A 
ATOM     17  C   UNL     1      -4.414   1.200  -0.359  0.00  0.00    +0.000 A 
ENDBRANCH   1  15
BRANCH   7  18
ATOM     18  C   UNL     1       5.001  -1.164  -0.856  0.00  0.00    +0.000 C 
ATOM     19  C   UNL     1       5.798   0.118  -0.609  0.00  0.00    +0.000 C 
ATOM     20  C   UNL     1       5.526  -2.216   0.092  0.00  0.00    +0.000 C 
ENDBRANCH   7  18
TORSDOF 2
