REMARK  Name = 
REMARK  4 active torsions:
REMARK  status: ('A' for Active; 'I' for Inactive)
REMARK    1  A    between atoms: C_2  and  C_4
REMARK    2  A    between atoms: C_6  and  C_7
REMARK    3  A    between atoms: C_7  and  C_9
REMARK    4  A    between atoms: C_9  and  C_10
REMARK                            x       y       z     vdW  Elec       q    Type
REMARK                         _______ _______ _______ _____ _____    ______ ____
ROOT
ATOM      1  C   UNL     1       3.227  -0.303   0.107  0.00  0.00    +0.000 A 
ATOM      2  C   UNL     1       1.879  -0.296  -0.197  0.00  0.00    +0.000 A 
ATOM      3  C   UNL     1       0.912  -0.142   0.797  0.00  0.00    +0.000 A 
ATOM      4  C   UNL     1       1.311   0.006   2.109  0.00  0.00    +0.000 A 
ATOM      5  O   UNL     1       0.304   0.156   3.057  0.00  0.00    +0.000 OA
ATOM      6  C   UNL     1       2.646   0.003   2.439  0.00  0.00    +0.000 A 
ATOM      7  C   UNL     1       3.582  -0.152   1.431  0.00  0.00    +0.000 A 
ATOM      8  O   UNL     1       4.928  -0.156   1.761  0.00  0.00    +0.000 OA
ENDROOT
BRANCH   1  10
ATOM      9  C   UNL     1       3.744  -0.614  -2.287  0.00  0.00    +0.000 C 
ATOM     10  C   UNL     1       4.293  -0.463  -0.904  0.00  0.00    +0.000 C 
ATOM     11  C   UNL     1       5.336   0.629  -0.809  0.00  0.00    +0.000 C 
ENDBRANCH   1  10
BRANCH   3  12
ATOM     12  C   UNL     1      -0.503  -0.140   0.430  0.00  0.00    +0.000 C 
ATOM     13  O   UNL     1      -1.359  -0.000   1.337  0.00  0.00    +0.000 OA
BRANCH  12  14
ATOM     14  C   UNL     1      -0.909  -0.299  -0.969  0.00  0.00    +0.000 C 
BRANCH  14  15
ATOM     15  C   UNL     1      -2.398  -0.261  -1.066  0.00  0.00    +0.000 A 
ATOM     16  C   UNL     1      -3.165  -1.403  -0.971  0.00  0.00    +0.000 A 
ATOM     17  C   UNL     1      -4.552  -1.351  -1.063  0.00  0.00    +0.000 A 
ATOM     18  C   UNL     1      -5.212  -0.153  -1.254  0.00  0.00    +0.000 A 
ATOM     19  F   UNL     1      -6.559  -0.108  -1.343  0.00  0.00    +0.000 F 
ATOM     20  C   UNL     1      -4.440   0.988  -1.349  0.00  0.00    +0.000 A 
ATOM     21  C   UNL     1      -3.065   0.931  -1.257  0.00  0.00    +0.000 A 
ENDBRANCH  14  15
ENDBRANCH  12  14
ENDBRANCH   3  12
TORSDOF 4
