REMARK  Name = 
REMARK  4 active torsions:
REMARK  status: ('A' for Active; 'I' for Inactive)
REMARK    1  A    between atoms: C_2  and  O_3
REMARK    2  A    between atoms: O_3  and  C_4
REMARK    3  A    between atoms: C_4  and  C_6
REMARK    4  A    between atoms: C_17  and  C_18
REMARK                            x       y       z     vdW  Elec       q    Type
REMARK                         _______ _______ _______ _____ _____    ______ ____
ROOT
ATOM      1  C   UNL     1       0.962   0.686  -0.101  0.00  0.00    +0.000 C 
ATOM      2  C   UNL     1       0.323   1.755   0.216  0.00  0.00    +0.000 C 
ATOM      3  N   UNL     1       1.062   2.936   0.576  0.00  0.00    +0.000 NA
ATOM      4  O   UNL     1      -1.050   1.862   0.240  0.00  0.00    +0.000 OA
ATOM      5  C   UNL     1      -1.769   0.731  -0.104  0.00  0.00    +0.000 A 
ATOM      6  C   UNL     1      -3.174   0.871  -0.070  0.00  0.00    +0.000 A 
ATOM      7  C   UNL     1      -3.937  -0.226  -0.404  0.00  0.00    +0.000 A 
ATOM      8  O   UNL     1      -5.310  -0.107  -0.377  0.00  0.00    +0.000 OA
ATOM      9  C   UNL     1      -3.327  -1.422  -0.760  0.00  0.00    +0.000 A 
ATOM     10  C   UNL     1      -1.964  -1.550  -0.791  0.00  0.00    +0.000 A 
ATOM     11  C   UNL     1      -1.190  -0.422  -0.447  0.00  0.00    +0.000 A 
ATOM     12  C   UNL     1       0.336  -0.645  -0.505  0.00  0.00    +0.000 C 
ENDROOT
BRANCH  12  13
ATOM     13  C   UNL     1       0.513  -1.385   0.963  0.00  0.00    +0.000 C 
ATOM     14  C   UNL     1      -0.034  -2.738   0.839  0.00  0.00    +0.000 C 
ATOM     15  C   UNL     1       0.000  -0.487   1.985  0.00  0.00    +0.000 C 
ENDBRANCH  12  13
BRANCH   1  16
ATOM     16  C   UNL     1       2.420   0.708  -0.086  0.00  0.00    +0.000 C 
ATOM     17  O   UNL     1       3.066   1.759   0.234  0.00  0.00    +0.000 OA
BRANCH  16  18
ATOM     18  O   UNL     1       3.210  -0.392  -0.412  0.00  0.00    +0.000 OA
BRANCH  18  20
ATOM     19  C   UNL     1       5.223  -1.626  -0.771  0.00  0.00    +0.000 C 
ATOM     20  C   UNL     1       4.639  -0.306  -0.378  0.00  0.00    +0.000 C 
ENDBRANCH  18  20
ENDBRANCH  16  18
ENDBRANCH   1  16
TORSDOF 4
