REMARK  Name = 
REMARK  3 active torsions:
REMARK  status: ('A' for Active; 'I' for Inactive)
REMARK    1  A    between atoms: C_6  and  N_7
REMARK    2  A    between atoms: N_7  and  C_8
REMARK    3  A    between atoms: C_11  and  C_12
REMARK                            x       y       z     vdW  Elec       q    Type
REMARK                         _______ _______ _______ _____ _____    ______ ____
ROOT
ATOM      1  C   UNL     1      -5.441   2.520  -0.183  0.00  0.00    +0.000 C 
ATOM      2  C   UNL     1      -4.247   1.645   0.092  0.00  0.00    +0.000 A 
ATOM      3  C   UNL     1      -4.357   0.464   0.766  0.00  0.00    +0.000 A 
ATOM      4  C   UNL     1      -3.210  -0.266   0.969  0.00  0.00    +0.000 A 
ATOM      5  N   UNL     1      -2.020   0.166   0.520  0.00  0.00    +0.000 N 
ATOM      6  C   UNL     1      -0.763  -0.395   0.609  0.00  0.00    +0.000 A 
ATOM      7  C   UNL     1       0.126   0.436  -0.007  0.00  0.00    +0.000 A 
ATOM      8  N   UNL     1      -0.620   1.487  -0.459  0.00  0.00    +0.000 NA
ATOM      9  C   UNL     1      -1.905   1.321  -0.141  0.00  0.00    +0.000 A 
ATOM     10  C   UNL     1      -3.042   2.110  -0.378  0.00  0.00    +0.000 A 
ENDROOT
BRANCH   7  11
ATOM     11  C   UNL     1       1.576   0.288  -0.167  0.00  0.00    +0.000 A 
ATOM     12  C   UNL     1       2.439  -0.037   0.859  0.00  0.00    +0.000 A 
ATOM     13  C   UNL     1       3.801  -0.165   0.655  0.00  0.00    +0.000 A 
ATOM     14  C   UNL     1       4.369   0.025  -0.586  0.00  0.00    +0.000 A 
ATOM     15  O   UNL     1       5.747  -0.104  -0.795  0.00  0.00    +0.000 OA
ATOM     16  C   UNL     1       3.510   0.349  -1.613  0.00  0.00    +0.000 A 
ATOM     17  C   UNL     1       2.150   0.477  -1.408  0.00  0.00    +0.000 A 
ENDBRANCH   7  11
BRANCH   6  18
ATOM     18  N   UNL     1      -0.520  -1.621   1.251  0.00  0.00    +0.000 NA
BRANCH  18  19
ATOM     19  C   UNL     1       0.732  -2.301   1.305  0.00  0.00    +0.000 C 
ATOM     20  C   UNL     1       0.602  -3.502   2.260  0.00  0.00    +0.000 C 
ATOM     21  C   UNL     1       1.073  -2.898  -0.085  0.00  0.00    +0.000 C 
ENDBRANCH  18  19
ENDBRANCH   6  18
TORSDOF 3
