REMARK  Name = 
REMARK  3 active torsions:
REMARK  status: ('A' for Active; 'I' for Inactive)
REMARK    1  A    between atoms: S_2  and  C_3
REMARK    2  A    between atoms: C_7  and  C_8
REMARK    3  A    between atoms: C_15  and  C_16
REMARK                            x       y       z     vdW  Elec       q    Type
REMARK                         _______ _______ _______ _____ _____    ______ ____
ROOT
ATOM      1  C   UNL     1      -2.478   0.511  -0.374  0.00  0.00    +0.000 A 
ATOM      2  N   UNL     1      -2.936  -0.738  -0.160  0.00  0.00    +0.000 NA
ATOM      3  C   UNL     1      -2.076  -1.763   0.122  0.00  0.00    +0.000 A 
ATOM      4  C   UNL     1      -0.725  -1.552   0.197  0.00  0.00    +0.000 A 
ATOM      5  C   UNL     1      -0.226  -0.293  -0.016  0.00  0.00    +0.000 A 
ATOM      6  C   UNL     1      -1.127   0.712  -0.299  0.00  0.00    +0.000 A 
ATOM      7  C   UNL     1      -0.063  -2.831   0.516  0.00  0.00    +0.000 C 
ATOM      8  C   UNL     1      -1.133  -3.862   0.645  0.00  0.00    +0.000 C 
ATOM      9  C   UNL     1      -2.445  -3.178   0.372  0.00  0.00    +0.000 C 
ENDROOT
BRANCH   5  10
ATOM     10  C   UNL     1       1.206   0.004   0.066  0.00  0.00    +0.000 A 
ATOM     11  C   UNL     1       1.691   0.558   1.259  0.00  0.00    +0.000 A 
ATOM     12  C   UNL     1       3.039   0.853   1.424  0.00  0.00    +0.000 A 
ATOM     13  C   UNL     1       3.930   0.602   0.403  0.00  0.00    +0.000 A 
ATOM     14  O   UNL     1       5.295   0.860   0.473  0.00  0.00    +0.000 OA
ATOM     15  C   UNL     1       3.446   0.057  -0.772  0.00  0.00    +0.000 A 
ATOM     16  C   UNL     1       2.107  -0.235  -0.931  0.00  0.00    +0.000 A 
ENDBRANCH   5  10
BRANCH   1  18
ATOM     17  C   UNL     1      -2.979   3.391  -0.997  0.00  0.00    +0.000 C 
ATOM     18  S   UNL     1      -3.677   1.771  -0.725  0.00  0.00    +0.000 S 
ENDBRANCH   1  18
BRANCH   6  19
ATOM     19  C   UNL     1      -0.629   2.034  -0.518  0.00  0.00    +0.000 C 
ATOM     20  N   UNL     1      -0.218   3.100  -0.683  0.00  0.00    +0.000 NA
ENDBRANCH   6  19
TORSDOF 3
