REMARK  Name = 
REMARK  2 active torsions:
REMARK  status: ('A' for Active; 'I' for Inactive)
REMARK    1  A    between atoms: O_2  and  C_3
REMARK    2  A    between atoms: C_6  and  C_7
REMARK                            x       y       z     vdW  Elec       q    Type
REMARK                         _______ _______ _______ _____ _____    ______ ____
ROOT
ATOM      1  C   UNL     1      -0.299  -1.374   0.847  0.00  0.00    +0.000 C 
ATOM      2  C   UNL     1      -0.222  -2.667   0.080  0.00  0.00    +0.000 C 
ATOM      3  C   UNL     1      -1.304  -3.698   0.159  0.00  0.00    +0.000 C 
ATOM      4  C   UNL     1       0.771  -2.958  -0.682  0.00  0.00    +0.000 C 
ATOM      5  O   UNL     1       0.703  -4.226  -1.347  0.00  0.00    +0.000 OA
ATOM      6  O   UNL     1       1.892  -2.171  -0.920  0.00  0.00    +0.000 OA
ATOM      7  C   UNL     1       1.903  -0.945  -0.244  0.00  0.00    +0.000 A 
ATOM      8  C   UNL     1       3.019  -0.103  -0.449  0.00  0.00    +0.000 A 
ATOM      9  C   UNL     1       3.092   1.117   0.186  0.00  0.00    +0.000 A 
ATOM     10  C   UNL     1       2.082   1.525   1.024  0.00  0.00    +0.000 A 
ATOM     11  C   UNL     1       1.020   0.693   1.201  0.00  0.00    +0.000 A 
ATOM     12  C   UNL     1       0.931  -0.555   0.560  0.00  0.00    +0.000 A 
ATOM     13  O   UNL     1       2.420   2.801   1.530  0.00  0.00    +0.000 OA
ATOM     14  C   UNL     1       3.453   3.296   0.667  0.00  0.00    +0.000 C 
ATOM     15  O   UNL     1       4.064   2.117   0.156  0.00  0.00    +0.000 OA
ENDROOT
BRANCH   1  19
ATOM     16  C   UNL     1      -3.348   1.190  -0.758  0.00  0.00    +0.000 A 
ATOM     17  C   UNL     1      -2.937   1.304   0.534  0.00  0.00    +0.000 A 
ATOM     18  C   UNL     1      -1.931   0.420   0.972  0.00  0.00    +0.000 A 
ATOM     19  C   UNL     1      -1.398  -0.514   0.117  0.00  0.00    +0.000 A 
ATOM     20  C   UNL     1      -1.829  -0.576  -1.101  0.00  0.00    +0.000 A 
ATOM     21  C   UNL     1      -2.820   0.260  -1.615  0.00  0.00    +0.000 A 
BRANCH  16  23
ATOM     22  C   UNL     1      -4.922   3.024  -0.395  0.00  0.00    +0.000 C 
ATOM     23  O   UNL     1      -4.338   2.039  -1.240  0.00  0.00    +0.000 OA
ENDBRANCH  16  23
ENDBRANCH   1  19
TORSDOF 2
