REMARK  Name = 
REMARK  2 active torsions:
REMARK  status: ('A' for Active; 'I' for Inactive)
REMARK    1  A    between atoms: N_2  and  C_4
REMARK    2  A    between atoms: N_10  and  C_11
REMARK                            x       y       z     vdW  Elec       q    Type
REMARK                         _______ _______ _______ _____ _____    ______ ____
ROOT
ATOM      1  C   UNL     1       4.037   0.265   0.773  0.00  0.00    +0.000 A 
ATOM      2  C   UNL     1       3.296   1.384   1.078  0.00  0.00    +0.000 A 
ATOM      3  C   UNL     1       2.008   1.599   0.729  0.00  0.00    +0.000 A 
ATOM      4  C   UNL     1       1.316   0.617  -0.016  0.00  0.00    +0.000 A 
ATOM      5  N   UNL     1       0.075   0.688  -0.421  0.00  0.00    +0.000 NA
ATOM      6  C   UNL     1      -0.454  -0.304  -1.113  0.00  0.00    +0.000 A 
ATOM      7  N   UNL     1      -1.779  -0.438  -1.652  0.00  0.00    +0.000 NA
ATOM      8  S   UNL     1       0.849  -1.403  -1.207  0.00  0.00    +0.000 S 
ATOM      9  C   UNL     1       2.022  -0.511  -0.337  0.00  0.00    +0.000 A 
ATOM     10  C   UNL     1       3.359  -0.705   0.041  0.00  0.00    +0.000 A 
ENDROOT
BRANCH   7  11
ATOM     11  C   UNL     1      -2.745   0.593  -1.473  0.00  0.00    +0.000 C 
ATOM     12  C   UNL     1      -3.050   0.880  -0.022  0.00  0.00    +0.000 C 
ATOM     13  C   UNL     1      -2.762  -0.313   0.861  0.00  0.00    +0.000 C 
ATOM     14  C   UNL     1      -3.902  -0.558   1.822  0.00  0.00    +0.000 C 
ATOM     15  C   UNL     1      -5.192  -0.223   1.078  0.00  0.00    +0.000 C 
ATOM     16  C   UNL     1      -5.178  -0.816  -0.309  0.00  0.00    +0.000 C 
ATOM     17  C   UNL     1      -5.232   0.259  -1.378  0.00  0.00    +0.000 C 
ATOM     18  C   UNL     1      -3.992   0.212  -2.240  0.00  0.00    +0.000 C 
ENDBRANCH   7  11
BRANCH   1  20
ATOM     19  O   UNL     1       5.924   1.000   1.818  0.00  0.00    +0.000 OA
ATOM     20  N   UNL     1       5.373   0.096   1.163  0.00  0.00    +0.000 N 
ATOM     21  O   UNL     1       6.027  -1.062   0.808  0.00  0.00    +0.000 OA
ENDBRANCH   1  20
TORSDOF 2
