REMARK  Name = 
REMARK  4 active torsions:
REMARK  status: ('A' for Active; 'I' for Inactive)
REMARK    1  A    between atoms: C_8  and  N_9
REMARK    2  A    between atoms: C_10  and  C_12
REMARK    3  A    between atoms: C_12  and  N_13
REMARK    4  A    between atoms: N_13  and  C_14
REMARK                            x       y       z     vdW  Elec       q    Type
REMARK                         _______ _______ _______ _____ _____    ______ ____
ROOT
ATOM      1  N   UNL     1       0.570  -0.686   0.085  0.00  0.00    +0.000 NA
ATOM      2  C   UNL     1       0.439  -1.251  -1.214  0.00  0.00    +0.000 C 
ATOM      3  O   UNL     1       1.404  -1.095  -2.006  0.00  0.00    +0.000 OA
ENDROOT
BRANCH   1  11
ATOM      4  C   UNL     1       0.770   2.126  -0.339  0.00  0.00    +0.000 C 
ATOM      5  C   UNL     1       1.906   1.383   0.287  0.00  0.00    +0.000 A 
ATOM      6  C   UNL     1       3.068   2.016   0.673  0.00  0.00    +0.000 A 
ATOM      7  C   UNL     1       4.106   1.334   1.245  0.00  0.00    +0.000 A 
ATOM      8  C   UNL     1       3.941  -0.031   1.421  0.00  0.00    +0.000 A 
ATOM      9  C   UNL     1       2.790  -0.679   1.042  0.00  0.00    +0.000 A 
ATOM     10  C   UNL     1       2.653  -2.150   1.250  0.00  0.00    +0.000 C 
ATOM     11  C   UNL     1       1.749   0.025   0.465  0.00  0.00    +0.000 A 
ENDBRANCH   1  11
BRANCH   2  12
ATOM     12  C   UNL     1      -0.730  -1.998  -1.697  0.00  0.00    +0.000 C 
BRANCH  12  13
ATOM     13  N   UNL     1      -1.785  -2.136  -0.747  0.00  0.00    +0.000 NA
BRANCH  13  14
ATOM     14  C   UNL     1      -2.437  -0.999  -0.200  0.00  0.00    +0.000 A 
ATOM     15  C   UNL     1      -3.461  -1.191   0.730  0.00  0.00    +0.000 A 
ATOM     16  C   UNL     1      -4.109  -0.102   1.274  0.00  0.00    +0.000 A 
ATOM     17  C   UNL     1      -3.719   1.150   0.876  0.00  0.00    +0.000 A 
ATOM     18  C   UNL     1      -2.703   1.370  -0.048  0.00  0.00    +0.000 A 
ATOM     19  F   UNL     1      -2.387   2.646  -0.380  0.00  0.00    +0.000 F 
ATOM     20  C   UNL     1      -2.065   0.268  -0.583  0.00  0.00    +0.000 A 
ENDBRANCH  13  14
ENDBRANCH  12  13
ENDBRANCH   2  12
TORSDOF 4
