REMARK  Name = 
REMARK  3 active torsions:
REMARK  status: ('A' for Active; 'I' for Inactive)
REMARK    1  A    between atoms: C_2  and  C_3
REMARK    2  A    between atoms: C_4  and  C_5
REMARK    3  A    between atoms: N_17  and  C_18
REMARK                            x       y       z     vdW  Elec       q    Type
REMARK                         _______ _______ _______ _____ _____    ______ ____
ROOT
ATOM      1  C   UNL     1       0.785  -0.117  -0.700  0.00  0.00    +0.000 A 
ATOM      2  C   UNL     1      -0.506  -0.423  -0.343  0.00  0.00    +0.000 A 
ATOM      3  N   UNL     1      -0.440  -0.595   1.001  0.00  0.00    +0.000 NA
ATOM      4  N   UNL     1       0.812  -0.402   1.398  0.00  0.00    +0.000 NA
ATOM      5  N   UNL     1       1.600  -0.103   0.370  0.00  0.00    +0.000 N 
ENDROOT
BRANCH   2   6
ATOM      6  C   UNL     1      -1.662  -0.532  -1.219  0.00  0.00    +0.000 C 
ATOM      7  O   UNL     1      -1.477  -0.325  -2.448  0.00  0.00    +0.000 OA
ATOM      8  N   UNL     1      -2.958  -0.855  -0.745  0.00  0.00    +0.000 N 
ATOM      9  C   UNL     1      -4.014  -0.937  -1.674  0.00  0.00    +0.000 C 
ATOM     10  C   UNL     1      -5.049   0.301  -1.393  0.00  0.00    +0.000 C 
ATOM     11  C   UNL     1      -3.908   1.442  -1.111  0.00  0.00    +0.000 C 
ATOM     12  C   UNL     1      -5.402  -0.161   0.122  0.00  0.00    +0.000 C 
ATOM     13  C   UNL     1      -4.117   0.251   1.027  0.00  0.00    +0.000 C 
ATOM     14  C   UNL     1      -4.751  -0.411   2.385  0.00  0.00    +0.000 C 
ATOM     15  C   UNL     1      -3.262  -1.107   0.649  0.00  0.00    +0.000 C 
ENDBRANCH   2   6
BRANCH   5  16
ATOM     16  C   UNL     1       2.993   0.172   0.370  0.00  0.00    +0.000 A 
ATOM     17  C   UNL     1       3.830  -0.763  -0.197  0.00  0.00    +0.000 A 
ATOM     18  C   UNL     1       5.202  -0.555  -0.230  0.00  0.00    +0.000 A 
ATOM     19  C   UNL     1       5.762   0.575   0.295  0.00  0.00    +0.000 A 
ATOM     20  C   UNL     1       4.944   1.524   0.868  0.00  0.00    +0.000 A 
ATOM     21  F   UNL     1       5.528   2.632   1.380  0.00  0.00    +0.000 F 
ATOM     22  C   UNL     1       3.571   1.305   0.896  0.00  0.00    +0.000 A 
ENDBRANCH   5  16
BRANCH   1  24
ATOM     23  C   UNL     1       1.312  -1.077  -2.927  0.00  0.00    +0.000 C 
ATOM     24  C   UNL     1       1.204   0.160  -2.098  0.00  0.00    +0.000 C 
ENDBRANCH   1  24
TORSDOF 3
