REMARK  Name = 
REMARK  8 active torsions:
REMARK  status: ('A' for Active; 'I' for Inactive)
REMARK    1  A    between atoms: C_2  and  C_3
REMARK    2  A    between atoms: C_3  and  N_4
REMARK    3  A    between atoms: N_4  and  C_5
REMARK    4  A    between atoms: N_4  and  C_8
REMARK    5  A    between atoms: C_5  and  C_6
REMARK    6  A    between atoms: C_8  and  N_10
REMARK    7  A    between atoms: N_10  and  C_11
REMARK    8  A    between atoms: C_15  and  N_16
REMARK                            x       y       z     vdW  Elec       q    Type
REMARK                         _______ _______ _______ _____ _____    ______ ____
ROOT
ATOM      1  N   UNL     1      -0.064  -1.333  -0.099  0.00  0.00    +0.000 NA
ENDROOT
BRANCH   1   2
ATOM      2  C   UNL     1       0.752  -0.271   0.235  0.00  0.00    +0.000 A 
ATOM      3  C   UNL     1       0.418   1.062   0.152  0.00  0.00    +0.000 A 
ATOM      4  C   UNL     1       1.280   2.075   0.501  0.00  0.00    +0.000 A 
ATOM      5  C   UNL     1       2.554   1.811   0.963  0.00  0.00    +0.000 A 
ATOM      6  C   UNL     1       2.914   0.485   1.055  0.00  0.00    +0.000 A 
ATOM      7  C   UNL     1       2.062  -0.526   0.710  0.00  0.00    +0.000 A 
BRANCH   6   8
ATOM      8  N   UNL     1       4.236   0.147   1.534  0.00  0.00    +0.000 N 
ATOM      9  O   UNL     1       4.582  -1.043   1.627  0.00  0.00    +0.000 OA
ATOM     10  O   UNL     1       5.133   1.119   1.894  0.00  0.00    +0.000 OA
ENDBRANCH   6   8
ENDBRANCH   1   2
BRANCH   1  11
ATOM     11  C   UNL     1      -1.308  -1.599  -0.544  0.00  0.00    +0.000 C 
ATOM     12  S   UNL     1      -1.798  -3.196  -0.788  0.00  0.00    +0.000 S 
BRANCH  11  13
ATOM     13  N   UNL     1      -2.331  -0.669  -0.855  0.00  0.00    +0.000 N 
BRANCH  13  14
ATOM     14  C   UNL     1      -3.651  -1.082  -1.337  0.00  0.00    +0.000 C 
BRANCH  14  16
ATOM     15  C   UNL     1      -3.039  -0.039  -3.506  0.00  0.00    +0.000 C 
ATOM     16  C   UNL     1      -3.901  -0.696  -2.733  0.00  0.00    +0.000 C 
ENDBRANCH  14  16
ENDBRANCH  13  14
BRANCH  13  17
ATOM     17  C   UNL     1      -2.166   0.769  -0.718  0.00  0.00    +0.000 C 
BRANCH  17  18
ATOM     18  C   UNL     1      -3.046   1.198   0.403  0.00  0.00    +0.000 C 
ATOM     19  C   UNL     1      -2.625   1.787   1.506  0.00  0.00    +0.000 C 
ENDBRANCH  17  18
ENDBRANCH  13  17
ENDBRANCH  11  13
ENDBRANCH   1  11
TORSDOF 8
