REMARK  Name = 
REMARK  2 active torsions:
REMARK  status: ('A' for Active; 'I' for Inactive)
REMARK    1  A    between atoms: N_12  and  C_13
REMARK    2  A    between atoms: C_13  and  C_14
REMARK                            x       y       z     vdW  Elec       q    Type
REMARK                         _______ _______ _______ _____ _____    ______ ____
ROOT
ATOM      1  O   UNL     1      -0.346  -1.273  -2.516  0.00  0.00    +0.000 OA
ATOM      2  C   UNL     1      -0.818  -1.081  -1.357  0.00  0.00    +0.000 C 
ATOM      3  N   UNL     1      -2.158  -0.754  -1.005  0.00  0.00    +0.000 NA
ATOM      4  C   UNL     1      -2.080  -0.135   0.287  0.00  0.00    +0.000 C 
ATOM      5  C   UNL     1      -3.315  -0.326   1.125  0.00  0.00    +0.000 C 
ATOM      6  C   UNL     1      -4.514   0.311   0.498  0.00  0.00    +0.000 C 
ATOM      7  C   UNL     1      -4.117   1.304  -0.554  0.00  0.00    +0.000 C 
ATOM      8  C   UNL     1      -2.956   2.142  -0.056  0.00  0.00    +0.000 C 
ATOM      9  C   UNL     1      -1.702   1.310   0.119  0.00  0.00    +0.000 C 
ATOM     10  C   UNL     1      -0.948  -0.883   0.915  0.00  0.00    +0.000 C 
ATOM     11  O   UNL     1      -0.823  -1.198   2.137  0.00  0.00    +0.000 OA
ATOM     12  N   UNL     1      -0.046  -1.164  -0.149  0.00  0.00    +0.000 N 
ENDROOT
BRANCH  12  13
ATOM     13  C   UNL     1       1.358  -1.468   0.011  0.00  0.00    +0.000 C 
BRANCH  13  14
ATOM     14  C   UNL     1       2.201  -0.248  -0.027  0.00  0.00    +0.000 A 
ATOM     15  C   UNL     1       1.686   1.022  -0.196  0.00  0.00    +0.000 A 
ATOM     16  C   UNL     1       2.518   2.146  -0.225  0.00  0.00    +0.000 A 
ATOM     17  C   UNL     1       3.871   1.961  -0.082  0.00  0.00    +0.000 A 
ATOM     18  C   UNL     1       4.420   0.711   0.089  0.00  0.00    +0.000 A 
ATOM     19  C   UNL     1       3.563  -0.382   0.113  0.00  0.00    +0.000 A 
ATOM     20 CL   UNL     1       4.204  -1.997   0.326  0.00  0.00    +0.000 Cl
ENDBRANCH  13  14
ENDBRANCH  12  13
TORSDOF 2
