REMARK  Name = 
REMARK  2 active torsions:
REMARK  status: ('A' for Active; 'I' for Inactive)
REMARK    1  A    between atoms: N_2  and  C_4
REMARK    2  A    between atoms: C_7  and  C_8
REMARK                            x       y       z     vdW  Elec       q    Type
REMARK                         _______ _______ _______ _____ _____    ______ ____
ROOT
ATOM      1  C   UNL     1      -0.914  -0.441  -0.454  0.00  0.00    +0.000 A 
ATOM      2  N   UNL     1      -1.538  -1.493  -1.045  0.00  0.00    +0.000 NA
ATOM      3  C   UNL     1      -2.882  -1.583  -1.119  0.00  0.00    +0.000 A 
ATOM      4  N   UNL     1      -3.458  -2.713  -1.751  0.00  0.00    +0.000 NA
ATOM      5  N   UNL     1      -3.687  -0.622  -0.604  0.00  0.00    +0.000 NA
ATOM      6  C   UNL     1      -3.080   0.423  -0.018  0.00  0.00    +0.000 A 
ATOM      7  C   UNL     1      -1.711   0.539   0.070  0.00  0.00    +0.000 A 
ATOM      8  C   UNL     1      -1.094   1.715   0.730  0.00  0.00    +0.000 C 
ATOM      9  C   UNL     1      -1.852   1.920   2.024  0.00  0.00    +0.000 C 
ATOM     10  C   UNL     1      -3.325   2.033   1.849  0.00  0.00    +0.000 C 
ATOM     11  C   UNL     1      -3.884   1.522   0.571  0.00  0.00    +0.000 C 
ENDROOT
BRANCH   1  15
ATOM     12  C   UNL     1       3.342  -0.127  -0.205  0.00  0.00    +0.000 A 
ATOM     13  C   UNL     1       2.716  -0.505  -1.375  0.00  0.00    +0.000 A 
ATOM     14  C   UNL     1       1.344  -0.608  -1.462  0.00  0.00    +0.000 A 
ATOM     15  C   UNL     1       0.535  -0.334  -0.369  0.00  0.00    +0.000 A 
ATOM     16  C   UNL     1       1.171   0.043   0.794  0.00  0.00    +0.000 A 
ATOM     17  C   UNL     1       2.543   0.147   0.885  0.00  0.00    +0.000 A 
BRANCH  12  19
ATOM     18  C   UNL     1       5.389   1.245  -0.450  0.00  0.00    +0.000 C 
ATOM     19  N   UNL     1       4.772  -0.024  -0.129  0.00  0.00    +0.000 N 
ATOM     20  C   UNL     1       5.613  -1.139   0.255  0.00  0.00    +0.000 C 
ENDBRANCH  12  19
ENDBRANCH   1  15
TORSDOF 2
