REMARK  Name = 
REMARK  3 active torsions:
REMARK  status: ('A' for Active; 'I' for Inactive)
REMARK    1  A    between atoms: C_10  and  C_11
REMARK    2  A    between atoms: C_11  and  C_12
REMARK    3  A    between atoms: C_12  and  N_13
REMARK                            x       y       z     vdW  Elec       q    Type
REMARK                         _______ _______ _______ _____ _____    ______ ____
ROOT
ATOM      1  C   UNL     1      -0.311   0.089   0.861  0.00  0.00    +0.000 C 
ENDROOT
BRANCH   1  11
ATOM      2  C   UNL     1      -1.319   3.017   0.634  0.00  0.00    +0.000 C 
ATOM      3  C   UNL     1      -2.143   1.794   0.499  0.00  0.00    +0.000 A 
ATOM      4  N   UNL     1      -3.479   1.768   0.253  0.00  0.00    +0.000 NA
ATOM      5  C   UNL     1      -3.894   0.491   0.195  0.00  0.00    +0.000 A 
ATOM      6  C   UNL     1      -5.139  -0.078  -0.028  0.00  0.00    +0.000 A 
ATOM      7  C   UNL     1      -5.244  -1.452  -0.028  0.00  0.00    +0.000 A 
ATOM      8  C   UNL     1      -4.167  -2.277   0.183  0.00  0.00    +0.000 A 
ATOM      9  C   UNL     1      -2.948  -1.683   0.400  0.00  0.00    +0.000 A 
ATOM     10  C   UNL     1      -2.778  -0.316   0.412  0.00  0.00    +0.000 A 
ATOM     11  C   UNL     1      -1.689   0.503   0.602  0.00  0.00    +0.000 A 
ENDBRANCH   1  11
BRANCH   1  12
ATOM     12  C   UNL     1       0.524   0.241  -0.365  0.00  0.00    +0.000 C 
BRANCH  12  13
ATOM     13  N   UNL     1       1.898  -0.161  -0.152  0.00  0.00    +0.000 N 
ATOM     14  C   UNL     1       2.404  -1.478  -0.351  0.00  0.00    +0.000 C 
ATOM     15  O   UNL     1       1.693  -2.534  -0.416  0.00  0.00    +0.000 OA
ATOM     16  O   UNL     1       3.808  -1.413  -0.461  0.00  0.00    +0.000 OA
ATOM     17  C   UNL     1       4.113  -0.040  -0.632  0.00  0.00    +0.000 C 
ATOM     18  C   UNL     1       5.500   0.327  -0.218  0.00  0.00    +0.000 C 
ATOM     19  C   UNL     1       3.809   0.368  -2.074  0.00  0.00    +0.000 C 
ATOM     20  C   UNL     1       3.056   0.594   0.286  0.00  0.00    +0.000 C 
ATOM     21  C   UNL     1       2.937   2.059   0.121  0.00  0.00    +0.000 C 
ATOM     22  O   UNL     1       3.372   0.181   1.585  0.00  0.00    +0.000 OA
ENDBRANCH  12  13
ENDBRANCH   1  12
TORSDOF 3
