REMARK  Name = 
REMARK  2 active torsions:
REMARK  status: ('A' for Active; 'I' for Inactive)
REMARK    1  A    between atoms: C_6  and  C_7
REMARK    2  A    between atoms: C_8  and  C_9
REMARK                            x       y       z     vdW  Elec       q    Type
REMARK                         _______ _______ _______ _____ _____    ______ ____
ROOT
ATOM      1  C   UNL     1      -0.386   0.445   0.895  0.00  0.00    +0.000 C 
ATOM      2  C   UNL     1      -0.392   1.491  -0.235  0.00  0.00    +0.000 C 
ATOM      3  C   UNL     1      -0.849   1.286  -1.418  0.00  0.00    +0.000 C 
ATOM      4  N   UNL     1      -0.778   2.371  -2.337  0.00  0.00    +0.000 NA
ATOM      5  O   UNL     1      -1.374   0.044  -1.745  0.00  0.00    +0.000 OA
ATOM      6  C   UNL     1      -1.409  -0.957  -0.830  0.00  0.00    +0.000 C 
ATOM      7  C   UNL     1      -0.980  -0.827   0.352  0.00  0.00    +0.000 C 
ATOM      8  C   UNL     1      -1.058  -1.988   1.272  0.00  0.00    +0.000 C 
ATOM      9  C   UNL     1      -2.437  -2.576   1.139  0.00  0.00    +0.000 C 
ATOM     10  C   UNL     1      -2.958  -2.701  -0.243  0.00  0.00    +0.000 C 
ATOM     11  C   UNL     1      -1.998  -2.272  -1.296  0.00  0.00    +0.000 C 
ENDROOT
BRANCH   1  17
ATOM     12  C   UNL     1       1.716  -0.039  -1.522  0.00  0.00    +0.000 C 
ATOM     13  C   UNL     1       2.034  -0.097  -0.037  0.00  0.00    +0.000 A 
ATOM     14  C   UNL     1       3.291  -0.370   0.358  0.00  0.00    +0.000 A 
ATOM     15  C   UNL     1       3.557  -0.408   1.671  0.00  0.00    +0.000 A 
ATOM     16  S   UNL     1       2.053  -0.063   2.378  0.00  0.00    +0.000 S 
ATOM     17  C   UNL     1       1.145   0.116   0.922  0.00  0.00    +0.000 A 
ENDBRANCH   1  17
BRANCH   2  18
ATOM     18  C   UNL     1       0.185   2.763   0.182  0.00  0.00    +0.000 C 
ATOM     19  N   UNL     1       0.638   3.782   0.495  0.00  0.00    +0.000 NA
ENDBRANCH   2  18
TORSDOF 2
