REMARK  Name = 
REMARK  5 active torsions:
REMARK  status: ('A' for Active; 'I' for Inactive)
REMARK    1  A    between atoms: C_2  and  O_5
REMARK    2  A    between atoms: O_5  and  C_6
REMARK    3  A    between atoms: N_8  and  C_9
REMARK    4  A    between atoms: C_9  and  C_10
REMARK    5  A    between atoms: C_10  and  C_11
REMARK                            x       y       z     vdW  Elec       q    Type
REMARK                         _______ _______ _______ _____ _____    ______ ____
ROOT
ATOM      1  C   UNL     1       1.002   0.405  -0.884  0.00  0.00    +0.000 C 
ENDROOT
BRANCH   1   2
ATOM      2  C   UNL     1       1.499   0.460   0.686  0.00  0.00    +0.000 C 
ATOM      3  C   UNL     1       1.324  -1.154   0.918  0.00  0.00    +0.000 C 
ATOM      4  N   UNL     1       2.528  -1.296   1.726  0.00  0.00    +0.000 NA
ATOM      5  C   UNL     1       3.590  -0.663   0.996  0.00  0.00    +0.000 A 
ATOM      6  C   UNL     1       4.935  -0.923   0.870  0.00  0.00    +0.000 A 
ATOM      7  C   UNL     1       5.694  -0.107   0.050  0.00  0.00    +0.000 A 
ATOM      8  C   UNL     1       5.130   0.946  -0.632  0.00  0.00    +0.000 A 
ATOM      9  C   UNL     1       3.783   1.194  -0.495  0.00  0.00    +0.000 A 
ATOM     10  C   UNL     1       3.047   0.371   0.325  0.00  0.00    +0.000 A 
ENDBRANCH   1   2
BRANCH   1  11
ATOM     11  C   UNL     1      -0.365  -0.127  -0.893  0.00  0.00    +0.000 C 
BRANCH  11  14
ATOM     12  C   UNL     1      -2.676   0.130  -0.160  0.00  0.00    +0.000 C 
ATOM     13  O   UNL     1      -2.973  -0.941  -0.780  0.00  0.00    +0.000 OA
ATOM     14  N   UNL     1      -1.337   0.631  -0.164  0.00  0.00    +0.000 NA
BRANCH  12  15
ATOM     15  O   UNL     1      -3.715   0.757   0.501  0.00  0.00    +0.000 OA
BRANCH  15  17
ATOM     16  C   UNL     1      -5.442   0.196  -0.996  0.00  0.00    +0.000 C 
ATOM     17  C   UNL     1      -5.050   0.223   0.482  0.00  0.00    +0.000 C 
ATOM     18  C   UNL     1      -5.982   1.087   1.280  0.00  0.00    +0.000 C 
ATOM     19  C   UNL     1      -4.993  -1.189   0.978  0.00  0.00    +0.000 C 
ENDBRANCH  15  17
ENDBRANCH  12  15
ENDBRANCH  11  14
ENDBRANCH   1  11
TORSDOF 5
