REMARK  Name = 
REMARK  3 active torsions:
REMARK  status: ('A' for Active; 'I' for Inactive)
REMARK    1  A    between atoms: C_2  and  C_4
REMARK    2  A    between atoms: C_8  and  C_9
REMARK    3  A    between atoms: N_11  and  C_12
REMARK                            x       y       z     vdW  Elec       q    Type
REMARK                         _______ _______ _______ _____ _____    ______ ____
ROOT
ATOM      1  C   UNL     1      -2.993   0.224  -0.556  0.00  0.00    +0.000 A 
ATOM      2  C   UNL     1      -2.846   0.541  -1.901  0.00  0.00    +0.000 A 
ATOM      3  C   UNL     1      -4.003   0.732  -2.817  0.00  0.00    +0.000 C 
ATOM      4  N   UNL     1      -1.524   0.631  -2.177  0.00  0.00    +0.000 NA
ATOM      5  C   UNL     1      -0.791   0.390  -1.083  0.00  0.00    +0.000 A 
ATOM      6  C   UNL     1      -1.701   0.137  -0.078  0.00  0.00    +0.000 A 
ATOM      7  C   UNL     1      -1.380  -0.187   1.337  0.00  0.00    +0.000 C 
ENDROOT
BRANCH   1   9
ATOM      8  C   UNL     1      -4.205  -0.305   1.604  0.00  0.00    +0.000 C 
ATOM      9  C   UNL     1      -4.242   0.029   0.171  0.00  0.00    +0.000 C 
ATOM     10  O   UNL     1      -5.353   0.141  -0.401  0.00  0.00    +0.000 OA
ENDBRANCH   1   9
BRANCH   5  11
ATOM     11  C   UNL     1       0.673   0.386  -0.945  0.00  0.00    +0.000 C 
ATOM     12  O   UNL     1       1.435   0.622  -1.891  0.00  0.00    +0.000 OA
ATOM     13  N   UNL     1       1.248   0.102   0.322  0.00  0.00    +0.000 NA
BRANCH  13  14
ATOM     14  C   UNL     1       2.628   0.070   0.575  0.00  0.00    +0.000 A 
ATOM     15  C   UNL     1       3.556   0.313  -0.387  0.00  0.00    +0.000 A 
ATOM     16  C   UNL     1       4.899   0.276  -0.114  0.00  0.00    +0.000 A 
ATOM     17  C   UNL     1       5.319  -0.018   1.178  0.00  0.00    +0.000 A 
ATOM     18  C   UNL     1       4.385  -0.267   2.163  0.00  0.00    +0.000 A 
ATOM     19  C   UNL     1       3.038  -0.223   1.865  0.00  0.00    +0.000 A 
ATOM     20 CL   UNL     1       1.857  -0.543   3.135  0.00  0.00    +0.000 Cl
ENDBRANCH  13  14
ENDBRANCH   5  11
TORSDOF 3
