REMARK  Name = 
REMARK  4 active torsions:
REMARK  status: ('A' for Active; 'I' for Inactive)
REMARK    1  A    between atoms: C_3  and  C_4
REMARK    2  A    between atoms: C_5  and  C_6
REMARK    3  A    between atoms: C_10  and  C_11
REMARK    4  A    between atoms: C_18  and  C_19
REMARK                            x       y       z     vdW  Elec       q    Type
REMARK                         _______ _______ _______ _____ _____    ______ ____
ROOT
ATOM      1  C   UNL     1      -0.557   0.271   0.225  0.00  0.00    +0.000 C 
ATOM      2  C   UNL     1       0.563  -0.229  -0.271  0.00  0.00    +0.000 C 
ENDROOT
BRANCH   1   5
ATOM      3  C   UNL     1      -2.996   1.300   1.246  0.00  0.00    +0.000 C 
ATOM      4  C   UNL     1      -3.034   0.235   0.222  0.00  0.00    +0.000 A 
ATOM      5  C   UNL     1      -1.845  -0.245  -0.255  0.00  0.00    +0.000 A 
ATOM      6  C   UNL     1      -1.912  -1.244  -1.215  0.00  0.00    +0.000 A 
ATOM      7  C   UNL     1      -3.125  -1.740  -1.676  0.00  0.00    +0.000 A 
ATOM      8  C   UNL     1      -4.292  -1.211  -1.152  0.00  0.00    +0.000 A 
ATOM      9  C   UNL     1      -4.265  -0.216  -0.196  0.00  0.00    +0.000 A 
BRANCH   9  10
ATOM     10  C   UNL     1      -5.538   0.356   0.372  0.00  0.00    +0.000 C 
ATOM     11  O   UNL     1      -6.644  -0.235  -0.183  0.00  0.00    +0.000 OA
ENDBRANCH   9  10
ENDBRANCH   1   5
BRANCH   2  12
ATOM     12  C   UNL     1       1.859   0.259   0.183  0.00  0.00    +0.000 A 
ATOM     13  C   UNL     1       1.905   1.253   1.138  0.00  0.00    +0.000 A 
ATOM     14  C   UNL     1       3.139   1.716   1.568  0.00  0.00    +0.000 A 
ATOM     15  C   UNL     1       4.329   1.205   1.060  0.00  0.00    +0.000 A 
ATOM     16  C   UNL     1       4.282   0.209   0.103  0.00  0.00    +0.000 A 
ATOM     17  C   UNL     1       3.042  -0.228  -0.302  0.00  0.00    +0.000 A 
ATOM     18  C   UNL     1       2.974  -1.301  -1.333  0.00  0.00    +0.000 C 
BRANCH  16  19
ATOM     19  C   UNL     1       5.510  -0.391  -0.490  0.00  0.00    +0.000 C 
ATOM     20  O   UNL     1       6.607   0.236   0.099  0.00  0.00    +0.000 OA
ENDBRANCH  16  19
ENDBRANCH   2  12
TORSDOF 4
