REMARK  Name = 
REMARK  3 active torsions:
REMARK  status: ('A' for Active; 'I' for Inactive)
REMARK    1  A    between atoms: C_5  and  S_6
REMARK    2  A    between atoms: S_6  and  N_9
REMARK    3  A    between atoms: N_9  and  C_10
REMARK                            x       y       z     vdW  Elec       q    Type
REMARK                         _______ _______ _______ _____ _____    ______ ____
ROOT
ATOM      1  S   UNL     1      -1.020  -1.895   1.122  0.00  0.00    +0.000 S 
ATOM      2  O   UNL     1      -1.132  -2.722  -0.129  0.00  0.00    +0.000 OA
ATOM      3  O   UNL     1      -1.544  -2.705   2.268  0.00  0.00    +0.000 OA
ENDROOT
BRANCH   1   8
ATOM      4  C   UNL     1      -4.200   3.174   0.584  0.00  0.00    +0.000 C 
ATOM      5  C   UNL     1      -3.414   1.932   0.675  0.00  0.00    +0.000 A 
ATOM      6  C   UNL     1      -2.843   1.351  -0.434  0.00  0.00    +0.000 A 
ATOM      7  C   UNL     1      -2.101   0.173  -0.324  0.00  0.00    +0.000 A 
ATOM      8  C   UNL     1      -1.923  -0.434   0.886  0.00  0.00    +0.000 A 
ATOM      9  C   UNL     1      -2.499   0.152   2.004  0.00  0.00    +0.000 A 
ATOM     10  C   UNL     1      -3.225   1.307   1.891  0.00  0.00    +0.000 A 
ENDBRANCH   1   8
BRANCH   1  11
ATOM     11  N   UNL     1       0.631  -1.466   1.438  0.00  0.00    +0.000 NA
BRANCH  11  12
ATOM     12  C   UNL     1       1.417  -0.768   0.500  0.00  0.00    +0.000 A 
ATOM     13  C   UNL     1       2.189   0.295   0.971  0.00  0.00    +0.000 A 
ATOM     14  C   UNL     1       2.984   1.025   0.113  0.00  0.00    +0.000 A 
ATOM     15  C   UNL     1       3.021   0.706  -1.230  0.00  0.00    +0.000 A 
ATOM     16  C   UNL     1       2.267  -0.338  -1.715  0.00  0.00    +0.000 A 
ATOM     17  C   UNL     1       1.483  -1.049  -0.833  0.00  0.00    +0.000 A 
ATOM     18  C   UNL     1       2.475  -0.486  -3.189  0.00  0.00    +0.000 C 
ATOM     19  C   UNL     1       3.647   0.404  -3.502  0.00  0.00    +0.000 C 
ATOM     20  C   UNL     1       3.790   1.343  -2.319  0.00  0.00    +0.000 C 
ENDBRANCH  11  12
ENDBRANCH   1  11
TORSDOF 3
