REMARK  Name = 
REMARK  2 active torsions:
REMARK  status: ('A' for Active; 'I' for Inactive)
REMARK    1  A    between atoms: C_6  and  C_7
REMARK    2  A    between atoms: C_7  and  C_8
REMARK                            x       y       z     vdW  Elec       q    Type
REMARK                         _______ _______ _______ _____ _____    ______ ____
ROOT
ATOM      1  C   UNL     1      -1.829   4.163  -0.794  0.00  0.00    +0.000 C 
ATOM      2  N   UNL     1      -2.627   3.032  -1.133  0.00  0.00    +0.000 NA
ATOM      3  C   UNL     1      -2.261   1.687  -0.738  0.00  0.00    +0.000 A 
ATOM      4  N   UNL     1      -1.201   1.303  -0.045  0.00  0.00    +0.000 NA
ATOM      5  C   UNL     1      -1.030   0.036   0.222  0.00  0.00    +0.000 A 
ATOM      6  C   UNL     1       0.050  -0.505   0.947  0.00  0.00    +0.000 A 
ATOM      7  C   UNL     1       0.106  -1.857   1.157  0.00  0.00    +0.000 A 
ATOM      8  C   UNL     1       1.252  -2.468   1.930  0.00  0.00    +0.000 C 
ATOM      9  C   UNL     1      -0.831  -2.768   0.707  0.00  0.00    +0.000 A 
ATOM     10  O   UNL     1      -0.773  -4.124   0.919  0.00  0.00    +0.000 OA
ATOM     11  C   UNL     1      -1.897  -2.224  -0.010  0.00  0.00    +0.000 A 
ATOM     12  C   UNL     1      -2.991  -3.041  -0.568  0.00  0.00    +0.000 C 
ATOM     13  C   UNL     1      -1.974  -0.841  -0.237  0.00  0.00    +0.000 A 
ATOM     14  S   UNL     1      -3.064   0.212  -1.033  0.00  0.00    +0.000 S 
ENDROOT
BRANCH   6  15
ATOM     15  C   UNL     1       1.148   0.327   1.493  0.00  0.00    +0.000 C 
BRANCH  15  16
ATOM     16  C   UNL     1       2.105   0.745   0.440  0.00  0.00    +0.000 A 
ATOM     17  C   UNL     1       3.232   0.017   0.094  0.00  0.00    +0.000 A 
ATOM     18  C   UNL     1       4.091   0.449  -0.900  0.00  0.00    +0.000 A 
ATOM     19  C   UNL     1       3.848   1.622  -1.578  0.00  0.00    +0.000 A 
ATOM     20  N   UNL     1       2.752   2.322  -1.236  0.00  0.00    +0.000 NA
ATOM     21  C   UNL     1       1.893   1.913  -0.259  0.00  0.00    +0.000 A 
ENDBRANCH  15  16
ENDBRANCH   6  15
TORSDOF 2
