REMARK  Name = 
REMARK  2 active torsions:
REMARK  status: ('A' for Active; 'I' for Inactive)
REMARK    1  A    between atoms: N_13  and  C_14
REMARK    2  A    between atoms: C_14  and  C_15
REMARK                            x       y       z     vdW  Elec       q    Type
REMARK                         _______ _______ _______ _____ _____    ______ ____
ROOT
ATOM      1  O   UNL     1      -0.429  -0.474  -3.277  0.00  0.00    +0.000 OA
ATOM      2  C   UNL     1       0.297  -0.272  -2.247  0.00  0.00    +0.000 C 
ATOM      3  N   UNL     1       1.613   0.278  -2.219  0.00  0.00    +0.000 NA
ATOM      4  C   UNL     1       2.122   0.082  -0.879  0.00  0.00    +0.000 C 
ATOM      5  C   UNL     1       2.779   1.331  -0.325  0.00  0.00    +0.000 C 
ATOM      6  C   UNL     1       2.860   1.122   1.193  0.00  0.00    +0.000 C 
ATOM      7  C   UNL     1       4.218   0.604   1.594  0.00  0.00    +0.000 C 
ATOM      8  C   UNL     1       4.388  -0.857   1.363  0.00  0.00    +0.000 C 
ATOM      9  C   UNL     1       3.245  -1.500   0.623  0.00  0.00    +0.000 C 
ATOM     10  C   UNL     1       3.142  -1.033  -0.805  0.00  0.00    +0.000 C 
ATOM     11  C   UNL     1       0.918  -0.228  -0.053  0.00  0.00    +0.000 C 
ATOM     12  O   UNL     1       0.889  -0.170   1.204  0.00  0.00    +0.000 OA
ATOM     13  N   UNL     1      -0.144  -0.586  -0.936  0.00  0.00    +0.000 N 
ENDROOT
BRANCH  13  14
ATOM     14  C   UNL     1      -1.387  -1.153  -0.484  0.00  0.00    +0.000 C 
BRANCH  14  15
ATOM     15  C   UNL     1      -2.412  -0.143  -0.178  0.00  0.00    +0.000 A 
ATOM     16  C   UNL     1      -2.208   1.208  -0.309  0.00  0.00    +0.000 A 
ATOM     17  C   UNL     1      -3.194   2.125  -0.012  0.00  0.00    +0.000 A 
ATOM     18  C   UNL     1      -4.425   1.714   0.428  0.00  0.00    +0.000 A 
ATOM     19  C   UNL     1      -4.655   0.364   0.568  0.00  0.00    +0.000 A 
ATOM     20  C   UNL     1      -3.646  -0.557   0.264  0.00  0.00    +0.000 A 
ATOM     21  F   UNL     1      -3.970  -1.856   0.433  0.00  0.00    +0.000 F 
ENDBRANCH  14  15
ENDBRANCH  13  14
TORSDOF 2
