REMARK  Name = 
REMARK  3 active torsions:
REMARK  status: ('A' for Active; 'I' for Inactive)
REMARK    1  A    between atoms: O_2  and  C_3
REMARK    2  A    between atoms: C_8  and  O_9
REMARK    3  A    between atoms: C_11  and  C_12
REMARK                            x       y       z     vdW  Elec       q    Type
REMARK                         _______ _______ _______ _____ _____    ______ ____
ROOT
ATOM      1  C   UNL     1       2.643   0.714  -0.264  0.00  0.00    +0.000 A 
ATOM      2  C   UNL     1       1.840   1.716  -0.740  0.00  0.00    +0.000 A 
ATOM      3  C   UNL     1       0.464   1.456  -0.986  0.00  0.00    +0.000 A 
ATOM      4  C   UNL     1      -0.058   0.257  -0.764  0.00  0.00    +0.000 A 
ATOM      5  C   UNL     1       0.763  -0.770  -0.276  0.00  0.00    +0.000 A 
ATOM      6  C   UNL     1       2.109  -0.532  -0.030  0.00  0.00    +0.000 A 
ATOM      7  C   UNL     1      -1.534  -0.174  -1.013  0.00  0.00    +0.000 C 
ATOM      8  C   UNL     1      -2.372   1.214  -0.883  0.00  0.00    +0.000 C 
ATOM      9  C   UNL     1      -1.712   2.242  -1.666  0.00  0.00    +0.000 C 
ATOM     10  O   UNL     1      -2.432   2.844  -2.510  0.00  0.00    +0.000 OA
ATOM     11  N   UNL     1      -0.347   2.506  -1.451  0.00  0.00    +0.000 NA
ENDROOT
BRANCH   7  12
ATOM     12  C   UNL     1      -1.853  -0.727   0.458  0.00  0.00    +0.000 A 
ATOM     13  C   UNL     1      -2.367   0.033   1.413  0.00  0.00    +0.000 A 
ATOM     14  C   UNL     1      -2.608  -0.468   2.662  0.00  0.00    +0.000 A 
ATOM     15  C   UNL     1      -2.310  -1.779   2.916  0.00  0.00    +0.000 A 
ATOM     16  C   UNL     1      -1.776  -2.558   1.913  0.00  0.00    +0.000 A 
ATOM     17  C   UNL     1      -1.535  -2.047   0.658  0.00  0.00    +0.000 A 
ATOM     18  F   UNL     1      -1.022  -2.773  -0.357  0.00  0.00    +0.000 F 
ENDBRANCH   7  12
BRANCH   1  20
ATOM     19  C   UNL     1       4.577   2.218  -0.246  0.00  0.00    +0.000 C 
ATOM     20  O   UNL     1       4.002   0.970  -0.021  0.00  0.00    +0.000 OA
ENDBRANCH   1  20
BRANCH   6  21
ATOM     21  O   UNL     1       2.968  -1.508   0.451  0.00  0.00    +0.000 OA
ATOM     22  C   UNL     1       2.560  -2.833   0.737  0.00  0.00    +0.000 C 
ENDBRANCH   6  21
TORSDOF 3
