REMARK  Name = 
REMARK  5 active torsions:
REMARK  status: ('A' for Active; 'I' for Inactive)
REMARK    1  A    between atoms: C_7  and  C_8
REMARK    2  A    between atoms: C_15  and  C_16
REMARK    3  A    between atoms: C_16  and  O_18
REMARK    4  A    between atoms: O_18  and  C_19
REMARK    5  A    between atoms: C_19  and  C_20
REMARK                            x       y       z     vdW  Elec       q    Type
REMARK                         _______ _______ _______ _____ _____    ______ ____
ROOT
ATOM      1  C   UNL     1       2.478  -1.437  -0.629  0.00  0.00    +0.000 C 
ATOM      2  C   UNL     1       1.447  -1.528   0.103  0.00  0.00    +0.000 C 
ATOM      3  N   UNL     1       0.962  -2.763   0.567  0.00  0.00    +0.000 NA
ATOM      4  C   UNL     1      -0.427  -2.941   0.955  0.00  0.00    +0.000 C 
ATOM      5  O   UNL     1      -0.844  -4.056   1.368  0.00  0.00    +0.000 OA
ATOM      6  N   UNL     1      -1.276  -1.800   0.842  0.00  0.00    +0.000 NA
ATOM      7  C   UNL     1      -0.782  -0.837  -0.311  0.00  0.00    +0.000 C 
ATOM      8  C   UNL     1       0.551  -0.355   0.615  0.00  0.00    +0.000 C 
ENDROOT
BRANCH   7   9
ATOM      9  C   UNL     1      -1.686   0.391   0.062  0.00  0.00    +0.000 A 
ATOM     10  C   UNL     1      -1.400   1.358   0.917  0.00  0.00    +0.000 A 
ATOM     11  C   UNL     1      -2.300   2.374   1.149  0.00  0.00    +0.000 A 
ATOM     12  C   UNL     1      -3.517   2.414   0.502  0.00  0.00    +0.000 A 
ATOM     13  C   UNL     1      -3.780   1.392  -0.380  0.00  0.00    +0.000 A 
ATOM     14  C   UNL     1      -2.886   0.371  -0.618  0.00  0.00    +0.000 A 
ATOM     15  O   UNL     1      -3.236  -0.631  -1.534  0.00  0.00    +0.000 OA
ENDBRANCH   7   9
BRANCH   8  16
ATOM     16  C   UNL     1       1.060   0.792  -0.343  0.00  0.00    +0.000 C 
ATOM     17  O   UNL     1       0.402   1.384  -1.141  0.00  0.00    +0.000 OA
BRANCH  16  18
ATOM     18  O   UNL     1       2.406   1.074  -0.175  0.00  0.00    +0.000 OA
BRANCH  18  19
ATOM     19  C   UNL     1       3.099   2.062  -0.916  0.00  0.00    +0.000 C 
BRANCH  19  20
ATOM     20  C   UNL     1       4.541   2.036  -0.414  0.00  0.00    +0.000 C 
ATOM     21  C   UNL     1       5.189   0.700  -0.619  0.00  0.00    +0.000 C 
ENDBRANCH  19  20
ENDBRANCH  18  19
ENDBRANCH  16  18
ENDBRANCH   8  16
TORSDOF 5
