REMARK  Name = 
REMARK  4 active torsions:
REMARK  status: ('A' for Active; 'I' for Inactive)
REMARK    1  A    between atoms: C_7  and  N_8
REMARK    2  A    between atoms: N_8  and  C_9
REMARK    3  A    between atoms: C_9  and  N_11
REMARK    4  A    between atoms: C_12  and  C_14
REMARK                            x       y       z     vdW  Elec       q    Type
REMARK                         _______ _______ _______ _____ _____    ______ ____
ROOT
ATOM      1  C   UNL     1      -0.650   0.117  -0.187  0.00  0.00    +0.000 C 
ATOM      2  S   UNL     1      -0.990   1.150  -1.405  0.00  0.00    +0.000 S 
ENDROOT
BRANCH   1   3
ATOM      3  N   UNL     1       0.723  -0.120   0.096  0.00  0.00    +0.000 NA
ATOM      4  C   UNL     1       1.784   0.477  -0.603  0.00  0.00    +0.000 C 
ATOM      5  O   UNL     1       1.542   1.274  -1.544  0.00  0.00    +0.000 OA
BRANCH   4   6
ATOM      6  C   UNL     1       3.201   0.200  -0.273  0.00  0.00    +0.000 A 
ATOM      7  C   UNL     1       4.220   0.792  -0.968  0.00  0.00    +0.000 A 
ATOM      8  C   UNL     1       5.514   0.517  -0.640  0.00  0.00    +0.000 A 
ATOM      9  C   UNL     1       5.833  -0.346   0.377  0.00  0.00    +0.000 A 
ATOM     10  C   UNL     1       4.826  -0.957   1.094  0.00  0.00    +0.000 A 
ATOM     11  C   UNL     1       3.523  -0.665   0.746  0.00  0.00    +0.000 A 
ENDBRANCH   4   6
ENDBRANCH   1   3
BRANCH   1  12
ATOM     12  N   UNL     1      -1.652  -0.521   0.562  0.00  0.00    +0.000 NA
BRANCH  12  19
ATOM     13  C   UNL     1      -3.413  -2.254  -1.327  0.00  0.00    +0.000 C 
ATOM     14  C   UNL     1      -3.821  -1.127  -0.466  0.00  0.00    +0.000 A 
ATOM     15  N   UNL     1      -5.077  -0.665  -0.370  0.00  0.00    +0.000 NA
ATOM     16  N   UNL     1      -5.130   0.349   0.479  0.00  0.00    +0.000 NA
ATOM     17  C   UNL     1      -3.890   0.550   0.942  0.00  0.00    +0.000 A 
ATOM     18  C   UNL     1      -3.511   1.590   1.915  0.00  0.00    +0.000 C 
ATOM     19  C   UNL     1      -3.032  -0.362   0.370  0.00  0.00    +0.000 A 
ENDBRANCH  12  19
ENDBRANCH   1  12
TORSDOF 4
