REMARK  Name = 
REMARK  3 active torsions:
REMARK  status: ('A' for Active; 'I' for Inactive)
REMARK    1  A    between atoms: C_2  and  C_11
REMARK    2  A    between atoms: N_3  and  C_4
REMARK    3  A    between atoms: C_15  and  N_16
REMARK                            x       y       z     vdW  Elec       q    Type
REMARK                         _______ _______ _______ _____ _____    ______ ____
ROOT
ATOM      1  O   UNL     1       0.562  -0.550   1.290  0.00  0.00    +0.000 OA
ATOM      2  C   UNL     1       0.187   0.054   0.246  0.00  0.00    +0.000 C 
ATOM      3  N   UNL     1       1.170   0.194  -0.801  0.00  0.00    +0.000 NA
ENDROOT
BRANCH   3   4
ATOM      4  C   UNL     1       2.499  -0.303  -0.724  0.00  0.00    +0.000 C 
ATOM      5  C   UNL     1       3.535   0.768  -0.938  0.00  0.00    +0.000 C 
ATOM      6  C   UNL     1       4.806   0.175  -1.513  0.00  0.00    +0.000 C 
ATOM      7  C   UNL     1       4.976  -1.266  -1.032  0.00  0.00    +0.000 C 
ATOM      8  C   UNL     1       5.201  -1.300   0.445  0.00  0.00    +0.000 C 
ATOM      9  C   UNL     1       4.079  -0.553   1.163  0.00  0.00    +0.000 C 
ATOM     10  C   UNL     1       2.779  -1.015   0.571  0.00  0.00    +0.000 C 
ENDBRANCH   3   4
BRANCH   2  11
ATOM     11  C   UNL     1      -1.170   0.574   0.127  0.00  0.00    +0.000 A 
ATOM     12  C   UNL     1      -1.428   1.813  -0.399  0.00  0.00    +0.000 A 
ATOM     13  C   UNL     1      -2.740   2.295  -0.523  0.00  0.00    +0.000 A 
ATOM     14  C   UNL     1      -3.791   1.511  -0.110  0.00  0.00    +0.000 A 
ATOM     15  C   UNL     1      -3.546   0.263   0.419  0.00  0.00    +0.000 A 
ATOM     16  C   UNL     1      -2.255  -0.173   0.526  0.00  0.00    +0.000 A 
BRANCH  15  17
ATOM     17  N   UNL     1      -4.604  -0.590   0.852  0.00  0.00    +0.000 N 
ATOM     18  O   UNL     1      -4.343  -1.715   1.306  0.00  0.00    +0.000 OA
ATOM     19  O   UNL     1      -5.917  -0.181   0.769  0.00  0.00    +0.000 OA
ENDBRANCH  15  17
ENDBRANCH   2  11
TORSDOF 3
