REMARK  Name = 
REMARK  3 active torsions:
REMARK  status: ('A' for Active; 'I' for Inactive)
REMARK    1  A    between atoms: C_2  and  C_13
REMARK    2  A    between atoms: N_3  and  C_4
REMARK    3  A    between atoms: C_8  and  N_9
REMARK                            x       y       z     vdW  Elec       q    Type
REMARK                         _______ _______ _______ _____ _____    ______ ____
ROOT
ATOM      1  O   UNL     1       0.232   1.429   0.000  0.00  0.00    +0.000 OA
ATOM      2  C   UNL     1      -0.515   0.129   0.000  0.00  0.00    +0.000 C 
ATOM      3  N   UNL     1       0.237  -1.169   0.000  0.00  0.00    +0.000 NA
ENDROOT
BRANCH   2   4
ATOM      4  C   UNL     1      -2.015   0.125   0.000  0.00  0.00    +0.000 C 
ATOM      5  C   UNL     1      -3.313  -0.627   0.000  0.00  0.00    +0.000 C 
ATOM      6  C   UNL     1      -4.738  -1.094   0.000  0.00  0.00    +0.000 C 
ATOM      7  C   UNL     1      -6.166  -0.634   0.000  0.00  0.00    +0.000 C 
ATOM      8  C   UNL     1      -6.169   0.866   0.000  0.00  0.00    +0.000 C 
ATOM      9  C   UNL     1      -4.744   1.333   0.000  0.00  0.00    +0.000 C 
ATOM     10  C   UNL     1      -3.859   0.121   0.000  0.00  0.00    +0.000 C 
ATOM     11  C   UNL     1      -3.316   0.873   0.000  0.00  0.00    +0.000 C 
ENDBRANCH   2   4
BRANCH   3  12
ATOM     12  C   UNL     1       1.738  -1.165   0.000  0.00  0.00    +0.000 A 
ATOM     13  C   UNL     1       2.490  -2.463   0.000  0.00  0.00    +0.000 A 
ATOM     14  C   UNL     1       3.990  -2.459   0.000  0.00  0.00    +0.000 A 
ATOM     15  C   UNL     1       4.737  -1.159   0.000  0.00  0.00    +0.000 A 
ATOM     16  C   UNL     1       3.985   0.139   0.000  0.00  0.00    +0.000 A 
ATOM     17  C   UNL     1       2.485   0.135   0.000  0.00  0.00    +0.000 A 
BRANCH  16  18
ATOM     18  N   UNL     1       4.732   1.440   0.000  0.00  0.00    +0.000 N 
ATOM     19  O   UNL     1       3.979   2.737   0.000  0.00  0.00    +0.000 OA
ATOM     20  O   UNL     1       6.232   1.443   0.000  0.00  0.00    +0.000 OA
ENDBRANCH  16  18
ENDBRANCH   3  12
TORSDOF 3
