REMARK  Name = 
REMARK  4 active torsions:
REMARK  status: ('A' for Active; 'I' for Inactive)
REMARK    1  A    between atoms: C_2  and  N_3
REMARK    2  A    between atoms: N_3  and  C_4
REMARK    3  A    between atoms: C_6  and  C_8
REMARK    4  A    between atoms: C_12  and  C_13
REMARK                            x       y       z     vdW  Elec       q    Type
REMARK                         _______ _______ _______ _____ _____    ______ ____
ROOT
ATOM      1  C   UNL     1       0.752  -0.714   0.810  0.00  0.00    +0.000 A 
ATOM      2  C   UNL     1       0.176  -1.328   1.939  0.00  0.00    +0.000 A 
ATOM      3  N   UNL     1       0.816  -2.116   2.957  0.00  0.00    +0.000 NA
ATOM      4  S   UNL     1      -1.460  -0.927   1.839  0.00  0.00    +0.000 S 
ATOM      5  C   UNL     1      -1.444  -0.010   0.419  0.00  0.00    +0.000 A 
ATOM      6  C   UNL     1      -0.126  -0.036   0.042  0.00  0.00    +0.000 A 
ATOM      7  C   UNL     1       0.217   0.680  -1.261  0.00  0.00    +0.000 C 
ENDROOT
BRANCH   5   8
ATOM      8  C   UNL     1      -2.568   0.668  -0.268  0.00  0.00    +0.000 A 
ATOM      9  C   UNL     1      -3.825   0.571   0.280  0.00  0.00    +0.000 A 
ATOM     10  C   UNL     1      -4.923   1.173  -0.299  0.00  0.00    +0.000 A 
ATOM     11  C   UNL     1      -4.789   1.899  -1.460  0.00  0.00    +0.000 A 
ATOM     12  C   UNL     1      -3.531   1.997  -2.010  0.00  0.00    +0.000 A 
ATOM     13  C   UNL     1      -2.416   1.387  -1.424  0.00  0.00    +0.000 A 
ENDBRANCH   5   8
BRANCH   1  15
ATOM     14  N   UNL     1       3.046  -0.365  -0.347  0.00  0.00    +0.000 N 
ATOM     15  C   UNL     1       2.196  -0.927   0.600  0.00  0.00    +0.000 C 
ATOM     16  O   UNL     1       2.806  -1.758   1.402  0.00  0.00    +0.000 OA
BRANCH  14  18
ATOM     17  C   UNL     1       3.154   2.017  -0.832  0.00  0.00    +0.000 C 
ATOM     18  C   UNL     1       2.820   0.621  -1.368  0.00  0.00    +0.000 C 
ENDBRANCH  14  18
BRANCH  14  19
ATOM     19  C   UNL     1       4.491  -0.828  -0.373  0.00  0.00    +0.000 C 
ATOM     20  C   UNL     1       4.609  -2.002  -1.298  0.00  0.00    +0.000 C 
ENDBRANCH  14  19
ENDBRANCH   1  15
TORSDOF 4
