REMARK  Name = 
REMARK  1 active torsions:
REMARK  status: ('A' for Active; 'I' for Inactive)
REMARK    1  A    between atoms: C_4  and  C_5
REMARK                            x       y       z     vdW  Elec       q    Type
REMARK                         _______ _______ _______ _____ _____    ______ ____
ROOT
ATOM      1  O   UNL     1       0.784  -0.531   2.610  0.00  0.00    +0.000 OA
ATOM      2  C   UNL     1       0.313  -0.255   1.479  0.00  0.00    +0.000 C 
ATOM      3  N   UNL     1      -1.089  -0.346   1.224  0.00  0.00    +0.000 NA
ATOM      4  C   UNL     1      -1.434  -0.929  -0.203  0.00  0.00    +0.000 C 
ATOM      5  N   UNL     1      -0.836   0.323  -0.945  0.00  0.00    +0.000 NA
ATOM      6  C   UNL     1       0.577   0.440  -0.776  0.00  0.00    +0.000 A 
ATOM      7  S   UNL     1       1.873   0.914  -1.829  0.00  0.00    +0.000 S 
ATOM      8  C   UNL     1       3.174   0.750  -0.731  0.00  0.00    +0.000 A 
ATOM      9  C   UNL     1       2.553   0.330   0.420  0.00  0.00    +0.000 A 
ATOM     10  C   UNL     1       1.232   0.175   0.391  0.00  0.00    +0.000 A 
ATOM     11  C   UNL     1       3.558   0.123   1.537  0.00  0.00    +0.000 C 
ATOM     12  C   UNL     1       4.655  -0.780   0.991  0.00  0.00    +0.000 C 
ATOM     13  C   UNL     1       5.413  -0.156  -0.132  0.00  0.00    +0.000 C 
ATOM     14  C   UNL     1       4.642   0.950  -0.790  0.00  0.00    +0.000 C 
ENDROOT
BRANCH   4  15
ATOM     15  C   UNL     1      -2.951  -0.454  -0.251  0.00  0.00    +0.000 A 
ATOM     16  C   UNL     1      -3.782  -1.431  -0.698  0.00  0.00    +0.000 A 
ATOM     17  C   UNL     1      -5.145  -1.097  -0.773  0.00  0.00    +0.000 A 
ATOM     18  N   UNL     1      -5.531   0.138  -0.405  0.00  0.00    +0.000 NA
ATOM     19  C   UNL     1      -4.681   1.066   0.029  0.00  0.00    +0.000 A 
ATOM     20  C   UNL     1      -3.326   0.768   0.114  0.00  0.00    +0.000 A 
ENDBRANCH   4  15
TORSDOF 1
