REMARK  Name = 
REMARK  4 active torsions:
REMARK  status: ('A' for Active; 'I' for Inactive)
REMARK    1  A    between atoms: O_2  and  C_3
REMARK    2  A    between atoms: C_7  and  N_8
REMARK    3  A    between atoms: C_11  and  N_12
REMARK    4  A    between atoms: N_12  and  C_13
REMARK                            x       y       z     vdW  Elec       q    Type
REMARK                         _______ _______ _______ _____ _____    ______ ____
ROOT
ATOM      1  C   UNL     1       3.767  -1.282   1.104  0.00  0.00    +0.000 A 
ATOM      2  C   UNL     1       4.249  -0.007   0.824  0.00  0.00    +0.000 A 
ATOM      3  C   UNL     1       3.362   0.972   0.365  0.00  0.00    +0.000 A 
ATOM      4  C   UNL     1       2.024   0.695   0.188  0.00  0.00    +0.000 A 
ATOM      5  C   UNL     1       0.961   1.460  -0.242  0.00  0.00    +0.000 A 
ATOM      6  C   UNL     1      -0.171   0.670  -0.229  0.00  0.00    +0.000 A 
ATOM      7  N   UNL     1       0.205  -0.541   0.198  0.00  0.00    +0.000 NA
ATOM      8  C   UNL     1       1.536  -0.565   0.463  0.00  0.00    +0.000 A 
ATOM      9  C   UNL     1       2.422  -1.512   0.911  0.00  0.00    +0.000 A 
ENDROOT
BRANCH   5  10
ATOM     10  N   UNL     1       1.035   2.827  -0.628  0.00  0.00    +0.000 N 
ATOM     11  O   UNL     1       2.109   3.439  -0.600  0.00  0.00    +0.000 OA
ATOM     12  O   UNL     1      -0.085   3.506  -1.044  0.00  0.00    +0.000 OA
ENDBRANCH   5  10
BRANCH   1  14
ATOM     13  C   UNL     1       4.076  -3.551   1.829  0.00  0.00    +0.000 C 
ATOM     14  O   UNL     1       4.642  -2.280   1.566  0.00  0.00    +0.000 OA
ENDBRANCH   1  14
BRANCH   6  15
ATOM     15  N   UNL     1      -1.471   1.125  -0.614  0.00  0.00    +0.000 NA
BRANCH  15  16
ATOM     16  C   UNL     1      -2.609   0.298  -0.592  0.00  0.00    +0.000 A 
ATOM     17  C   UNL     1      -2.562  -1.015  -0.198  0.00  0.00    +0.000 A 
ATOM     18  C   UNL     1      -3.719  -1.800  -0.192  0.00  0.00    +0.000 A 
ATOM     19  C   UNL     1      -4.928  -1.266  -0.582  0.00  0.00    +0.000 A 
ATOM     20  F   UNL     1      -6.048  -2.062  -0.565  0.00  0.00    +0.000 F 
ATOM     21  C   UNL     1      -4.977   0.053  -0.978  0.00  0.00    +0.000 A 
ATOM     22  C   UNL     1      -3.818   0.836  -0.983  0.00  0.00    +0.000 A 
ENDBRANCH  15  16
ENDBRANCH   6  15
TORSDOF 4
