REMARK  Name = 
REMARK  1 active torsions:
REMARK  status: ('A' for Active; 'I' for Inactive)
REMARK    1  A    between atoms: C_4  and  C_5
REMARK                            x       y       z     vdW  Elec       q    Type
REMARK                         _______ _______ _______ _____ _____    ______ ____
ROOT
ATOM      1  O   UNL     1       2.142   1.863  -1.667  0.00  0.00    +0.000 OA
ATOM      2  C   UNL     1       1.454   0.917  -1.218  0.00  0.00    +0.000 C 
ATOM      3  N   UNL     1       0.108   0.931  -1.490  0.00  0.00    +0.000 NA
ATOM      4  C   UNL     1      -0.642  -0.458  -1.687  0.00  0.00    +0.000 C 
ATOM      5  N   UNL     1      -0.183  -1.047  -0.322  0.00  0.00    +0.000 NA
ATOM      6  C   UNL     1       1.179  -1.137  -0.005  0.00  0.00    +0.000 A 
ATOM      7  S   UNL     1       2.170  -2.234   0.866  0.00  0.00    +0.000 S 
ATOM      8  C   UNL     1       3.676  -1.455   0.679  0.00  0.00    +0.000 A 
ATOM      9  C   UNL     1       3.358  -0.357  -0.062  0.00  0.00    +0.000 A 
ATOM     10  C   UNL     1       2.044  -0.198  -0.416  0.00  0.00    +0.000 A 
ATOM     11  C   UNL     1       4.579   0.499  -0.350  0.00  0.00    +0.000 C 
ATOM     12  C   UNL     1       5.346   0.769   0.925  0.00  0.00    +0.000 C 
ATOM     13  C   UNL     1       5.623  -0.458   1.726  0.00  0.00    +0.000 C 
ATOM     14  C   UNL     1       5.098  -1.725   1.124  0.00  0.00    +0.000 C 
ENDROOT
BRANCH   4  15
ATOM     15  C   UNL     1      -2.021   0.129  -1.133  0.00  0.00    +0.000 A 
ATOM     16  C   UNL     1      -2.463   1.331  -1.551  0.00  0.00    +0.000 A 
ATOM     17  C   UNL     1      -3.669   1.790  -1.067  0.00  0.00    +0.000 A 
ATOM     18  C   UNL     1      -4.431   1.067  -0.177  0.00  0.00    +0.000 A 
ATOM     19  C   UNL     1      -3.942  -0.156   0.225  0.00  0.00    +0.000 A 
ATOM     20  C   UNL     1      -2.747  -0.615  -0.252  0.00  0.00    +0.000 A 
ATOM     21  O   UNL     1      -4.880  -0.683   1.111  0.00  0.00    +0.000 OA
ATOM     22  C   UNL     1      -6.141  -0.029   0.897  0.00  0.00    +0.000 C 
ATOM     23  O   UNL     1      -5.659   1.256   0.476  0.00  0.00    +0.000 OA
ENDBRANCH   4  15
TORSDOF 1
