REMARK  Name = 
REMARK  0 active torsions:
REMARK  status: ('A' for Active; 'I' for Inactive)
REMARK                            x       y       z     vdW  Elec       q    Type
REMARK                         _______ _______ _______ _____ _____    ______ ____
ROOT
ATOM      1  C   UNL     1      -3.440   3.341  -0.017  0.00  0.00    +0.000 C 
ATOM      2  C   UNL     1      -2.810   2.000  -0.255  0.00  0.00    +0.000 A 
ATOM      3  C   UNL     1      -2.822   1.305  -1.444  0.00  0.00    +0.000 A 
ATOM      4  C   UNL     1      -2.135   0.133  -1.222  0.00  0.00    +0.000 A 
ATOM      5  N   UNL     1      -1.889  -0.899  -2.157  0.00  0.00    +0.000 NA
ATOM      6  N   UNL     1      -1.721   0.118   0.059  0.00  0.00    +0.000 N 
ATOM      7  C   UNL     1      -0.980  -0.903   0.702  0.00  0.00    +0.000 A 
ATOM      8  N   UNL     1      -1.607  -1.776   1.480  0.00  0.00    +0.000 NA
ATOM      9  C   UNL     1      -1.074  -2.785   2.151  0.00  0.00    +0.000 A 
ATOM     10  N   UNL     1       0.279  -2.925   2.013  0.00  0.00    +0.000 NA
ATOM     11  C   UNL     1       0.993  -2.063   1.228  0.00  0.00    +0.000 A 
ATOM     12  S   UNL     1       2.640  -1.927   0.828  0.00  0.00    +0.000 S 
ATOM     13  C   UNL     1       2.570  -0.566  -0.195  0.00  0.00    +0.000 A 
ATOM     14  C   UNL     1       1.239  -0.249  -0.196  0.00  0.00    +0.000 A 
ATOM     15  C   UNL     1       0.418  -1.031   0.547  0.00  0.00    +0.000 A 
ATOM     16  C   UNL     1       0.732   0.936  -1.010  0.00  0.00    +0.000 C 
ATOM     17  C   UNL     1       1.429   2.155  -0.466  0.00  0.00    +0.000 C 
ATOM     18  C   UNL     1       2.739   2.290  -1.246  0.00  0.00    +0.000 C 
ATOM     19  C   UNL     1       3.833   1.538  -0.531  0.00  0.00    +0.000 C 
ATOM     20  C   UNL     1       3.740   0.068  -0.888  0.00  0.00    +0.000 C 
ATOM     21  N   UNL     1      -2.134   1.241   0.618  0.00  0.00    +0.000 NA
ENDROOT
TORSDOF 0
