REMARK  Name = 
REMARK  4 active torsions:
REMARK  status: ('A' for Active; 'I' for Inactive)
REMARK    1  A    between atoms: C_6  and  C_7
REMARK    2  A    between atoms: N_8  and  N_9
REMARK    3  A    between atoms: N_9  and  C_10
REMARK    4  A    between atoms: C_13  and  N_14
REMARK                            x       y       z     vdW  Elec       q    Type
REMARK                         _______ _______ _______ _____ _____    ______ ____
ROOT
ATOM      1  N   UNL     1       0.131  -1.743   0.011  0.00  0.00    +0.000 NA
ENDROOT
BRANCH   1   2
ATOM      2  C   UNL     1       1.421  -1.130   0.036  0.00  0.00    +0.000 A 
ATOM      3  C   UNL     1       2.393  -1.395  -0.943  0.00  0.00    +0.000 A 
ATOM      4  C   UNL     1       3.611  -0.768  -0.880  0.00  0.00    +0.000 A 
ATOM      5  C   UNL     1       3.938   0.102   0.085  0.00  0.00    +0.000 A 
ATOM      6  C   UNL     1       2.976   0.383   1.078  0.00  0.00    +0.000 A 
ATOM      7  C   UNL     1       1.763  -0.244   1.013  0.00  0.00    +0.000 A 
BRANCH   5   8
ATOM      8  N   UNL     1       5.168   0.804   0.216  0.00  0.00    +0.000 N 
ATOM      9  O   UNL     1       5.343   1.655   1.121  0.00  0.00    +0.000 OA
ATOM     10  O   UNL     1       6.165   0.517  -0.703  0.00  0.00    +0.000 OA
ENDBRANCH   5   8
ENDBRANCH   1   2
BRANCH   1  12
ATOM     11  C   UNL     1      -2.035  -0.963   0.380  0.00  0.00    +0.000 C 
ATOM     12  N   UNL     1      -0.996  -0.966  -0.394  0.00  0.00    +0.000 NA
BRANCH  11  18
ATOM     13  C   UNL     1      -6.590   0.961   0.740  0.00  0.00    +0.000 C 
ATOM     14  C   UNL     1      -5.238   0.669   0.180  0.00  0.00    +0.000 A 
ATOM     15  C   UNL     1      -4.677   1.135  -1.001  0.00  0.00    +0.000 A 
ATOM     16  C   UNL     1      -3.413   0.581  -1.069  0.00  0.00    +0.000 A 
ATOM     17  C   UNL     1      -2.370   0.741  -2.113  0.00  0.00    +0.000 C 
ATOM     18  C   UNL     1      -3.240  -0.199   0.061  0.00  0.00    +0.000 A 
ATOM     19  N   UNL     1      -4.351  -0.141   0.814  0.00  0.00    +0.000 NA
ENDBRANCH  11  18
ENDBRANCH   1  12
TORSDOF 4
