REMARK  Name = 
REMARK  3 active torsions:
REMARK  status: ('A' for Active; 'I' for Inactive)
REMARK    1  A    between atoms: C_6  and  N_7
REMARK    2  A    between atoms: C_8  and  C_10
REMARK    3  A    between atoms: C_15  and  N_16
REMARK                            x       y       z     vdW  Elec       q    Type
REMARK                         _______ _______ _______ _____ _____    ______ ____
ROOT
ATOM      1  N   UNL     1       0.513  -0.410  -0.636  0.00  0.00    +0.000 NA
ATOM      2  C   UNL     1      -0.564  -0.276   0.300  0.00  0.00    +0.000 C 
ATOM      3  O   UNL     1      -0.372   0.288   1.403  0.00  0.00    +0.000 OA
ENDROOT
BRANCH   1   9
ATOM      4  C   UNL     1       5.810   1.206   0.586  0.00  0.00    +0.000 C 
ATOM      5  C   UNL     1       4.394   0.844   0.231  0.00  0.00    +0.000 A 
ATOM      6  C   UNL     1       3.546   1.713  -0.406  0.00  0.00    +0.000 A 
ATOM      7  C   UNL     1       2.259   1.327  -0.707  0.00  0.00    +0.000 A 
ATOM      8  C   UNL     1       1.307   2.243  -1.400  0.00  0.00    +0.000 C 
ATOM      9  C   UNL     1       1.823   0.077  -0.370  0.00  0.00    +0.000 A 
ATOM     10  C   UNL     1       2.691  -0.802   0.278  0.00  0.00    +0.000 A 
ATOM     11  C   UNL     1       2.209  -2.172   0.646  0.00  0.00    +0.000 C 
ATOM     12  C   UNL     1       3.985  -0.429   0.586  0.00  0.00    +0.000 A 
ENDBRANCH   1   9
BRANCH   2  13
ATOM     13  C   UNL     1      -1.861  -0.814  -0.084  0.00  0.00    +0.000 A 
ATOM     14  C   UNL     1      -1.952  -2.112  -0.622  0.00  0.00    +0.000 A 
ATOM     15  C   UNL     1      -3.121  -2.688  -0.995  0.00  0.00    +0.000 A 
ATOM     16  C   UNL     1      -4.296  -1.993  -0.851  0.00  0.00    +0.000 A 
ATOM     17  C   UNL     1      -4.238  -0.724  -0.329  0.00  0.00    +0.000 A 
ATOM     18  C   UNL     1      -3.034  -0.120   0.058  0.00  0.00    +0.000 A 
BRANCH  18  19
ATOM     19  N   UNL     1      -3.017   1.191   0.589  0.00  0.00    +0.000 N 
ATOM     20  O   UNL     1      -4.069   1.564   1.194  0.00  0.00    +0.000 OA
ATOM     21  O   UNL     1      -2.011   2.087   0.525  0.00  0.00    +0.000 OA
ENDBRANCH  18  19
ENDBRANCH   2  13
TORSDOF 3
