REMARK  Name = 
REMARK  3 active torsions:
REMARK  status: ('A' for Active; 'I' for Inactive)
REMARK    1  A    between atoms: C_8  and  C_9
REMARK    2  A    between atoms: N_11  and  N_12
REMARK    3  A    between atoms: C_13  and  C_14
REMARK                            x       y       z     vdW  Elec       q    Type
REMARK                         _______ _______ _______ _____ _____    ______ ____
ROOT
ATOM      1  C   UNL     1      -0.432  -0.606   1.175  0.00  0.00    +0.000 C 
ATOM      2  O   UNL     1      -1.363  -0.277   0.433  0.00  0.00    +0.000 OA
ATOM      3  N   UNL     1       0.864  -0.151   0.918  0.00  0.00    +0.000 NA
ENDROOT
BRANCH   1  11
ATOM      4  C   UNL     1      -3.113  -1.294   1.290  0.00  0.00    +0.000 C 
ATOM      5  C   UNL     1      -2.325  -1.838   2.346  0.00  0.00    +0.000 C 
ATOM      6  C   UNL     1      -2.739  -2.916   3.231  0.00  0.00    +0.000 C 
ATOM      7  C   UNL     1      -1.571  -3.549   3.939  0.00  0.00    +0.000 C 
ATOM      8  C   UNL     1      -1.017  -2.464   4.850  0.00  0.00    +0.000 C 
ATOM      9  C   UNL     1      -1.735  -1.237   4.738  0.00  0.00    +0.000 C 
ATOM     10  C   UNL     1      -1.760  -0.538   3.279  0.00  0.00    +0.000 C 
ATOM     11  C   UNL     1      -0.672  -1.538   2.421  0.00  0.00    +0.000 C 
ENDBRANCH   1  11
BRANCH   3  12
ATOM     12  N   UNL     1       1.022   0.673  -0.199  0.00  0.00    +0.000 NA
ATOM     13  C   UNL     1       1.565   0.246  -1.302  0.00  0.00    +0.000 C 
BRANCH  13  14
ATOM     14  C   UNL     1       1.694   1.169  -2.423  0.00  0.00    +0.000 A 
ATOM     15  C   UNL     1       1.281   2.484  -2.413  0.00  0.00    +0.000 A 
ATOM     16  C   UNL     1       1.429   3.314  -3.506  0.00  0.00    +0.000 A 
ATOM     17  C   UNL     1       2.002   2.857  -4.665  0.00  0.00    +0.000 A 
ATOM     18  O   UNL     1       2.184   3.624  -5.799  0.00  0.00    +0.000 OA
ATOM     19  C   UNL     1       2.424   1.551  -4.709  0.00  0.00    +0.000 A 
ATOM     20  C   UNL     1       2.264   0.746  -3.605  0.00  0.00    +0.000 A 
ENDBRANCH  13  14
ENDBRANCH   3  12
TORSDOF 3
