REMARK  Name = 
REMARK  4 active torsions:
REMARK  status: ('A' for Active; 'I' for Inactive)
REMARK    1  A    between atoms: C_2  and  N_3
REMARK    2  A    between atoms: C_2  and  N_12
REMARK    3  A    between atoms: N_3  and  N_4
REMARK    4  A    between atoms: N_12  and  C_13
REMARK                            x       y       z     vdW  Elec       q    Type
REMARK                         _______ _______ _______ _____ _____    ______ ____
ROOT
ATOM      1  S   UNL     1       1.635  -2.006  -1.076  0.00  0.00    +0.000 S 
ATOM      2  C   UNL     1       0.806  -0.763  -0.424  0.00  0.00    +0.000 C 
ENDROOT
BRANCH   2   3
ATOM      3  N   UNL     1      -0.613  -0.773  -0.506  0.00  0.00    +0.000 NA
BRANCH   3   4
ATOM      4  N   UNL     1      -1.349   0.292   0.051  0.00  0.00    +0.000 NA
ATOM      5  C   UNL     1      -2.632   0.291   0.058  0.00  0.00    +0.000 C 
ATOM      6  C   UNL     1      -3.244  -0.904  -0.559  0.00  0.00    +0.000 C 
ATOM      7  C   UNL     1      -3.998  -1.645   0.522  0.00  0.00    +0.000 C 
ATOM      8  C   UNL     1      -4.475  -0.699   1.604  0.00  0.00    +0.000 C 
ATOM      9  C   UNL     1      -5.464   0.256   0.950  0.00  0.00    +0.000 C 
ATOM     10  C   UNL     1      -4.759   1.503   0.457  0.00  0.00    +0.000 C 
ATOM     11  C   UNL     1      -3.281   1.446   0.660  0.00  0.00    +0.000 C 
ENDBRANCH   3   4
ENDBRANCH   2   3
BRANCH   2  12
ATOM     12  N   UNL     1       1.510   0.303   0.211  0.00  0.00    +0.000 NA
BRANCH  12  13
ATOM     13  C   UNL     1       2.917   0.341   0.307  0.00  0.00    +0.000 A 
ATOM     14  C   UNL     1       3.497   1.415   0.939  0.00  0.00    +0.000 A 
ATOM     15  C   UNL     1       4.856   1.526   1.074  0.00  0.00    +0.000 A 
ATOM     16  C   UNL     1       5.696   0.573   0.586  0.00  0.00    +0.000 A 
ATOM     17  C   UNL     1       5.141  -0.525  -0.059  0.00  0.00    +0.000 A 
ATOM     18  C   UNL     1       3.758  -0.629  -0.192  0.00  0.00    +0.000 A 
ENDBRANCH  12  13
ENDBRANCH   2  12
TORSDOF 4
