REMARK  Name = 
REMARK  7 active torsions:
REMARK  status: ('A' for Active; 'I' for Inactive)
REMARK    1  A    between atoms: C_2  and  N_3
REMARK    2  A    between atoms: C_2  and  C_27
REMARK    3  A    between atoms: C_4  and  C_6
REMARK    4  A    between atoms: C_6  and  N_7
REMARK    5  A    between atoms: C_10  and  C_11
REMARK    6  A    between atoms: N_16  and  C_17
REMARK    7  A    between atoms: C_17  and  C_18
REMARK                            x       y       z     vdW  Elec       q    Type
REMARK                         _______ _______ _______ _____ _____    ______ ____
ROOT
ATOM      1  N   UNL     1      -0.835  -1.744  -0.330  0.00  0.00    +0.000 NA
ATOM      2  C   UNL     1      -0.423  -1.553   1.041  0.00  0.00    +0.000 C 
ATOM      3  C   UNL     1       1.037  -1.170   1.059  0.00  0.00    +0.000 C 
ATOM      4  C   UNL     1       1.200   0.023   0.206  0.00  0.00    +0.000 C 
ATOM      5  C   UNL     1       0.843  -0.227  -1.193  0.00  0.00    +0.000 C 
ATOM      6  C   UNL     1       0.319  -1.680  -1.240  0.00  0.00    +0.000 C 
ENDROOT
BRANCH   4   7
ATOM      7  C   UNL     1       2.084   1.073   0.585  0.00  0.00    +0.000 A 
ATOM      8  N   UNL     1       1.762   2.399   0.503  0.00  0.00    +0.000 NA
ATOM      9  N   UNL     1       2.768   3.111   0.936  0.00  0.00    +0.000 NA
ATOM     10  C   UNL     1       3.768   2.285   1.310  0.00  0.00    +0.000 A 
ATOM     11  O   UNL     1       4.994   2.674   1.822  0.00  0.00    +0.000 OA
ATOM     12  N   UNL     1       3.346   1.039   1.094  0.00  0.00    +0.000 N 
BRANCH  12  13
ATOM     13  C   UNL     1       4.027  -0.219   1.325  0.00  0.00    +0.000 C 
BRANCH  13  14
ATOM     14  C   UNL     1       4.810  -0.529   0.072  0.00  0.00    +0.000 A 
ATOM     15  C   UNL     1       4.220  -1.143  -1.010  0.00  0.00    +0.000 A 
ATOM     16  C   UNL     1       4.928  -1.431  -2.179  0.00  0.00    +0.000 A 
ATOM     17  C   UNL     1       6.257  -1.059  -2.172  0.00  0.00    +0.000 A 
ATOM     18  C   UNL     1       6.877  -0.448  -1.115  0.00  0.00    +0.000 A 
ATOM     19  F   UNL     1       8.184  -0.124  -1.208  0.00  0.00    +0.000 F 
ATOM     20  C   UNL     1       6.144  -0.183   0.015  0.00  0.00    +0.000 A 
ENDBRANCH  13  14
ENDBRANCH  12  13
ENDBRANCH   4   7
BRANCH   1  21
ATOM     21  C   UNL     1      -1.767  -0.678  -0.641  0.00  0.00    +0.000 C 
BRANCH  21  23
ATOM     22  N   UNL     1      -4.039   0.018   0.028  0.00  0.00    +0.000 NA
ATOM     23  C   UNL     1      -2.987  -0.896   0.168  0.00  0.00    +0.000 C 
ATOM     24  O   UNL     1      -3.043  -1.874   0.945  0.00  0.00    +0.000 OA
BRANCH  22  26
ATOM     25  C   UNL     1      -5.486  -1.815   0.480  0.00  0.00    +0.000 C 
ATOM     26  C   UNL     1      -5.333  -0.222   0.905  0.00  0.00    +0.000 C 
BRANCH  26  27
ATOM     27  C   UNL     1      -6.382   0.277  -0.220  0.00  0.00    +0.000 A 
ATOM     28  C   UNL     1      -7.351   1.145   0.226  0.00  0.00    +0.000 A 
ATOM     29  C   UNL     1      -8.271   1.604  -0.687  0.00  0.00    +0.000 A 
ATOM     30  C   UNL     1      -8.179   1.179  -1.991  0.00  0.00    +0.000 A 
ATOM     31  C   UNL     1      -7.202   0.317  -2.398  0.00  0.00    +0.000 A 
ATOM     32  C   UNL     1      -6.270  -0.148  -1.471  0.00  0.00    +0.000 A 
ENDBRANCH  26  27
ENDBRANCH  22  26
ENDBRANCH  21  23
ENDBRANCH   1  21
TORSDOF 7
