REMARK  Name = 
REMARK  4 active torsions:
REMARK  status: ('A' for Active; 'I' for Inactive)
REMARK    1  A    between atoms: C_2  and  C_4
REMARK    2  A    between atoms: C_6  and  C_7
REMARK    3  A    between atoms: N_9  and  N_10
REMARK    4  A    between atoms: C_11  and  C_12
REMARK                            x       y       z     vdW  Elec       q    Type
REMARK                         _______ _______ _______ _____ _____    ______ ____
ROOT
ATOM      1  C   UNL     1       0.744   0.021  -0.132  0.00  0.00    +0.000 C 
ATOM      2  O   UNL     1       0.565   1.223  -0.449  0.00  0.00    +0.000 OA
ATOM      3  N   UNL     1      -0.388  -0.801   0.071  0.00  0.00    +0.000 NA
ENDROOT
BRANCH   1   6
ATOM      4  C   UNL     1       4.427  -0.435   0.026  0.00  0.00    +0.000 A 
ATOM      5  C   UNL     1       3.234   0.181  -0.148  0.00  0.00    +0.000 A 
ATOM      6  C   UNL     1       2.108  -0.544   0.030  0.00  0.00    +0.000 A 
ATOM      7  C   UNL     1       2.292  -1.859   0.377  0.00  0.00    +0.000 A 
ATOM      8  S   UNL     1       3.983  -2.027   0.438  0.00  0.00    +0.000 S 
BRANCH   4  10
ATOM      9  C   UNL     1       6.741  -0.917  -0.586  0.00  0.00    +0.000 C 
ATOM     10  C   UNL     1       5.813   0.168  -0.117  0.00  0.00    +0.000 C 
ATOM     11  C   UNL     1       5.681   1.302  -1.104  0.00  0.00    +0.000 C 
ENDBRANCH   4  10
ENDBRANCH   1   6
BRANCH   3  12
ATOM     12  N   UNL     1      -1.675  -0.260  -0.084  0.00  0.00    +0.000 NA
ATOM     13  C   UNL     1      -2.587  -0.412   0.784  0.00  0.00    +0.000 C 
BRANCH  13  14
ATOM     14  C   UNL     1      -3.896   0.176   0.558  0.00  0.00    +0.000 A 
ATOM     15  C   UNL     1      -4.169   0.900  -0.585  0.00  0.00    +0.000 A 
ATOM     16  C   UNL     1      -5.432   1.438  -0.748  0.00  0.00    +0.000 A 
ATOM     17  C   UNL     1      -6.399   1.256   0.208  0.00  0.00    +0.000 A 
ATOM     18  N   UNL     1      -6.135   0.555   1.315  0.00  0.00    +0.000 NA
ATOM     19  C   UNL     1      -4.908   0.034   1.473  0.00  0.00    +0.000 A 
ENDBRANCH  13  14
ENDBRANCH   3  12
TORSDOF 4
