REMARK  Name = 
REMARK  3 active torsions:
REMARK  status: ('A' for Active; 'I' for Inactive)
REMARK    1  A    between atoms: C_2  and  O_3
REMARK    2  A    between atoms: O_3  and  C_4
REMARK    3  A    between atoms: C_4  and  C_6
REMARK                            x       y       z     vdW  Elec       q    Type
REMARK                         _______ _______ _______ _____ _____    ______ ____
ROOT
ATOM      1  C   UNL     1       1.260  -0.593  -0.580  0.00  0.00    +0.000 A 
ATOM      2  C   UNL     1       0.840  -0.418  -1.872  0.00  0.00    +0.000 A 
ATOM      3  C   UNL     1       1.701  -0.647  -3.067  0.00  0.00    +0.000 C 
ATOM      4  N   UNL     1      -0.453  -0.016  -1.833  0.00  0.00    +0.000 N 
ATOM      5  C   UNL     1      -1.198   0.257  -3.023  0.00  0.00    +0.000 C 
ATOM      6  C   UNL     1      -0.846   0.064  -0.544  0.00  0.00    +0.000 A 
ATOM      7  C   UNL     1       0.205  -0.292   0.278  0.00  0.00    +0.000 A 
ATOM      8  C   UNL     1       0.105  -0.307   1.666  0.00  0.00    +0.000 A 
ATOM      9  C   UNL     1      -1.093   0.048   2.244  0.00  0.00    +0.000 A 
ATOM     10  O   UNL     1      -1.275   0.059   3.621  0.00  0.00    +0.000 OA
ATOM     11  C   UNL     1      -2.157   0.407   1.426  0.00  0.00    +0.000 A 
ATOM     12  O   UNL     1      -3.391   0.784   1.694  0.00  0.00    +0.000 OA
ATOM     13  C   UNL     1      -4.072   1.032   0.628  0.00  0.00    +0.000 A 
ATOM     14  C   UNL     1      -3.242   0.810  -0.475  0.00  0.00    +0.000 A 
ATOM     15  C   UNL     1      -3.655   0.987  -1.904  0.00  0.00    +0.000 C 
ATOM     16  C   UNL     1      -2.050   0.420   0.048  0.00  0.00    +0.000 A 
ENDROOT
BRANCH   1  17
ATOM     17  C   UNL     1       2.575  -1.020  -0.080  0.00  0.00    +0.000 C 
ATOM     18  O   UNL     1       2.876  -2.213   0.119  0.00  0.00    +0.000 OA
BRANCH  17  19
ATOM     19  O   UNL     1       3.524  -0.058   0.182  0.00  0.00    +0.000 OA
BRANCH  19  21
ATOM     20  C   UNL     1       5.522   1.026   0.808  0.00  0.00    +0.000 C 
ATOM     21  C   UNL     1       4.824  -0.330   0.665  0.00  0.00    +0.000 C 
ENDBRANCH  19  21
ENDBRANCH  17  19
ENDBRANCH   1  17
TORSDOF 3
