REMARK  Name = 
REMARK  3 active torsions:
REMARK  status: ('A' for Active; 'I' for Inactive)
REMARK    1  A    between atoms: C_2  and  C_3
REMARK    2  A    between atoms: C_3  and  C_4
REMARK    3  A    between atoms: N_11  and  C_12
REMARK                            x       y       z     vdW  Elec       q    Type
REMARK                         _______ _______ _______ _____ _____    ______ ____
ROOT
ATOM      1  O   UNL     1       0.645   0.189  -0.454  0.00  0.00    +0.000 OA
ATOM      2  C   UNL     1       0.780  -0.582   0.531  0.00  0.00    +0.000 C 
ATOM      3  N   UNL     1      -0.397  -0.921   1.246  0.00  0.00    +0.000 NA
ENDROOT
BRANCH   3   4
ATOM      4  C   UNL     1      -1.661  -0.406   0.856  0.00  0.00    +0.000 A 
ATOM      5  C   UNL     1      -1.733   0.431  -0.231  0.00  0.00    +0.000 A 
ATOM      6  C   UNL     1      -2.934   0.971  -0.668  0.00  0.00    +0.000 A 
ATOM      7  C   UNL     1      -4.098   0.664   0.002  0.00  0.00    +0.000 A 
ATOM      8  C   UNL     1      -4.038  -0.171   1.088  0.00  0.00    +0.000 A 
ATOM      9  C   UNL     1      -2.828  -0.700   1.509  0.00  0.00    +0.000 A 
ATOM     10  C   UNL     1      -5.390  -0.369   1.658  0.00  0.00    +0.000 C 
ATOM     11  C   UNL     1      -6.270   0.630   0.953  0.00  0.00    +0.000 C 
ATOM     12  C   UNL     1      -5.492   1.099  -0.254  0.00  0.00    +0.000 C 
ENDBRANCH   3   4
BRANCH   2  13
ATOM     13  C   UNL     1       2.125  -1.115   0.926  0.00  0.00    +0.000 C 
BRANCH  13  14
ATOM     14  C   UNL     1       3.179  -0.602   0.011  0.00  0.00    +0.000 A 
ATOM     15  C   UNL     1       3.852   0.575   0.271  0.00  0.00    +0.000 A 
ATOM     16  C   UNL     1       4.833   1.072  -0.561  0.00  0.00    +0.000 A 
ATOM     17  C   UNL     1       5.186   0.396  -1.710  0.00  0.00    +0.000 A 
ATOM     18  O   UNL     1       6.178   0.892  -2.556  0.00  0.00    +0.000 OA
ATOM     19  C   UNL     1       4.522  -0.783  -1.982  0.00  0.00    +0.000 A 
ATOM     20  C   UNL     1       3.542  -1.271  -1.142  0.00  0.00    +0.000 A 
ENDBRANCH  13  14
ENDBRANCH   2  13
TORSDOF 3
