REMARK  Name = 
REMARK  3 active torsions:
REMARK  status: ('A' for Active; 'I' for Inactive)
REMARK    1  A    between atoms: C_2  and  C_4
REMARK    2  A    between atoms: C_9  and  N_10
REMARK    3  A    between atoms: C_11  and  C_13
REMARK                            x       y       z     vdW  Elec       q    Type
REMARK                         _______ _______ _______ _____ _____    ______ ____
ROOT
ATOM      1  N   UNL     1      -0.310  -0.207   0.077  0.00  0.00    +0.000 NA
ATOM      2  C   UNL     1       0.860   0.388  -0.463  0.00  0.00    +0.000 C 
ATOM      3  O   UNL     1       0.732   1.322  -1.317  0.00  0.00    +0.000 OA
ENDROOT
BRANCH   2   4
ATOM      4  C   UNL     1       2.202  -0.002  -0.101  0.00  0.00    +0.000 A 
ATOM      5  C   UNL     1       2.464  -0.999   0.812  0.00  0.00    +0.000 A 
ATOM      6  C   UNL     1       3.731  -1.391   1.176  0.00  0.00    +0.000 A 
ATOM      7  C   UNL     1       4.821  -0.775   0.617  0.00  0.00    +0.000 A 
ATOM      8  C   UNL     1       4.602   0.225  -0.298  0.00  0.00    +0.000 A 
ATOM      9  C   UNL     1       3.305   0.608  -0.654  0.00  0.00    +0.000 A 
ATOM     10  N   UNL     1       3.171   1.649  -1.606  0.00  0.00    +0.000 NA
ENDBRANCH   2   4
BRANCH   1  16
ATOM     11  C   UNL     1      -2.778  -0.226   0.083  0.00  0.00    +0.000 A 
ATOM     12  C   UNL     1      -3.979   0.267  -0.372  0.00  0.00    +0.000 A 
ATOM     13  C   UNL     1      -4.041   1.279  -1.298  0.00  0.00    +0.000 A 
ATOM     14  C   UNL     1      -2.865   1.802  -1.771  0.00  0.00    +0.000 A 
ATOM     15  C   UNL     1      -1.677   1.296  -1.304  0.00  0.00    +0.000 A 
ATOM     16  C   UNL     1      -1.566   0.281  -0.376  0.00  0.00    +0.000 A 
BRANCH  11  18
ATOM     17  C   UNL     1      -4.096  -1.722   1.446  0.00  0.00    +0.000 C 
ATOM     18  C   UNL     1      -2.695  -1.324   1.088  0.00  0.00    +0.000 C 
ATOM     19  C   UNL     1      -1.883  -2.471   0.545  0.00  0.00    +0.000 C 
ENDBRANCH  11  18
ENDBRANCH   1  16
TORSDOF 3
