REMARK  Name = 
REMARK  3 active torsions:
REMARK  status: ('A' for Active; 'I' for Inactive)
REMARK    1  A    between atoms: C_2  and  C_14
REMARK    2  A    between atoms: N_3  and  C_4
REMARK    3  A    between atoms: C_17  and  N_18
REMARK                            x       y       z     vdW  Elec       q    Type
REMARK                         _______ _______ _______ _____ _____    ______ ____
ROOT
ATOM      1  O   UNL     1      -0.472  -0.216   1.478  0.00  0.00    +0.000 OA
ATOM      2  C   UNL     1       0.147  -0.089   0.392  0.00  0.00    +0.000 C 
ATOM      3  N   UNL     1      -0.628   0.034  -0.779  0.00  0.00    +0.000 NA
ENDROOT
BRANCH   3   4
ATOM      4  C   UNL     1      -2.075   0.015  -0.733  0.00  0.00    +0.000 C 
ATOM      5  C   UNL     1      -2.587  -1.297  -0.145  0.00  0.00    +0.000 C 
ATOM      6  C   UNL     1      -4.103  -1.231  -0.197  0.00  0.00    +0.000 C 
ATOM      7  C   UNL     1      -4.577  -0.013   0.585  0.00  0.00    +0.000 C 
ATOM      8  C   UNL     1      -4.065   1.262  -0.032  0.00  0.00    +0.000 C 
ATOM      9  C   UNL     1      -4.494   1.363  -1.487  0.00  0.00    +0.000 C 
ATOM     10  C   UNL     1      -4.060   0.128  -2.267  0.00  0.00    +0.000 C 
ATOM     11  C   UNL     1      -4.595  -1.135  -1.628  0.00  0.00    +0.000 C 
ATOM     12  C   UNL     1      -2.553   0.071  -2.183  0.00  0.00    +0.000 C 
ATOM     13  C   UNL     1      -2.541   1.207   0.054  0.00  0.00    +0.000 C 
ENDBRANCH   3   4
BRANCH   2  14
ATOM     14  C   UNL     1       1.596  -0.065   0.303  0.00  0.00    +0.000 A 
ATOM     15  C   UNL     1       2.414  -0.180   1.407  0.00  0.00    +0.000 A 
ATOM     16  C   UNL     1       3.807  -0.151   1.267  0.00  0.00    +0.000 A 
ATOM     17  C   UNL     1       4.369  -0.006   0.021  0.00  0.00    +0.000 A 
ATOM     18  C   UNL     1       3.571   0.111  -1.091  0.00  0.00    +0.000 A 
ATOM     19  C   UNL     1       2.204   0.079  -0.922  0.00  0.00    +0.000 A 
BRANCH  17  20
ATOM     20  N   UNL     1       5.771   0.023  -0.111  0.00  0.00    +0.000 N 
ATOM     21  O   UNL     1       6.515  -0.080   0.872  0.00  0.00    +0.000 OA
ATOM     22  O   UNL     1       6.356   0.169  -1.362  0.00  0.00    +0.000 OA
ENDBRANCH  17  20
ENDBRANCH   2  14
TORSDOF 3
