REMARK  Name = 
REMARK  3 active torsions:
REMARK  status: ('A' for Active; 'I' for Inactive)
REMARK    1  A    between atoms: C_2  and  C_4
REMARK    2  A    between atoms: C_2  and  C_12
REMARK    3  A    between atoms: C_12  and  C_15
REMARK                            x       y       z     vdW  Elec       q    Type
REMARK                         _______ _______ _______ _____ _____    ______ ____
ROOT
ATOM      1  C   UNL     1      -0.319  -1.737  -0.617  0.00  0.00    +0.000 C 
ATOM      2  C   UNL     1      -0.498  -0.282  -0.298  0.00  0.00    +0.000 C 
ATOM      3  C   UNL     1      -0.461   0.563  -1.579  0.00  0.00    +0.000 C 
ENDROOT
BRANCH   2   4
ATOM      4  C   UNL     1      -1.880  -0.123   0.224  0.00  0.00    +0.000 A 
ATOM      5  C   UNL     1      -2.051   0.368   1.491  0.00  0.00    +0.000 A 
ATOM      6  C   UNL     1      -3.340   0.509   1.960  0.00  0.00    +0.000 A 
ATOM      7  C   UNL     1      -4.415   0.176   1.198  0.00  0.00    +0.000 A 
ATOM      8  O   UNL     1      -5.739   0.313   1.659  0.00  0.00    +0.000 OA
ATOM      9  C   UNL     1      -4.260  -0.319  -0.076  0.00  0.00    +0.000 A 
ATOM     10  C   UNL     1      -2.954  -0.462  -0.550  0.00  0.00    +0.000 A 
ATOM     11  F   UNL     1      -2.752  -0.940  -1.789  0.00  0.00    +0.000 F 
ENDBRANCH   2   4
BRANCH   2  12
ATOM     12  C   UNL     1       0.518   0.202   0.682  0.00  0.00    +0.000 C 
ATOM     13  C   UNL     1       0.419  -0.602   1.994  0.00  0.00    +0.000 C 
ATOM     14  C   UNL     1       0.097   1.616   1.100  0.00  0.00    +0.000 C 
BRANCH  12  15
ATOM     15  C   UNL     1       1.914   0.210   0.259  0.00  0.00    +0.000 A 
ATOM     16  C   UNL     1       2.561   1.458   0.186  0.00  0.00    +0.000 A 
ATOM     17  C   UNL     1       3.853   1.601  -0.223  0.00  0.00    +0.000 A 
ATOM     18  C   UNL     1       4.587   0.493  -0.588  0.00  0.00    +0.000 A 
ATOM     19  O   UNL     1       5.915   0.663  -1.006  0.00  0.00    +0.000 OA
ATOM     20  C   UNL     1       3.995  -0.737  -0.530  0.00  0.00    +0.000 A 
ATOM     21  C   UNL     1       2.678  -0.855  -0.109  0.00  0.00    +0.000 A 
ATOM     22  F   UNL     1       2.131  -2.117  -0.036  0.00  0.00    +0.000 F 
ENDBRANCH  12  15
ENDBRANCH   2  12
TORSDOF 3
