REMARK  Name = 
REMARK  4 active torsions:
REMARK  status: ('A' for Active; 'I' for Inactive)
REMARK    1  A    between atoms: C_2  and  C_14
REMARK    2  A    between atoms: N_3  and  C_4
REMARK    3  A    between atoms: C_9  and  N_10
REMARK    4  A    between atoms: C_16  and  C_17
REMARK                            x       y       z     vdW  Elec       q    Type
REMARK                         _______ _______ _______ _____ _____    ______ ____
ROOT
ATOM      1  O   UNL     1      -1.173  -1.056  -1.775  0.00  0.00    +0.000 OA
ATOM      2  C   UNL     1      -0.905  -1.794  -0.844  0.00  0.00    +0.000 C 
ATOM      3  N   UNL     1       0.194  -1.546  -0.015  0.00  0.00    +0.000 NA
ENDROOT
BRANCH   3   4
ATOM      4  C   UNL     1       1.079  -0.434  -0.179  0.00  0.00    +0.000 A 
ATOM      5  C   UNL     1       0.905   0.491  -1.189  0.00  0.00    +0.000 A 
ATOM      6  C   UNL     1       1.727   1.577  -1.391  0.00  0.00    +0.000 A 
ATOM      7  C   UNL     1       2.796   1.784  -0.553  0.00  0.00    +0.000 A 
ATOM      8  F   UNL     1       3.653   2.814  -0.670  0.00  0.00    +0.000 F 
ATOM      9  C   UNL     1       2.998   0.871   0.474  0.00  0.00    +0.000 A 
ATOM     10  C   UNL     1       2.153  -0.212   0.651  0.00  0.00    +0.000 A 
BRANCH   9  11
ATOM     11  N   UNL     1       4.106   1.085   1.342  0.00  0.00    +0.000 N 
ATOM     12  O   UNL     1       4.615   0.103   1.897  0.00  0.00    +0.000 OA
ATOM     13  O   UNL     1       4.588   2.343   1.551  0.00  0.00    +0.000 OA
ENDBRANCH   9  11
ENDBRANCH   3   4
BRANCH   2  14
ATOM     14  C   UNL     1      -1.757  -3.073  -0.496  0.00  0.00    +0.000 C 
ATOM     15  C   UNL     1      -2.984  -3.002  -1.726  0.00  0.00    +0.000 C 
ATOM     16  C   UNL     1      -3.339  -2.498  -0.074  0.00  0.00    +0.000 C 
BRANCH  16  17
ATOM     17  C   UNL     1      -3.274  -0.917  -0.217  0.00  0.00    +0.000 A 
ATOM     18  C   UNL     1      -2.620  -0.370   0.853  0.00  0.00    +0.000 A 
ATOM     19  C   UNL     1      -2.453   1.027   0.922  0.00  0.00    +0.000 A 
ATOM     20  C   UNL     1      -2.958   1.797  -0.098  0.00  0.00    +0.000 A 
ATOM     21  C   UNL     1      -3.602   1.188  -1.140  0.00  0.00    +0.000 A 
ATOM     22  C   UNL     1      -3.750  -0.179  -1.179  0.00  0.00    +0.000 A 
ENDBRANCH  16  17
ENDBRANCH   2  14
TORSDOF 4
