REMARK  Name = 
REMARK  4 active torsions:
REMARK  status: ('A' for Active; 'I' for Inactive)
REMARK    1  A    between atoms: C_5  and  C_6
REMARK    2  A    between atoms: C_9  and  O_10
REMARK    3  A    between atoms: O_10  and  C_11
REMARK    4  A    between atoms: C_16  and  N_17
REMARK                            x       y       z     vdW  Elec       q    Type
REMARK                         _______ _______ _______ _____ _____    ______ ____
ROOT
ATOM      1  O   UNL     1      -0.702   0.145  -1.416  0.00  0.00    +0.000 OA
ENDROOT
BRANCH   1   7
ATOM      2  C   UNL     1      -4.610   2.733  -0.326  0.00  0.00    +0.000 C 
ATOM      3  C   UNL     1      -3.694   1.598   0.017  0.00  0.00    +0.000 A 
ATOM      4  C   UNL     1      -3.909   0.808   1.133  0.00  0.00    +0.000 A 
ATOM      5  C   UNL     1      -3.039  -0.227   1.409  0.00  0.00    +0.000 A 
ATOM      6  C   UNL     1      -1.966  -0.467   0.574  0.00  0.00    +0.000 A 
ATOM      7  C   UNL     1      -1.764   0.327  -0.531  0.00  0.00    +0.000 A 
ATOM      8  C   UNL     1      -2.631   1.377  -0.828  0.00  0.00    +0.000 A 
BRANCH   6   9
ATOM      9  C   UNL     1      -1.030  -1.601   0.816  0.00  0.00    +0.000 C 
ATOM     10  C   UNL     1      -1.289  -2.171   2.221  0.00  0.00    +0.000 C 
ATOM     11  C   UNL     1      -1.287  -2.714  -0.205  0.00  0.00    +0.000 C 
ENDBRANCH   6   9
ENDBRANCH   1   7
BRANCH   1  12
ATOM     12  C   UNL     1       0.608   0.274  -1.011  0.00  0.00    +0.000 A 
ATOM     13  C   UNL     1       1.201   1.522  -1.117  0.00  0.00    +0.000 A 
ATOM     14  C   UNL     1       2.505   1.766  -0.740  0.00  0.00    +0.000 A 
ATOM     15  N   UNL     1       3.041   3.074  -0.883  0.00  0.00    +0.000 NA
ATOM     16  C   UNL     1       3.231   0.706  -0.240  0.00  0.00    +0.000 A 
ATOM     17  C   UNL     1       2.700  -0.570  -0.107  0.00  0.00    +0.000 A 
ATOM     18  C   UNL     1       1.390  -0.735  -0.504  0.00  0.00    +0.000 A 
BRANCH  17  19
ATOM     19  N   UNL     1       3.476  -1.645   0.414  0.00  0.00    +0.000 N 
ATOM     20  O   UNL     1       2.997  -2.774   0.531  0.00  0.00    +0.000 OA
ATOM     21  O   UNL     1       4.772  -1.426   0.793  0.00  0.00    +0.000 OA
ENDBRANCH  17  19
ENDBRANCH   1  12
TORSDOF 4
