REMARK  Name = 
REMARK  4 active torsions:
REMARK  status: ('A' for Active; 'I' for Inactive)
REMARK    1  A    between atoms: O_2  and  C_3
REMARK    2  A    between atoms: C_6  and  C_7
REMARK    3  A    between atoms: C_11  and  N_12
REMARK    4  A    between atoms: C_20  and  O_21
REMARK                            x       y       z     vdW  Elec       q    Type
REMARK                         _______ _______ _______ _____ _____    ______ ____
ROOT
ATOM      1  C   UNL     1      -0.153  -0.046   0.144  0.00  0.00    +0.000 A 
ATOM      2  C   UNL     1       0.953  -0.558   0.810  0.00  0.00    +0.000 A 
ATOM      3  C   UNL     1       2.114  -0.027   0.280  0.00  0.00    +0.000 A 
ATOM      4  C   UNL     1       3.469  -0.183   0.554  0.00  0.00    +0.000 A 
ATOM      5  C   UNL     1       4.429   0.501  -0.167  0.00  0.00    +0.000 A 
ATOM      6  C   UNL     1       3.971   1.339  -1.161  0.00  0.00    +0.000 A 
ATOM      7  C   UNL     1       2.635   1.512  -1.453  0.00  0.00    +0.000 A 
ATOM      8  C   UNL     1       1.685   0.820  -0.723  0.00  0.00    +0.000 A 
ATOM      9  N   UNL     1       0.339   0.790  -0.783  0.00  0.00    +0.000 NA
ENDROOT
BRANCH   1  13
ATOM     10  C   UNL     1      -4.216  -0.934   0.882  0.00  0.00    +0.000 A 
ATOM     11  C   UNL     1      -3.244  -1.530   1.635  0.00  0.00    +0.000 A 
ATOM     12  C   UNL     1      -1.923  -1.244   1.398  0.00  0.00    +0.000 A 
ATOM     13  C   UNL     1      -1.561  -0.355   0.402  0.00  0.00    +0.000 A 
ATOM     14  C   UNL     1      -2.512   0.248  -0.357  0.00  0.00    +0.000 A 
ATOM     15  C   UNL     1      -3.835  -0.051  -0.106  0.00  0.00    +0.000 A 
BRANCH  10  17
ATOM     16  C   UNL     1      -6.050  -2.060   2.049  0.00  0.00    +0.000 C 
ATOM     17  O   UNL     1      -5.571  -1.168   1.058  0.00  0.00    +0.000 OA
ENDBRANCH  10  17
BRANCH  15  18
ATOM     18  O   UNL     1      -4.803   0.571  -0.888  0.00  0.00    +0.000 OA
ATOM     19  C   UNL     1      -4.479   1.473  -1.902  0.00  0.00    +0.000 C 
ENDBRANCH  15  18
ENDBRANCH   1  13
BRANCH   5  20
ATOM     20  N   UNL     1       5.822   0.357   0.096  0.00  0.00    +0.000 N 
ATOM     21  O   UNL     1       6.623   1.009  -0.598  0.00  0.00    +0.000 OA
ATOM     22  O   UNL     1       6.309  -0.465   1.075  0.00  0.00    +0.000 OA
ENDBRANCH   5  20
TORSDOF 4
