REMARK  Name = 
REMARK  4 active torsions:
REMARK  status: ('A' for Active; 'I' for Inactive)
REMARK    1  A    between atoms: C_5  and  N_6
REMARK    2  A    between atoms: C_7  and  C_9
REMARK    3  A    between atoms: C_11  and  C_12
REMARK    4  A    between atoms: C_19  and  N_20
REMARK                            x       y       z     vdW  Elec       q    Type
REMARK                         _______ _______ _______ _____ _____    ______ ____
ROOT
ATOM      1  N   UNL     1       0.069  -1.488   0.209  0.00  0.00    +0.000 NA
ATOM      2  C   UNL     1       1.124  -1.232   1.065  0.00  0.00    +0.000 C 
ATOM      3  O   UNL     1       1.153  -0.131   1.619  0.00  0.00    +0.000 OA
ENDROOT
BRANCH   1   8
ATOM      4  C   UNL     1      -4.125   2.184  -0.923  0.00  0.00    +0.000 C 
ATOM      5  C   UNL     1      -3.039   1.209  -0.641  0.00  0.00    +0.000 A 
ATOM      6  C   UNL     1      -2.029   1.558   0.226  0.00  0.00    +0.000 A 
ATOM      7  C   UNL     1      -1.012   0.666   0.500  0.00  0.00    +0.000 A 
ATOM      8  C   UNL     1      -0.989  -0.582  -0.086  0.00  0.00    +0.000 A 
ATOM      9  C   UNL     1      -2.014  -0.897  -0.947  0.00  0.00    +0.000 A 
ATOM     10  C   UNL     1      -3.059  -0.046  -1.260  0.00  0.00    +0.000 A 
BRANCH  10  11
ATOM     11  N   UNL     1      -4.097  -0.406  -2.151  0.00  0.00    +0.000 N 
ATOM     12  O   UNL     1      -4.630   0.481  -2.839  0.00  0.00    +0.000 OA
ATOM     13  O   UNL     1      -4.496  -1.720  -2.239  0.00  0.00    +0.000 OA
ENDBRANCH  10  11
ENDBRANCH   1   8
BRANCH   2  14
ATOM     14  C   UNL     1       2.237  -2.327   1.306  0.00  0.00    +0.000 C 
ATOM     15  C   UNL     1       3.280  -1.512   2.417  0.00  0.00    +0.000 C 
ATOM     16  C   UNL     1       3.719  -1.637   0.744  0.00  0.00    +0.000 C 
BRANCH  16  17
ATOM     17  C   UNL     1       3.352  -0.197   0.213  0.00  0.00    +0.000 A 
ATOM     18  C   UNL     1       3.582   0.938   0.854  0.00  0.00    +0.000 A 
ATOM     19  C   UNL     1       3.224   2.140   0.303  0.00  0.00    +0.000 A 
ATOM     20  C   UNL     1       2.627   2.175  -0.915  0.00  0.00    +0.000 A 
ATOM     21  C   UNL     1       2.370   1.022  -1.614  0.00  0.00    +0.000 A 
ATOM     22  C   UNL     1       2.752  -0.198  -1.016  0.00  0.00    +0.000 A 
ENDBRANCH  16  17
ENDBRANCH   2  14
TORSDOF 4
