REMARK  Name = 
REMARK  2 active torsions:
REMARK  status: ('A' for Active; 'I' for Inactive)
REMARK    1  A    between atoms: O_2  and  C_3
REMARK    2  A    between atoms: C_6  and  C_7
REMARK                            x       y       z     vdW  Elec       q    Type
REMARK                         _______ _______ _______ _____ _____    ______ ____
ROOT
ATOM      1  C   UNL     1       0.727  -1.066   1.053  0.00  0.00    +0.000 C 
ATOM      2  C   UNL     1      -0.413  -0.705   0.531  0.00  0.00    +0.000 C 
ATOM      3  O   UNL     1      -1.702  -1.200   0.762  0.00  0.00    +0.000 OA
ATOM      4  C   UNL     1      -2.605  -0.502  -0.017  0.00  0.00    +0.000 A 
ATOM      5  C   UNL     1      -1.953   0.460  -0.772  0.00  0.00    +0.000 A 
ATOM      6  C   UNL     1      -2.689   1.262  -1.620  0.00  0.00    +0.000 A 
ATOM      7  C   UNL     1      -4.059   1.132  -1.735  0.00  0.00    +0.000 A 
ATOM      8  C   UNL     1      -4.694   0.184  -0.989  0.00  0.00    +0.000 A 
ATOM      9  O   UNL     1      -6.056   0.061  -1.105  0.00  0.00    +0.000 OA
ATOM     10  C   UNL     1      -3.970  -0.614  -0.148  0.00  0.00    +0.000 A 
ATOM     11  C   UNL     1      -4.695  -1.630   0.657  0.00  0.00    +0.000 C 
ATOM     12  C   UNL     1      -0.541   0.369  -0.457  0.00  0.00    +0.000 C 
ATOM     13  O   UNL     1       0.345   1.093  -0.959  0.00  0.00    +0.000 OA
ENDROOT
BRANCH   1  17
ATOM     14  C   UNL     1       4.569   0.548   0.369  0.00  0.00    +0.000 A 
ATOM     15  C   UNL     1       4.080   0.393   1.637  0.00  0.00    +0.000 A 
ATOM     16  C   UNL     1       2.832  -0.125   1.833  0.00  0.00    +0.000 A 
ATOM     17  C   UNL     1       2.021  -0.510   0.766  0.00  0.00    +0.000 A 
ATOM     18  C   UNL     1       2.557  -0.337  -0.486  0.00  0.00    +0.000 A 
ATOM     19  C   UNL     1       3.807   0.182  -0.705  0.00  0.00    +0.000 A 
BRANCH  14  21
ATOM     20  C   UNL     1       6.612   1.462   1.245  0.00  0.00    +0.000 C 
ATOM     21  O   UNL     1       5.827   1.075   0.141  0.00  0.00    +0.000 OA
ENDBRANCH  14  21
ENDBRANCH   1  17
TORSDOF 2
