REMARK  Name = 
REMARK  3 active torsions:
REMARK  status: ('A' for Active; 'I' for Inactive)
REMARK    1  A    between atoms: O_2  and  C_3
REMARK    2  A    between atoms: C_8  and  N_9
REMARK    3  A    between atoms: N_9  and  C_10
REMARK                            x       y       z     vdW  Elec       q    Type
REMARK                         _______ _______ _______ _____ _____    ______ ____
ROOT
ATOM      1  C   UNL     1      -3.599  -0.568  -0.420  0.00  0.00    +0.000 A 
ATOM      2  C   UNL     1      -3.666  -0.730  -1.787  0.00  0.00    +0.000 A 
ATOM      3  C   UNL     1      -2.570  -0.659  -2.621  0.00  0.00    +0.000 A 
ATOM      4  C   UNL     1      -1.335  -0.412  -2.060  0.00  0.00    +0.000 A 
ATOM      5  C   UNL     1      -1.229  -0.246  -0.707  0.00  0.00    +0.000 A 
ATOM      6  C   UNL     1       0.025  -0.001  -0.181  0.00  0.00    +0.000 A 
ATOM      7  C   UNL     1       0.110   0.164   1.185  0.00  0.00    +0.000 A 
ATOM      8  C   UNL     1      -0.999   0.089   2.003  0.00  0.00    +0.000 A 
ATOM      9  C   UNL     1      -0.877   0.272   3.487  0.00  0.00    +0.000 C 
ATOM     10  N   UNL     1      -2.197  -0.152   1.440  0.00  0.00    +0.000 NA
ATOM     11  C   UNL     1      -2.356  -0.323   0.121  0.00  0.00    +0.000 A 
ENDROOT
BRANCH   1  13
ATOM     12  C   UNL     1      -6.005  -0.882  -0.011  0.00  0.00    +0.000 C 
ATOM     13  O   UNL     1      -4.684  -0.636   0.428  0.00  0.00    +0.000 OA
ENDBRANCH   1  13
BRANCH   6  14
ATOM     14  N   UNL     1       1.148   0.070  -1.052  0.00  0.00    +0.000 NA
BRANCH  14  15
ATOM     15  C   UNL     1       2.449   0.322  -0.535  0.00  0.00    +0.000 A 
ATOM     16  C   UNL     1       2.694   0.508   0.819  0.00  0.00    +0.000 A 
ATOM     17  C   UNL     1       4.000   0.744   1.188  0.00  0.00    +0.000 A 
ATOM     18  C   UNL     1       5.042   0.800   0.287  0.00  0.00    +0.000 A 
ATOM     19  C   UNL     1       4.793   0.613  -1.060  0.00  0.00    +0.000 A 
ATOM     20  O   UNL     1       5.770   0.651  -2.029  0.00  0.00    +0.000 OA
ATOM     21  C   UNL     1       3.487   0.376  -1.435  0.00  0.00    +0.000 A 
ENDBRANCH  14  15
ENDBRANCH   6  14
TORSDOF 3
