REMARK  Name = 
REMARK  4 active torsions:
REMARK  status: ('A' for Active; 'I' for Inactive)
REMARK    1  A    between atoms: C_2  and  C_4
REMARK    2  A    between atoms: C_7  and  C_8
REMARK    3  A    between atoms: N_9  and  C_10
REMARK    4  A    between atoms: C_14  and  C_15
REMARK                            x       y       z     vdW  Elec       q    Type
REMARK                         _______ _______ _______ _____ _____    ______ ____
ROOT
ATOM      1  C   UNL     1      -0.216   0.295   0.867  0.00  0.00    +0.000 C 
ATOM      2  N   UNL     1       0.592   0.591  -0.090  0.00  0.00    +0.000 NA
ENDROOT
BRANCH   1   6
ATOM      3  C   UNL     1      -4.384  -0.328   0.262  0.00  0.00    +0.000 A 
ATOM      4  C   UNL     1      -3.575  -0.012  -0.820  0.00  0.00    +0.000 A 
ATOM      5  C   UNL     1      -2.233   0.185  -0.601  0.00  0.00    +0.000 A 
ATOM      6  C   UNL     1      -1.637   0.090   0.616  0.00  0.00    +0.000 A 
ATOM      7  C   UNL     1      -2.447  -0.228   1.709  0.00  0.00    +0.000 A 
ATOM      8  C   UNL     1      -3.804  -0.430   1.509  0.00  0.00    +0.000 A 
BRANCH   3  10
ATOM      9  C   UNL     1      -6.289  -0.030  -1.271  0.00  0.00    +0.000 C 
ATOM     10  C   UNL     1      -5.846  -0.547   0.058  0.00  0.00    +0.000 C 
ATOM     11  C   UNL     1      -6.264  -1.957   0.342  0.00  0.00    +0.000 C 
ENDBRANCH   3  10
ENDBRANCH   1   6
BRANCH   2  12
ATOM     12  C   UNL     1       1.980   0.802   0.090  0.00  0.00    +0.000 A 
ATOM     13  C   UNL     1       2.497   1.846   0.827  0.00  0.00    +0.000 A 
ATOM     14  C   UNL     1       3.884   1.958   0.938  0.00  0.00    +0.000 A 
ATOM     15  C   UNL     1       4.719   1.046   0.326  0.00  0.00    +0.000 A 
ATOM     16  C   UNL     1       4.214  -0.014  -0.422  0.00  0.00    +0.000 A 
ATOM     17  C   UNL     1       2.837  -0.096  -0.512  0.00  0.00    +0.000 A 
BRANCH  16  18
ATOM     18  C   UNL     1       5.098  -0.975  -1.067  0.00  0.00    +0.000 C 
ATOM     19  N   UNL     1       4.540  -2.040  -1.820  0.00  0.00    +0.000 NA
ATOM     20  O   UNL     1       6.338  -0.833  -0.939  0.00  0.00    +0.000 OA
ENDBRANCH  16  18
ENDBRANCH   2  12
TORSDOF 4
