REMARK  Name = 
REMARK  5 active torsions:
REMARK  status: ('A' for Active; 'I' for Inactive)
REMARK    1  A    between atoms: C_2  and  C_3
REMARK    2  A    between atoms: C_3  and  C_4
REMARK    3  A    between atoms: C_4  and  C_5
REMARK    4  A    between atoms: C_5  and  C_6
REMARK    5  A    between atoms: C_9  and  C_10
REMARK                            x       y       z     vdW  Elec       q    Type
REMARK                         _______ _______ _______ _____ _____    ______ ____
ROOT
ATOM      1  C   UNL     1      -1.635   0.334  -1.430  0.00  0.00    +0.000 A 
ATOM      2  C   UNL     1      -1.571   0.495  -0.063  0.00  0.00    +0.000 A 
ATOM      3  C   UNL     1      -0.365   0.421   0.600  0.00  0.00    +0.000 A 
ATOM      4  C   UNL     1       0.792   0.185  -0.086  0.00  0.00    +0.000 A 
ATOM      5  C   UNL     1       0.737   0.024  -1.443  0.00  0.00    +0.000 A 
ATOM      6  C   UNL     1      -0.467   0.097  -2.111  0.00  0.00    +0.000 A 
ENDROOT
BRANCH   4   7
ATOM      7  C   UNL     1       2.072   0.105   0.607  0.00  0.00    +0.000 A 
ATOM      8  N   UNL     1       2.325   0.234   1.903  0.00  0.00    +0.000 NA
ATOM      9  N   UNL     1       3.502   0.135   2.338  0.00  0.00    +0.000 NA
ATOM     10  C   UNL     1       4.503  -0.101   1.492  0.00  0.00    +0.000 A 
ATOM     11  N   UNL     1       5.905  -0.248   1.775  0.00  0.00    +0.000 NA
ATOM     12  S   UNL     1       3.653  -0.176  -0.005  0.00  0.00    +0.000 S 
ENDBRANCH   4   7
BRANCH   1  13
ATOM     13  C   UNL     1      -2.961   0.418  -2.139  0.00  0.00    +0.000 C 
BRANCH  13  14
ATOM     14  C   UNL     1      -3.499  -1.018  -2.143  0.00  0.00    +0.000 C 
BRANCH  14  15
ATOM     15  C   UNL     1      -3.619  -1.405  -0.664  0.00  0.00    +0.000 C 
BRANCH  15  17
ATOM     16  C   UNL     1      -4.790  -0.684   1.421  0.00  0.00    +0.000 C 
ATOM     17  C   UNL     1      -4.584  -0.409  -0.052  0.00  0.00    +0.000 C 
ENDBRANCH  15  17
ENDBRANCH  14  15
ENDBRANCH  13  14
ENDBRANCH   1  13
TORSDOF 5
