REMARK  Name = 
REMARK  4 active torsions:
REMARK  status: ('A' for Active; 'I' for Inactive)
REMARK    1  A    between atoms: O_2  and  C_3
REMARK    2  A    between atoms: C_6  and  C_7
REMARK    3  A    between atoms: C_12  and  C_13
REMARK    4  A    between atoms: C_15  and  C_16
REMARK                            x       y       z     vdW  Elec       q    Type
REMARK                         _______ _______ _______ _____ _____    ______ ____
ROOT
ATOM      1  C   UNL     1      -2.660  -1.442  -0.821  0.00  0.00    +0.000 C 
ATOM      2  O   UNL     1      -3.079  -2.585  -1.218  0.00  0.00    +0.000 OA
ATOM      3  N   UNL     1      -1.340  -1.006  -1.035  0.00  0.00    +0.000 N 
ATOM      4  C   UNL     1      -0.318  -1.766  -1.709  0.00  0.00    +0.000 C 
ATOM      5  C   UNL     1      -0.170  -0.720  -2.815  0.00  0.00    +0.000 C 
ATOM      6  C   UNL     1       0.330   0.516  -1.845  0.00  0.00    +0.000 C 
ATOM      7  C   UNL     1      -0.764   0.202  -0.659  0.00  0.00    +0.000 C 
ENDROOT
BRANCH   1  11
ATOM      8  C   UNL     1      -5.519   0.964   1.192  0.00  0.00    +0.000 A 
ATOM      9  N   UNL     1      -4.258   1.380   0.987  0.00  0.00    +0.000 NA
ATOM     10  C   UNL     1      -3.327   0.641   0.352  0.00  0.00    +0.000 A 
ATOM     11  C   UNL     1      -3.652  -0.613  -0.126  0.00  0.00    +0.000 A 
ATOM     12  C   UNL     1      -4.949  -1.026   0.092  0.00  0.00    +0.000 A 
ATOM     13  N   UNL     1      -5.849  -0.254   0.732  0.00  0.00    +0.000 NA
BRANCH   8  15
ATOM     14  C   UNL     1      -6.069   3.018   2.314  0.00  0.00    +0.000 C 
ATOM     15  O   UNL     1      -6.462   1.760   1.857  0.00  0.00    +0.000 OA
ENDBRANCH   8  15
ENDBRANCH   1  11
BRANCH   6  16
ATOM     16  C   UNL     1       1.529  -0.204  -1.145  0.00  0.00    +0.000 A 
ATOM     17  N   UNL     1       2.538   0.561  -0.715  0.00  0.00    +0.000 NA
ATOM     18  C   UNL     1       3.486  -0.241  -0.135  0.00  0.00    +0.000 A 
ATOM     19  N   UNL     1       2.983  -1.480  -0.250  0.00  0.00    +0.000 NA
ATOM     20  O   UNL     1       1.815  -1.386  -0.861  0.00  0.00    +0.000 OA
BRANCH  18  21
ATOM     21  C   UNL     1       4.747   0.177   0.465  0.00  0.00    +0.000 A 
ATOM     22  C   UNL     1       5.084   1.510   0.484  0.00  0.00    +0.000 A 
ATOM     23  C   UNL     1       6.282   1.932   1.051  0.00  0.00    +0.000 A 
ATOM     24  C   UNL     1       7.163   1.030   1.608  0.00  0.00    +0.000 A 
ATOM     25  N   UNL     1       6.815  -0.266   1.579  0.00  0.00    +0.000 NA
ATOM     26  C   UNL     1       5.644  -0.700   1.027  0.00  0.00    +0.000 A 
ENDBRANCH  18  21
ENDBRANCH   6  16
TORSDOF 4
