REMARK  Name = 
REMARK  2 active torsions:
REMARK  status: ('A' for Active; 'I' for Inactive)
REMARK    1  A    between atoms: C_2  and  C_3
REMARK    2  A    between atoms: C_3  and  N_4
REMARK                            x       y       z     vdW  Elec       q    Type
REMARK                         _______ _______ _______ _____ _____    ______ ____
ROOT
ATOM      1  N   UNL     1       3.076   0.505   0.602  0.00  0.00    +0.000 N 
ATOM      2  C   UNL     1       1.937   1.302   0.469  0.00  0.00    +0.000 C 
ATOM      3  O   UNL     1       1.783   2.450   0.072  0.00  0.00    +0.000 OA
ATOM      4  C   UNL     1       0.693   0.428   0.961  0.00  0.00    +0.000 C 
ATOM      5  C   UNL     1      -0.130   0.624  -0.501  0.00  0.00    +0.000 C 
ATOM      6  C   UNL     1      -1.311  -0.212  -0.224  0.00  0.00    +0.000 A 
ATOM      7  C   UNL     1      -1.068  -1.517   0.132  0.00  0.00    +0.000 A 
ATOM      8  N   UNL     1      -2.273  -2.066   0.333  0.00  0.00    +0.000 NA
ATOM      9  C   UNL     1      -3.250  -1.167   0.118  0.00  0.00    +0.000 A 
ATOM     10  C   UNL     1      -4.626  -1.188   0.177  0.00  0.00    +0.000 A 
ATOM     11  C   UNL     1      -5.384  -0.071  -0.108  0.00  0.00    +0.000 A 
ATOM     12  C   UNL     1      -4.784   1.115  -0.463  0.00  0.00    +0.000 A 
ATOM     13  C   UNL     1      -3.429   1.161  -0.528  0.00  0.00    +0.000 A 
ATOM     14  C   UNL     1      -2.648   0.030  -0.241  0.00  0.00    +0.000 A 
ATOM     15  C   UNL     1       0.357  -2.006   0.212  0.00  0.00    +0.000 C 
ATOM     16  N   UNL     1       1.277  -0.964   0.558  0.00  0.00    +0.000 N 
ATOM     17  C   UNL     1       2.666  -0.852   0.654  0.00  0.00    +0.000 C 
ATOM     18  O   UNL     1       3.462  -1.831   0.773  0.00  0.00    +0.000 OA
ENDROOT
BRANCH   1  19
ATOM     19  C   UNL     1       4.426   1.034   0.670  0.00  0.00    +0.000 C 
BRANCH  19  21
ATOM     20  C   UNL     1       4.186   2.079  -1.547  0.00  0.00    +0.000 C 
ATOM     21  C   UNL     1       5.040   1.147  -0.712  0.00  0.00    +0.000 C 
ENDBRANCH  19  21
ENDBRANCH   1  19
TORSDOF 2
