REMARK  Name = 
REMARK  4 active torsions:
REMARK  status: ('A' for Active; 'I' for Inactive)
REMARK    1  A    between atoms: O_2  and  C_3
REMARK    2  A    between atoms: C_7  and  C_8
REMARK    3  A    between atoms: C_8  and  N_9
REMARK    4  A    between atoms: N_9  and  C_10
REMARK                            x       y       z     vdW  Elec       q    Type
REMARK                         _______ _______ _______ _____ _____    ______ ____
ROOT
ATOM      1  C   UNL     1       0.561  -1.271  -1.802  0.00  0.00    +0.000 C 
ENDROOT
BRANCH   1   6
ATOM      2  C   UNL     1       3.237   0.753  -0.040  0.00  0.00    +0.000 A 
ATOM      3  C   UNL     1       2.769   0.773   1.257  0.00  0.00    +0.000 A 
ATOM      4  C   UNL     1       1.584   0.130   1.562  0.00  0.00    +0.000 A 
ATOM      5  C   UNL     1       0.862  -0.535   0.575  0.00  0.00    +0.000 A 
ATOM      6  C   UNL     1       1.319  -0.563  -0.726  0.00  0.00    +0.000 A 
ATOM      7  C   UNL     1       2.502   0.087  -0.996  0.00  0.00    +0.000 A 
ATOM      8  O   UNL     1       2.998   0.082  -2.298  0.00  0.00    +0.000 OA
BRANCH   2  10
ATOM      9  C   UNL     1       5.185   2.077   0.601  0.00  0.00    +0.000 C 
ATOM     10  O   UNL     1       4.442   1.400  -0.379  0.00  0.00    +0.000 OA
ENDBRANCH   2  10
ENDBRANCH   1   6
BRANCH   1  11
ATOM     11  N   UNL     1      -0.634  -1.881  -1.327  0.00  0.00    +0.000 NA
BRANCH  11  12
ATOM     12  C   UNL     1      -1.721  -1.239  -0.720  0.00  0.00    +0.000 A 
ATOM     13  C   UNL     1      -2.802  -2.018  -0.324  0.00  0.00    +0.000 A 
ATOM     14  C   UNL     1      -3.882  -1.411   0.275  0.00  0.00    +0.000 A 
ATOM     15  C   UNL     1      -3.889  -0.035   0.480  0.00  0.00    +0.000 A 
ATOM     16  C   UNL     1      -5.081   0.607   1.137  0.00  0.00    +0.000 C 
ATOM     17  C   UNL     1      -2.823   0.730   0.089  0.00  0.00    +0.000 A 
ATOM     18  C   UNL     1      -2.883   2.198   0.332  0.00  0.00    +0.000 C 
ATOM     19  C   UNL     1      -1.742   0.117  -0.511  0.00  0.00    +0.000 A 
ENDBRANCH  11  12
ENDBRANCH   1  11
TORSDOF 4
