REMARK  Name = 
REMARK  2 active torsions:
REMARK  status: ('A' for Active; 'I' for Inactive)
REMARK    1  A    between atoms: N_2  and  C_4
REMARK    2  A    between atoms: C_9  and  N_10
REMARK                            x       y       z     vdW  Elec       q    Type
REMARK                         _______ _______ _______ _____ _____    ______ ____
ROOT
ATOM      1  C   UNL     1      -1.912  -0.751   0.220  0.00  0.00    +0.000 A 
ATOM      2  C   UNL     1      -0.794  -1.521   0.474  0.00  0.00    +0.000 A 
ATOM      3  C   UNL     1       0.438  -0.942   0.245  0.00  0.00    +0.000 A 
ATOM      4  C   UNL     1       0.659   0.293  -0.198  0.00  0.00    +0.000 A 
ATOM      5  C   UNL     1      -0.494   1.043  -0.445  0.00  0.00    +0.000 A 
ATOM      6  C   UNL     1      -1.763   0.541  -0.243  0.00  0.00    +0.000 A 
ATOM      7  C   UNL     1       2.074   0.598  -0.333  0.00  0.00    +0.000 A 
ATOM      8  C   UNL     1       2.735   1.748  -0.754  0.00  0.00    +0.000 A 
ATOM      9  C   UNL     1       4.126   1.791  -0.794  0.00  0.00    +0.000 A 
ATOM     10  C   UNL     1       4.820   0.665  -0.406  0.00  0.00    +0.000 A 
ATOM     11  C   UNL     1       4.171  -0.472   0.011  0.00  0.00    +0.000 A 
ATOM     12  C   UNL     1       2.796  -0.441   0.024  0.00  0.00    +0.000 A 
ATOM     13  C   UNL     1       1.861  -1.665   0.477  0.00  0.00    +0.000 C 
ATOM     14  O   UNL     1       1.903  -1.291   1.999  0.00  0.00    +0.000 OA
ENDROOT
BRANCH   1  16
ATOM     15  C   UNL     1      -4.159  -0.735   1.358  0.00  0.00    +0.000 C 
ATOM     16  N   UNL     1      -3.216  -1.298   0.439  0.00  0.00    +0.000 N 
ATOM     17  C   UNL     1      -3.608  -2.486  -0.306  0.00  0.00    +0.000 C 
ENDBRANCH   1  16
BRANCH   6  18
ATOM     18  N   UNL     1      -2.887   1.364  -0.515  0.00  0.00    +0.000 N 
ATOM     19  O   UNL     1      -3.931   0.832  -0.911  0.00  0.00    +0.000 OA
ATOM     20  O   UNL     1      -2.820   2.726  -0.343  0.00  0.00    +0.000 OA
ENDBRANCH   6  18
TORSDOF 2
