REMARK  Name = 
REMARK  2 active torsions:
REMARK  status: ('A' for Active; 'I' for Inactive)
REMARK    1  A    between atoms: C_12  and  N_13
REMARK    2  A    between atoms: N_13  and  C_14
REMARK                            x       y       z     vdW  Elec       q    Type
REMARK                         _______ _______ _______ _____ _____    ______ ____
ROOT
ATOM      1  C   UNL     1      -5.637  -1.862   0.049  0.00  0.00    +0.000 C 
ATOM      2  C   UNL     1      -4.236  -1.528  -0.790  0.00  0.00    +0.000 C 
ATOM      3  C   UNL     1      -3.342  -1.459   0.622  0.00  0.00    +0.000 C 
ATOM      4  C   UNL     1      -1.994  -1.308  -0.045  0.00  0.00    +0.000 C 
ATOM      5  C   UNL     1      -1.971   0.181  -0.439  0.00  0.00    +0.000 A 
ATOM      6  C   UNL     1      -3.169   0.726  -0.760  0.00  0.00    +0.000 A 
ATOM      7  S   UNL     1      -2.760   2.352  -1.143  0.00  0.00    +0.000 S 
ATOM      8  C   UNL     1      -1.076   2.283  -0.881  0.00  0.00    +0.000 A 
ATOM      9  N   UNL     1      -0.061   3.210  -0.986  0.00  0.00    +0.000 NA
ATOM     10  C   UNL     1       1.211   2.872  -0.710  0.00  0.00    +0.000 A 
ATOM     11  N   UNL     1       1.421   1.604  -0.335  0.00  0.00    +0.000 NA
ATOM     12  C   UNL     1       0.478   0.666  -0.216  0.00  0.00    +0.000 A 
ATOM     13  C   UNL     1      -0.871   0.986  -0.498  0.00  0.00    +0.000 A 
ATOM     14  C   UNL     1      -4.505   0.074  -0.771  0.00  0.00    +0.000 C 
ENDROOT
BRANCH  12  15
ATOM     15  N   UNL     1       0.785  -0.662   0.190  0.00  0.00    +0.000 NA
BRANCH  15  16
ATOM     16  C   UNL     1       2.099  -1.089   0.496  0.00  0.00    +0.000 A 
ATOM     17  C   UNL     1       2.352  -2.374   0.882  0.00  0.00    +0.000 A 
ATOM     18  C   UNL     1       3.654  -2.725   1.166  0.00  0.00    +0.000 A 
ATOM     19  C   UNL     1       4.687  -1.791   1.062  0.00  0.00    +0.000 A 
ATOM     20  C   UNL     1       4.414  -0.493   0.669  0.00  0.00    +0.000 A 
ATOM     21  O   UNL     1       5.407   0.480   0.548  0.00  0.00    +0.000 OA
ATOM     22  C   UNL     1       3.114  -0.145   0.387  0.00  0.00    +0.000 A 
ENDBRANCH  15  16
ENDBRANCH  12  15
TORSDOF 2
