REMARK  Name = 
REMARK  2 active torsions:
REMARK  status: ('A' for Active; 'I' for Inactive)
REMARK    1  A    between atoms: O_2  and  C_3
REMARK    2  A    between atoms: C_9  and  C_10
REMARK                            x       y       z     vdW  Elec       q    Type
REMARK                         _______ _______ _______ _____ _____    ______ ____
ROOT
ATOM      1  C   UNL     1      -1.204   2.302   0.122  0.00  0.00    +0.000 A 
ATOM      2  C   UNL     1      -2.532   2.095   0.429  0.00  0.00    +0.000 A 
ATOM      3  C   UNL     1      -3.048   0.835   0.630  0.00  0.00    +0.000 A 
ATOM      4  C   UNL     1      -2.216  -0.281   0.524  0.00  0.00    +0.000 A 
ATOM      5  C   UNL     1      -0.884  -0.090   0.217  0.00  0.00    +0.000 A 
ATOM      6  C   UNL     1      -0.394   1.191   0.021  0.00  0.00    +0.000 A 
ATOM      7  C   UNL     1       0.160  -1.113   0.057  0.00  0.00    +0.000 C 
ATOM      8  N   UNL     1      -0.041  -2.341  -0.217  0.00  0.00    +0.000 NA
ATOM      9  N   UNL     1      -1.247  -3.033  -0.434  0.00  0.00    +0.000 NA
ATOM     10  C   UNL     1      -2.428  -2.691  -0.019  0.00  0.00    +0.000 C 
ATOM     11  C   UNL     1      -3.518  -3.646  -0.419  0.00  0.00    +0.000 C 
ATOM     12  C   UNL     1      -2.905  -1.555   0.765  0.00  0.00    +0.000 C 
ENDROOT
BRANCH   7  13
ATOM     13  C   UNL     1       1.527  -0.634   0.237  0.00  0.00    +0.000 A 
ATOM     14  C   UNL     1       2.621  -1.461   0.120  0.00  0.00    +0.000 A 
ATOM     15  C   UNL     1       3.922  -0.978   0.297  0.00  0.00    +0.000 A 
ATOM     16  C   UNL     1       4.143   0.331   0.590  0.00  0.00    +0.000 A 
ATOM     17  N   UNL     1       5.427   0.912   0.787  0.00  0.00    +0.000 NA
ATOM     18  C   UNL     1       3.051   1.186   0.713  0.00  0.00    +0.000 A 
ATOM     19  C   UNL     1       1.762   0.684   0.533  0.00  0.00    +0.000 A 
ENDBRANCH   7  13
BRANCH   1  21
ATOM     20  C   UNL     1      -1.506   4.706   0.022  0.00  0.00    +0.000 C 
ATOM     21  O   UNL     1      -0.692   3.579  -0.079  0.00  0.00    +0.000 OA
ENDBRANCH   1  21
TORSDOF 2
