REMARK  Name = 
REMARK  4 active torsions:
REMARK  status: ('A' for Active; 'I' for Inactive)
REMARK    1  A    between atoms: C_2  and  C_3
REMARK    2  A    between atoms: C_3  and  C_4
REMARK    3  A    between atoms: C_3  and  C_15
REMARK    4  A    between atoms: N_6  and  C_7
REMARK                            x       y       z     vdW  Elec       q    Type
REMARK                         _______ _______ _______ _____ _____    ______ ____
ROOT
ATOM      1  C   UNL     1       0.031  -0.893   0.963  0.00  0.00    +0.000 C 
ATOM      2  O   UNL     1      -0.448  -1.971   0.686  0.00  0.00    +0.000 OA
ATOM      3  N   UNL     1      -0.533   0.354   0.578  0.00  0.00    +0.000 NA
ENDROOT
BRANCH   3   4
ATOM      4  C   UNL     1      -1.733   0.367  -0.180  0.00  0.00    +0.000 A 
ATOM      5  C   UNL     1      -2.415  -0.760  -0.584  0.00  0.00    +0.000 A 
ATOM      6  C   UNL     1      -3.575  -0.696  -1.318  0.00  0.00    +0.000 A 
ATOM      7  C   UNL     1      -4.301  -1.923  -1.748  0.00  0.00    +0.000 C 
ATOM      8  C   UNL     1      -4.105   0.512  -1.681  0.00  0.00    +0.000 A 
ATOM      9  C   UNL     1      -3.442   1.676  -1.290  0.00  0.00    +0.000 A 
ATOM     10  C   UNL     1      -2.269   1.582  -0.547  0.00  0.00    +0.000 A 
ATOM     11  O   UNL     1      -1.635   2.761  -0.174  0.00  0.00    +0.000 OA
ENDBRANCH   3   4
BRANCH   1  12
ATOM     12  C   UNL     1       1.389  -0.777   1.818  0.00  0.00    +0.000 C 
BRANCH  12  13
ATOM     13  C   UNL     1       2.212   0.033   0.753  0.00  0.00    +0.000 A 
ATOM     14  C   UNL     1       3.547  -0.195   0.763  0.00  0.00    +0.000 A 
ATOM     15  C   UNL     1       4.313   0.528  -0.177  0.00  0.00    +0.000 A 
ATOM     16  C   UNL     1       3.721   1.412  -1.050  0.00  0.00    +0.000 A 
ATOM     17  C   UNL     1       2.366   1.621  -1.036  0.00  0.00    +0.000 A 
ATOM     18  C   UNL     1       1.620   0.897  -0.097  0.00  0.00    +0.000 A 
ENDBRANCH  12  13
BRANCH  12  20
ATOM     19  C   UNL     1       3.283  -2.268   2.145  0.00  0.00    +0.000 C 
ATOM     20  C   UNL     1       1.974  -2.261   1.383  0.00  0.00    +0.000 C 
ENDBRANCH  12  20
ENDBRANCH   1  12
TORSDOF 4
