REMARK  Name = 
REMARK  5 active torsions:
REMARK  status: ('A' for Active; 'I' for Inactive)
REMARK    1  A    between atoms: C_2  and  O_3
REMARK    2  A    between atoms: O_3  and  C_4
REMARK    3  A    between atoms: C_4  and  C_6
REMARK    4  A    between atoms: C_6  and  N_7
REMARK    5  A    between atoms: C_9  and  C_10
REMARK                            x       y       z     vdW  Elec       q    Type
REMARK                         _______ _______ _______ _____ _____    ______ ____
ROOT
ATOM      1  N   UNL     1       1.220  -0.063   0.837  0.00  0.00    +0.000 N 
ATOM      2  N   UNL     1       0.032   0.416   0.524  0.00  0.00    +0.000 NA
ATOM      3  C   UNL     1      -0.836  -0.527   0.156  0.00  0.00    +0.000 A 
ATOM      4  C   UNL     1      -0.124  -1.730   0.244  0.00  0.00    +0.000 A 
ATOM      5  C   UNL     1       1.143  -1.391   0.670  0.00  0.00    +0.000 A 
ATOM      6  N   UNL     1       2.228  -2.299   0.905  0.00  0.00    +0.000 NA
ENDROOT
BRANCH   3   7
ATOM      7  C   UNL     1      -2.220  -0.414  -0.257  0.00  0.00    +0.000 A 
ATOM      8  C   UNL     1      -2.951  -1.518  -0.600  0.00  0.00    +0.000 A 
ATOM      9  C   UNL     1      -4.276  -1.420  -0.996  0.00  0.00    +0.000 A 
ATOM     10  C   UNL     1      -4.845  -0.168  -1.036  0.00  0.00    +0.000 A 
ATOM     11  C   UNL     1      -6.277  -0.072  -1.465  0.00  0.00    +0.000 C 
ATOM     12  C   UNL     1      -4.125   0.945  -0.694  0.00  0.00    +0.000 A 
ATOM     13  C   UNL     1      -2.808   0.820  -0.304  0.00  0.00    +0.000 A 
ENDBRANCH   3   7
BRANCH   1  14
ATOM     14  C   UNL     1       2.403   0.667   1.279  0.00  0.00    +0.000 C 
BRANCH  14  15
ATOM     15  C   UNL     1       3.238   1.076   0.117  0.00  0.00    +0.000 C 
ATOM     16  O   UNL     1       2.922   0.802  -1.076  0.00  0.00    +0.000 OA
BRANCH  15  17
ATOM     17  O   UNL     1       4.417   1.785   0.296  0.00  0.00    +0.000 OA
BRANCH  17  19
ATOM     18  C   UNL     1       5.639   0.911  -1.516  0.00  0.00    +0.000 C 
ATOM     19  C   UNL     1       5.223   2.181  -0.801  0.00  0.00    +0.000 C 
ENDBRANCH  17  19
ENDBRANCH  15  17
ENDBRANCH  14  15
ENDBRANCH   1  14
TORSDOF 5
