REMARK  Name = 
REMARK  3 active torsions:
REMARK  status: ('A' for Active; 'I' for Inactive)
REMARK    1  A    between atoms: C_2  and  C_4
REMARK    2  A    between atoms: C_4  and  C_5
REMARK    3  A    between atoms: C_5  and  C_7
REMARK                            x       y       z     vdW  Elec       q    Type
REMARK                         _______ _______ _______ _____ _____    ______ ____
ROOT
ATOM      1  C   UNL     1       0.489   0.729  -0.508  0.00  0.00    +0.000 A 
ATOM      2  C   UNL     1       0.784   2.037  -0.599  0.00  0.00    +0.000 A 
ATOM      3  C   UNL     1      -0.181   2.992  -0.289  0.00  0.00    +0.000 A 
ATOM      4  N   UNL     1       0.134   4.395  -0.386  0.00  0.00    +0.000 NA
ATOM      5  N   UNL     1      -1.378   2.578   0.091  0.00  0.00    +0.000 NA
ATOM      6  C   UNL     1      -1.673   1.271   0.182  0.00  0.00    +0.000 A 
ATOM      7  N   UNL     1      -2.805   0.675   0.540  0.00  0.00    +0.000 NA
ATOM      8  C   UNL     1      -2.639  -0.638   0.481  0.00  0.00    +0.000 A 
ATOM      9  C   UNL     1      -3.474  -1.697   0.741  0.00  0.00    +0.000 A 
ATOM     10  C   UNL     1      -2.997  -2.983   0.584  0.00  0.00    +0.000 A 
ATOM     11  C   UNL     1      -1.707  -3.227   0.173  0.00  0.00    +0.000 A 
ATOM     12  C   UNL     1      -0.906  -2.130  -0.076  0.00  0.00    +0.000 A 
ATOM     13  C   UNL     1      -1.346  -0.843   0.070  0.00  0.00    +0.000 A 
ATOM     14  N   UNL     1      -0.724   0.336  -0.122  0.00  0.00    +0.000 N 
ENDROOT
BRANCH   1  15
ATOM     15  C   UNL     1       1.543  -0.395  -0.851  0.00  0.00    +0.000 C 
ATOM     16  C   UNL     1       1.617  -0.996   0.677  0.00  0.00    +0.000 C 
BRANCH  15  17
ATOM     17  C   UNL     1       2.876   0.523  -0.697  0.00  0.00    +0.000 C 
BRANCH  17  19
ATOM     18  C   UNL     1       3.877  -1.105   0.861  0.00  0.00    +0.000 C 
ATOM     19  C   UNL     1       4.040  -0.333  -0.412  0.00  0.00    +0.000 C 
ATOM     20  C   UNL     1       4.470  -1.188  -1.578  0.00  0.00    +0.000 C 
ENDBRANCH  17  19
ENDBRANCH  15  17
ENDBRANCH   1  15
TORSDOF 3
