REMARK  Name = 
REMARK  3 active torsions:
REMARK  status: ('A' for Active; 'I' for Inactive)
REMARK    1  A    between atoms: C_2  and  O_3
REMARK    2  A    between atoms: O_3  and  C_4
REMARK    3  A    between atoms: C_9  and  C_10
REMARK                            x       y       z     vdW  Elec       q    Type
REMARK                         _______ _______ _______ _____ _____    ______ ____
ROOT
ATOM      1  C   UNL     1       0.608   1.110   0.786  0.00  0.00    +0.000 C 
ATOM      2  C   UNL     1      -0.632   1.367   0.482  0.00  0.00    +0.000 C 
ATOM      3  C   UNL     1      -1.322   2.666   0.469  0.00  0.00    +0.000 C 
ATOM      4  O   UNL     1      -0.839   3.778   0.770  0.00  0.00    +0.000 OA
ATOM      5  N   UNL     1      -2.662   2.467   0.050  0.00  0.00    +0.000 NA
ATOM      6  C   UNL     1      -2.822   1.060  -0.200  0.00  0.00    +0.000 A 
ATOM      7  C   UNL     1      -3.968   0.424  -0.631  0.00  0.00    +0.000 A 
ATOM      8  C   UNL     1      -3.919  -0.925  -0.818  0.00  0.00    +0.000 A 
ATOM      9  C   UNL     1      -2.738  -1.619  -0.576  0.00  0.00    +0.000 A 
ATOM     10 CL   UNL     1      -2.787  -3.348  -0.849  0.00  0.00    +0.000 Cl
ATOM     11  C   UNL     1      -1.615  -0.961  -0.148  0.00  0.00    +0.000 A 
ATOM     12  C   UNL     1      -1.625   0.394   0.052  0.00  0.00    +0.000 A 
ENDROOT
BRANCH   1  18
ATOM     13  C   UNL     1       2.483  -0.262   0.194  0.00  0.00    +0.000 A 
ATOM     14  C   UNL     1       3.162  -1.444   0.158  0.00  0.00    +0.000 A 
ATOM     15  C   UNL     1       2.628  -2.588   0.683  0.00  0.00    +0.000 A 
ATOM     16  C   UNL     1       1.362  -2.531   1.265  0.00  0.00    +0.000 A 
ATOM     17  C   UNL     1       0.690  -1.345   1.297  0.00  0.00    +0.000 A 
ATOM     18  C   UNL     1       1.213  -0.203   0.777  0.00  0.00    +0.000 A 
BRANCH  13  19
ATOM     19  O   UNL     1       3.061   0.896  -0.355  0.00  0.00    +0.000 OA
BRANCH  19  21
ATOM     20  C   UNL     1       5.380   0.294   0.066  0.00  0.00    +0.000 C 
ATOM     21  C   UNL     1       4.343   0.769  -0.928  0.00  0.00    +0.000 C 
ENDBRANCH  19  21
ENDBRANCH  13  19
ENDBRANCH   1  18
TORSDOF 3
