REMARK  Name = 
REMARK  2 active torsions:
REMARK  status: ('A' for Active; 'I' for Inactive)
REMARK    1  A    between atoms: C_2  and  C_3
REMARK    2  A    between atoms: N_8  and  C_9
REMARK                            x       y       z     vdW  Elec       q    Type
REMARK                         _______ _______ _______ _____ _____    ______ ____
ROOT
ATOM      1  C   UNL     1      -1.609   1.418   0.508  0.00  0.00    +0.000 A 
ATOM      2  C   UNL     1      -2.315   0.248   0.645  0.00  0.00    +0.000 A 
ATOM      3  O   UNL     1      -3.674   0.296   0.924  0.00  0.00    +0.000 OA
ATOM      4  C   UNL     1      -1.686  -0.979   0.509  0.00  0.00    +0.000 A 
ATOM      5  C   UNL     1      -0.325  -0.996   0.230  0.00  0.00    +0.000 A 
ATOM      6  N   UNL     1       0.366   0.144   0.095  0.00  0.00    +0.000 N 
ATOM      7  C   UNL     1      -0.268   1.346   0.232  0.00  0.00    +0.000 A 
ATOM      8  O   UNL     1       0.419   2.401   0.098  0.00  0.00    +0.000 OA
ATOM      9  C   UNL     1       0.410  -2.290   0.075  0.00  0.00    +0.000 C 
ATOM     10  C   UNL     1      -0.436  -3.452   0.513  0.00  0.00    +0.000 C 
ATOM     11  C   UNL     1      -1.833  -3.344  -0.059  0.00  0.00    +0.000 C 
ATOM     12  C   UNL     1      -2.511  -2.197   0.673  0.00  0.00    +0.000 C 
ENDROOT
BRANCH   6  13
ATOM     13  C   UNL     1       1.759   0.166  -0.192  0.00  0.00    +0.000 A 
ATOM     14  C   UNL     1       2.501   1.325   0.046  0.00  0.00    +0.000 A 
ATOM     15  C   UNL     1       3.836   1.446  -0.201  0.00  0.00    +0.000 A 
ATOM     16  C   UNL     1       4.521   0.372  -0.717  0.00  0.00    +0.000 A 
ATOM     17  C   UNL     1       3.821  -0.789  -0.964  0.00  0.00    +0.000 A 
ATOM     18  C   UNL     1       2.462  -0.900  -0.709  0.00  0.00    +0.000 A 
ENDBRANCH   6  13
BRANCH   1  20
ATOM     19  C   UNL     1      -3.135   3.077  -0.535  0.00  0.00    +0.000 C 
ATOM     20  C   UNL     1      -2.303   2.707   0.661  0.00  0.00    +0.000 C 
ENDBRANCH   1  20
TORSDOF 2
