REMARK  Name = 
REMARK  1 active torsions:
REMARK  status: ('A' for Active; 'I' for Inactive)
REMARK    1  A    between atoms: C_10  and  C_11
REMARK                            x       y       z     vdW  Elec       q    Type
REMARK                         _______ _______ _______ _____ _____    ______ ____
ROOT
ATOM      1  C   UNL     1      -2.697   2.559   2.250  0.00  0.00    +0.000 C 
ATOM      2  C   UNL     1      -2.470   1.463   1.238  0.00  0.00    +0.000 A 
ATOM      3  C   UNL     1      -3.600   0.839   0.680  0.00  0.00    +0.000 A 
ATOM      4  C   UNL     1      -3.400  -0.151  -0.235  0.00  0.00    +0.000 A 
ATOM      5  N   UNL     1      -4.530  -0.788  -0.815  0.00  0.00    +0.000 NA
ATOM      6  N   UNL     1      -2.157  -0.503  -0.572  0.00  0.00    +0.000 N 
ATOM      7  N   UNL     1      -1.684  -1.418  -1.394  0.00  0.00    +0.000 NA
ATOM      8  C   UNL     1      -0.340  -1.429  -1.402  0.00  0.00    +0.000 A 
ATOM      9  C   UNL     1       0.488  -2.349  -2.230  0.00  0.00    +0.000 C 
ATOM     10  C   UNL     1       0.093  -0.448  -0.519  0.00  0.00    +0.000 A 
ATOM     11  C   UNL     1      -1.070   0.107  -0.024  0.00  0.00    +0.000 A 
ATOM     12  N   UNL     1      -1.247   1.077   0.868  0.00  0.00    +0.000 NA
ENDROOT
BRANCH  10  13
ATOM     13  C   UNL     1       1.483  -0.145  -0.182  0.00  0.00    +0.000 A 
ATOM     14  C   UNL     1       1.951  -0.551   1.047  0.00  0.00    +0.000 A 
ATOM     15  C   UNL     1       3.245  -0.346   1.440  0.00  0.00    +0.000 A 
ATOM     16  C   UNL     1       4.131   0.300   0.562  0.00  0.00    +0.000 A 
ATOM     17 CL   UNL     1       5.787   0.585   1.002  0.00  0.00    +0.000 Cl
ATOM     18  C   UNL     1       3.666   0.697  -0.645  0.00  0.00    +0.000 A 
ATOM     19  C   UNL     1       2.352   0.500  -1.066  0.00  0.00    +0.000 A 
ENDBRANCH  10  13
TORSDOF 1
