REMARK  Name = 
REMARK  4 active torsions:
REMARK  status: ('A' for Active; 'I' for Inactive)
REMARK    1  A    between atoms: O_2  and  C_3
REMARK    2  A    between atoms: N_5  and  C_6
REMARK    3  A    between atoms: N_10  and  C_11
REMARK    4  A    between atoms: C_11  and  C_12
REMARK                            x       y       z     vdW  Elec       q    Type
REMARK                         _______ _______ _______ _____ _____    ______ ____
ROOT
ATOM      1  C   UNL     1       1.650  -0.270   0.196  0.00  0.00    +0.000 A 
ATOM      2  C   UNL     1       1.394  -1.611   0.014  0.00  0.00    +0.000 A 
ATOM      3  C   UNL     1       2.337  -2.712   0.376  0.00  0.00    +0.000 C 
ATOM      4  N   UNL     1       0.170  -1.689  -0.534  0.00  0.00    +0.000 NA
ATOM      5  N   UNL     1      -0.360  -0.493  -0.708  0.00  0.00    +0.000 N 
ATOM      6  C   UNL     1       0.539   0.398  -0.263  0.00  0.00    +0.000 A 
ATOM      7  C   UNL     1       0.429   1.897  -0.235  0.00  0.00    +0.000 C 
ENDROOT
BRANCH   1  10
ATOM      8  C   UNL     1       3.949   0.673  -0.076  0.00  0.00    +0.000 C 
ATOM      9  O   UNL     1       3.839   0.457  -1.302  0.00  0.00    +0.000 OA
ATOM     10  N   UNL     1       2.844   0.317   0.756  0.00  0.00    +0.000 NA
BRANCH   8  12
ATOM     11  C   UNL     1       6.210   1.595  -0.394  0.00  0.00    +0.000 C 
ATOM     12  O   UNL     1       5.113   1.240   0.426  0.00  0.00    +0.000 OA
ENDBRANCH   8  12
ENDBRANCH   1  10
BRANCH   5  13
ATOM     13  C   UNL     1      -1.660  -0.151  -1.268  0.00  0.00    +0.000 C 
BRANCH  13  14
ATOM     14  C   UNL     1      -2.706  -0.086  -0.232  0.00  0.00    +0.000 A 
ATOM     15  C   UNL     1      -2.405  -0.332   1.079  0.00  0.00    +0.000 A 
ATOM     16  C   UNL     1      -3.361  -0.278   2.072  0.00  0.00    +0.000 A 
ATOM     17  C   UNL     1      -4.660   0.034   1.716  0.00  0.00    +0.000 A 
ATOM     18  C   UNL     1      -4.960   0.282   0.386  0.00  0.00    +0.000 A 
ATOM     19  C   UNL     1      -3.995   0.227  -0.604  0.00  0.00    +0.000 A 
ATOM     20  C   UNL     1      -4.366   0.503  -2.028  0.00  0.00    +0.000 C 
ENDBRANCH  13  14
ENDBRANCH   5  13
TORSDOF 4
