REMARK  Name = 
REMARK  2 active torsions:
REMARK  status: ('A' for Active; 'I' for Inactive)
REMARK    1  A    between atoms: O_2  and  C_3
REMARK    2  A    between atoms: C_7  and  C_8
REMARK                            x       y       z     vdW  Elec       q    Type
REMARK                         _______ _______ _______ _____ _____    ______ ____
ROOT
ATOM      1  C   UNL     1       0.717  -0.140  -1.334  0.00  0.00    +0.000 C 
ATOM      2  N   UNL     1       0.113  -1.476  -0.623  0.00  0.00    +0.000 NA
ATOM      3  C   UNL     1      -1.183  -1.369  -0.176  0.00  0.00    +0.000 C 
ATOM      4  O   UNL     1      -1.913  -2.384  -0.284  0.00  0.00    +0.000 OA
ATOM      5  C   UNL     1      -1.674  -0.090   0.408  0.00  0.00    +0.000 A 
ATOM      6  C   UNL     1      -0.777   0.907   0.459  0.00  0.00    +0.000 A 
ATOM      7  S   UNL     1      -1.706   2.181   1.184  0.00  0.00    +0.000 S 
ATOM      8  C   UNL     1      -3.190   1.379   1.385  0.00  0.00    +0.000 A 
ATOM      9  C   UNL     1      -2.932   0.136   0.884  0.00  0.00    +0.000 A 
ATOM     10  C   UNL     1      -4.164  -0.765   0.975  0.00  0.00    +0.000 C 
ATOM     11  C   UNL     1      -5.259  -0.008   0.271  0.00  0.00    +0.000 C 
ATOM     12  C   UNL     1      -5.641   1.247   1.016  0.00  0.00    +0.000 C 
ATOM     13  C   UNL     1      -4.559   1.732   1.936  0.00  0.00    +0.000 C 
ATOM     14  N   UNL     1       0.553   0.733  -0.016  0.00  0.00    +0.000 NA
ENDROOT
BRANCH   1  19
ATOM     15  C   UNL     1       4.442   0.053  -0.397  0.00  0.00    +0.000 A 
ATOM     16  C   UNL     1       4.842  -1.240  -0.632  0.00  0.00    +0.000 A 
ATOM     17  C   UNL     1       3.990  -2.193  -1.077  0.00  0.00    +0.000 A 
ATOM     18  C   UNL     1       2.669  -1.799  -1.290  0.00  0.00    +0.000 A 
ATOM     19  C   UNL     1       2.229  -0.536  -1.072  0.00  0.00    +0.000 A 
ATOM     20  C   UNL     1       3.098   0.413  -0.623  0.00  0.00    +0.000 A 
BRANCH  15  22
ATOM     21  C   UNL     1       4.956   2.271   0.291  0.00  0.00    +0.000 C 
ATOM     22  O   UNL     1       5.389   0.949   0.057  0.00  0.00    +0.000 OA
ENDBRANCH  15  22
ENDBRANCH   1  19
TORSDOF 2
