REMARK  Name = 
REMARK  4 active torsions:
REMARK  status: ('A' for Active; 'I' for Inactive)
REMARK    1  A    between atoms: C_7  and  N_8
REMARK    2  A    between atoms: N_8  and  C_9
REMARK    3  A    between atoms: C_9  and  N_11
REMARK    4  A    between atoms: C_12  and  C_14
REMARK                            x       y       z     vdW  Elec       q    Type
REMARK                         _______ _______ _______ _____ _____    ______ ____
ROOT
ATOM      1  N   UNL     1       0.475   0.945  -0.406  0.00  0.00    +0.000 NA
ENDROOT
BRANCH   1   8
ATOM      2  C   UNL     1       4.200  -1.936   1.111  0.00  0.00    +0.000 C 
ATOM      3  C   UNL     1       3.676  -0.635   0.573  0.00  0.00    +0.000 A 
ATOM      4  C   UNL     1       4.601   0.381   0.323  0.00  0.00    +0.000 A 
ATOM      5  C   UNL     1       4.119   1.571  -0.170  0.00  0.00    +0.000 A 
ATOM      6  C   UNL     1       2.771   1.749  -0.406  0.00  0.00    +0.000 A 
ATOM      7  O   UNL     1       2.262   2.947  -0.904  0.00  0.00    +0.000 OA
ATOM      8  C   UNL     1       1.877   0.732  -0.150  0.00  0.00    +0.000 A 
ATOM      9  C   UNL     1       2.327  -0.475   0.344  0.00  0.00    +0.000 A 
ENDBRANCH   1   8
BRANCH   1  10
ATOM     10  C   UNL     1      -0.484  -0.076  -0.157  0.00  0.00    +0.000 C 
ATOM     11  S   UNL     1       0.024  -1.491   0.420  0.00  0.00    +0.000 S 
BRANCH  10  12
ATOM     12  N   UNL     1      -1.842   0.238  -0.444  0.00  0.00    +0.000 NA
ATOM     13  C   UNL     1      -2.854  -0.710  -0.228  0.00  0.00    +0.000 C 
ATOM     14  O   UNL     1      -2.511  -1.836   0.223  0.00  0.00    +0.000 OA
BRANCH  13  15
ATOM     15  C   UNL     1      -4.297  -0.452  -0.505  0.00  0.00    +0.000 C 
ATOM     16  C   UNL     1      -4.541  -0.119  -1.950  0.00  0.00    +0.000 C 
ATOM     17  C   UNL     1      -4.672   0.768   0.344  0.00  0.00    +0.000 C 
ATOM     18  C   UNL     1      -5.131  -1.601  -0.027  0.00  0.00    +0.000 C 
ENDBRANCH  13  15
ENDBRANCH  10  12
ENDBRANCH   1  10
TORSDOF 4
