REMARK  Name = 
REMARK  3 active torsions:
REMARK  status: ('A' for Active; 'I' for Inactive)
REMARK    1  A    between atoms: C_2  and  C_4
REMARK    2  A    between atoms: C_5  and  N_6
REMARK    3  A    between atoms: C_7  and  C_8
REMARK                            x       y       z     vdW  Elec       q    Type
REMARK                         _______ _______ _______ _____ _____    ______ ____
ROOT
ATOM      1  C   UNL     1      -1.429   0.658  -0.513  0.00  0.00    +0.000 A 
ATOM      2  C   UNL     1      -0.729   1.450   0.369  0.00  0.00    +0.000 A 
ATOM      3  S   UNL     1      -1.038   0.745   1.885  0.00  0.00    +0.000 S 
ATOM      4  C   UNL     1      -2.045  -0.537   1.389  0.00  0.00    +0.000 A 
ATOM      5  C   UNL     1      -2.111  -0.377   0.039  0.00  0.00    +0.000 A 
ATOM      6  C   UNL     1      -2.972  -1.428  -0.630  0.00  0.00    +0.000 C 
ATOM      7  C   UNL     1      -2.517  -2.765  -0.148  0.00  0.00    +0.000 C 
ATOM      8  C   UNL     1      -2.623  -2.957   1.334  0.00  0.00    +0.000 C 
ATOM      9  C   UNL     1      -2.772  -1.662   2.095  0.00  0.00    +0.000 C 
ENDROOT
BRANCH   1  11
ATOM     10  N   UNL     1      -0.672   2.053  -2.449  0.00  0.00    +0.000 NA
ATOM     11  C   UNL     1      -1.399   0.965  -1.943  0.00  0.00    +0.000 C 
ATOM     12  O   UNL     1      -2.036   0.242  -2.731  0.00  0.00    +0.000 OA
ENDBRANCH   1  11
BRANCH   2  13
ATOM     13  N   UNL     1       0.072   2.595   0.098  0.00  0.00    +0.000 NA
ATOM     14  C   UNL     1       1.330   2.525  -0.042  0.00  0.00    +0.000 C 
BRANCH  14  15
ATOM     15  C   UNL     1       2.038   1.274   0.064  0.00  0.00    +0.000 A 
ATOM     16  C   UNL     1       3.414   1.301  -0.104  0.00  0.00    +0.000 A 
ATOM     17  C   UNL     1       4.183   0.139  -0.019  0.00  0.00    +0.000 A 
ATOM     18  C   UNL     1       3.514  -1.043   0.242  0.00  0.00    +0.000 A 
ATOM     19  F   UNL     1       4.250  -2.168   0.326  0.00  0.00    +0.000 F 
ATOM     20  C   UNL     1       2.138  -1.088   0.414  0.00  0.00    +0.000 A 
ATOM     21  C   UNL     1       1.404   0.078   0.324  0.00  0.00    +0.000 A 
ENDBRANCH  14  15
ENDBRANCH   2  13
TORSDOF 3
