REMARK  Name = 
REMARK  3 active torsions:
REMARK  status: ('A' for Active; 'I' for Inactive)
REMARK    1  A    between atoms: C_2  and  C_3
REMARK    2  A    between atoms: C_3  and  N_4
REMARK    3  A    between atoms: C_7  and  C_8
REMARK                            x       y       z     vdW  Elec       q    Type
REMARK                         _______ _______ _______ _____ _____    ______ ____
ROOT
ATOM      1  C   UNL     1      -1.305   0.483  -0.177  0.00  0.00    +0.000 A 
ATOM      2  C   UNL     1      -2.258   1.396  -0.555  0.00  0.00    +0.000 A 
ATOM      3  C   UNL     1      -2.116   2.397  -1.632  0.00  0.00    +0.000 C 
ATOM      4  N   UNL     1      -3.359   1.226   0.228  0.00  0.00    +0.000 NA
ATOM      5  C   UNL     1      -3.150   0.231   1.103  0.00  0.00    +0.000 A 
ATOM      6  C   UNL     1      -3.930  -0.337   2.104  0.00  0.00    +0.000 A 
ATOM      7  C   UNL     1      -3.371  -1.373   2.824  0.00  0.00    +0.000 A 
ATOM      8  C   UNL     1      -2.102  -1.849   2.591  0.00  0.00    +0.000 A 
ATOM      9  C   UNL     1      -1.361  -1.266   1.597  0.00  0.00    +0.000 A 
ATOM     10  C   UNL     1      -1.890  -0.240   0.870  0.00  0.00    +0.000 A 
ENDROOT
BRANCH   1  14
ATOM     11  N   UNL     1       3.558   1.237  -0.454  0.00  0.00    +0.000 NA
ATOM     12  C   UNL     1       2.284   0.659  -0.813  0.00  0.00    +0.000 A 
ATOM     13  N   UNL     1       1.102   0.888  -0.279  0.00  0.00    +0.000 NA
ATOM     14  C   UNL     1       0.057   0.276  -0.729  0.00  0.00    +0.000 A 
ATOM     15  C   UNL     1       0.233  -0.604  -1.768  0.00  0.00    +0.000 A 
ATOM     16  S   UNL     1       1.932  -0.481  -2.024  0.00  0.00    +0.000 S 
BRANCH  11  17
ATOM     17  C   UNL     1       4.732   0.801  -1.222  0.00  0.00    +0.000 C 
BRANCH  17  19
ATOM     18  C   UNL     1       6.022  -1.164  -0.577  0.00  0.00    +0.000 C 
ATOM     19  C   UNL     1       4.920  -0.646  -1.086  0.00  0.00    +0.000 C 
ENDBRANCH  17  19
ENDBRANCH  11  17
ENDBRANCH   1  14
TORSDOF 3
