REMARK  Name = 
REMARK  2 active torsions:
REMARK  status: ('A' for Active; 'I' for Inactive)
REMARK    1  A    between atoms: C_2  and  C_4
REMARK    2  A    between atoms: C_11  and  C_12
REMARK                            x       y       z     vdW  Elec       q    Type
REMARK                         _______ _______ _______ _____ _____    ______ ____
ROOT
ATOM      1  C   UNL     1      -1.514   0.319  -0.510  0.00  0.00    +0.000 C 
ATOM      2  C   UNL     1      -2.455   0.556   0.365  0.00  0.00    +0.000 C 
ATOM      3  C   UNL     1      -3.045   1.960   0.296  0.00  0.00    +0.000 C 
ATOM      4  N   UNL     1      -2.870  -0.317   1.408  0.00  0.00    +0.000 NA
ATOM      5  C   UNL     1      -2.170  -1.552   1.497  0.00  0.00    +0.000 C 
ATOM      6  O   UNL     1      -2.516  -2.393   2.427  0.00  0.00    +0.000 OA
ATOM      7  N   UNL     1      -1.169  -1.808   0.612  0.00  0.00    +0.000 NA
ATOM      8  C   UNL     1      -0.913  -1.121  -0.658  0.00  0.00    +0.000 C 
ENDROOT
BRANCH   8   9
ATOM      9  C   UNL     1       0.659  -0.787  -0.632  0.00  0.00    +0.000 A 
ATOM     10  C   UNL     1       1.409  -1.429  -1.580  0.00  0.00    +0.000 A 
ATOM     11  O   UNL     1       0.909  -2.312  -2.518  0.00  0.00    +0.000 OA
ATOM     12  C   UNL     1       2.794  -1.198  -1.634  0.00  0.00    +0.000 A 
ATOM     13  C   UNL     1       3.336  -0.324  -0.716  0.00  0.00    +0.000 A 
ATOM     14  C   UNL     1       2.553   0.303   0.221  0.00  0.00    +0.000 A 
ATOM     15  C   UNL     1       3.026   1.194   1.174  0.00  0.00    +0.000 A 
ATOM     16  C   UNL     1       2.210   1.805   2.101  0.00  0.00    +0.000 A 
ATOM     17  C   UNL     1       0.864   1.526   2.088  0.00  0.00    +0.000 A 
ATOM     18  C   UNL     1       0.383   0.647   1.149  0.00  0.00    +0.000 A 
ATOM     19  C   UNL     1       1.207   0.045   0.233  0.00  0.00    +0.000 A 
ENDBRANCH   8   9
BRANCH   1  21
ATOM     20  C   UNL     1      -0.024   1.020  -2.402  0.00  0.00    +0.000 C 
ATOM     21  C   UNL     1      -1.097   1.358  -1.439  0.00  0.00    +0.000 C 
ATOM     22  O   UNL     1      -1.578   2.507  -1.480  0.00  0.00    +0.000 OA
ENDBRANCH   1  21
TORSDOF 2
