REMARK  Name = 
REMARK  5 active torsions:
REMARK  status: ('A' for Active; 'I' for Inactive)
REMARK    1  A    between atoms: N_2  and  C_4
REMARK    2  A    between atoms: C_7  and  N_8
REMARK    3  A    between atoms: N_8  and  C_9
REMARK    4  A    between atoms: C_9  and  C_10
REMARK    5  A    between atoms: C_13  and  N_14
REMARK                            x       y       z     vdW  Elec       q    Type
REMARK                         _______ _______ _______ _____ _____    ______ ____
ROOT
ATOM      1  N   UNL     1       0.367  -0.289   0.299  0.00  0.00    +0.000 NA
ENDROOT
BRANCH   1   5
ATOM      2  C   UNL     1       4.608  -0.342   0.049  0.00  0.00    +0.000 A 
ATOM      3  C   UNL     1       3.823   0.409  -0.814  0.00  0.00    +0.000 A 
ATOM      4  C   UNL     1       2.454   0.441  -0.752  0.00  0.00    +0.000 A 
ATOM      5  C   UNL     1       1.794  -0.299   0.205  0.00  0.00    +0.000 A 
ATOM      6  C   UNL     1       2.562  -1.057   1.078  0.00  0.00    +0.000 A 
ATOM      7  C   UNL     1       3.934  -1.073   0.996  0.00  0.00    +0.000 A 
BRANCH   2   9
ATOM      8  C   UNL     1       6.670   0.442  -1.067  0.00  0.00    +0.000 C 
ATOM      9  N   UNL     1       6.027  -0.349  -0.049  0.00  0.00    +0.000 N 
ATOM     10  C   UNL     1       6.825  -1.133   0.855  0.00  0.00    +0.000 C 
ENDBRANCH   2   9
ENDBRANCH   1   5
BRANCH   1  11
ATOM     11  C   UNL     1      -0.359   0.527  -0.649  0.00  0.00    +0.000 C 
BRANCH  11  12
ATOM     12  C   UNL     1      -1.827   0.437  -0.429  0.00  0.00    +0.000 A 
ATOM     13  C   UNL     1      -2.610  -0.510  -1.056  0.00  0.00    +0.000 A 
ATOM     14  C   UNL     1      -3.971  -0.585  -0.844  0.00  0.00    +0.000 A 
ATOM     15  C   UNL     1      -4.618   0.291   0.011  0.00  0.00    +0.000 A 
ATOM     16  C   UNL     1      -3.827   1.235   0.632  0.00  0.00    +0.000 A 
ATOM     17  C   UNL     1      -2.466   1.314   0.424  0.00  0.00    +0.000 A 
BRANCH  15  18
ATOM     18  N   UNL     1      -6.019   0.217   0.230  0.00  0.00    +0.000 N 
ATOM     19  O   UNL     1      -6.542   1.030   1.008  0.00  0.00    +0.000 OA
ATOM     20  O   UNL     1      -6.826  -0.706  -0.371  0.00  0.00    +0.000 OA
ENDBRANCH  15  18
ENDBRANCH  11  12
ENDBRANCH   1  11
TORSDOF 5
