REMARK  Name = 
REMARK  3 active torsions:
REMARK  status: ('A' for Active; 'I' for Inactive)
REMARK    1  A    between atoms: C_2  and  C_12
REMARK    2  A    between atoms: N_3  and  N_4
REMARK    3  A    between atoms: N_4  and  C_5
REMARK                            x       y       z     vdW  Elec       q    Type
REMARK                         _______ _______ _______ _____ _____    ______ ____
ROOT
ATOM      1  O   UNL     1      -0.703  -2.073   0.713  0.00  0.00    +0.000 OA
ATOM      2  C   UNL     1      -0.860  -1.045   0.013  0.00  0.00    +0.000 C 
ATOM      3  N   UNL     1       0.215  -0.650  -0.824  0.00  0.00    +0.000 NA
ENDROOT
BRANCH   2   4
ATOM      4  C   UNL     1      -2.077  -0.264   0.028  0.00  0.00    +0.000 A 
ATOM      5  C   UNL     1      -2.237   0.903  -0.687  0.00  0.00    +0.000 A 
ATOM      6  C   UNL     1      -3.405   1.626  -0.664  0.00  0.00    +0.000 A 
ATOM      7  C   UNL     1      -4.497   1.222   0.085  0.00  0.00    +0.000 A 
ATOM      8 CL   UNL     1      -5.987   2.153   0.103  0.00  0.00    +0.000 Cl
ATOM      9  C   UNL     1      -4.356   0.055   0.808  0.00  0.00    +0.000 A 
ATOM     10  C   UNL     1      -3.181  -0.666   0.780  0.00  0.00    +0.000 A 
ENDBRANCH   2   4
BRANCH   3  11
ATOM     11  N   UNL     1       1.414  -1.357  -0.892  0.00  0.00    +0.000 NA
BRANCH  11  12
ATOM     12  C   UNL     1       2.567  -0.870  -0.225  0.00  0.00    +0.000 C 
ATOM     13  C   UNL     1       2.541  -0.698   1.066  0.00  0.00    +0.000 C 
ATOM     14  C   UNL     1       3.631  -0.201   1.964  0.00  0.00    +0.000 C 
ATOM     15  C   UNL     1       4.820   0.205   1.112  0.00  0.00    +0.000 C 
ATOM     16  C   UNL     1       4.439   1.382   0.222  0.00  0.00    +0.000 C 
ATOM     17  C   UNL     1       3.955   0.886  -1.112  0.00  0.00    +0.000 C 
ATOM     18  C   UNL     1       3.720  -0.609  -1.134  0.00  0.00    +0.000 C 
ENDBRANCH  11  12
ENDBRANCH   3  11
TORSDOF 3
