REMARK  Name = 
REMARK  2 active torsions:
REMARK  status: ('A' for Active; 'I' for Inactive)
REMARK    1  A    between atoms: C_8  and  C_9
REMARK    2  A    between atoms: N_11  and  C_12
REMARK                            x       y       z     vdW  Elec       q    Type
REMARK                         _______ _______ _______ _____ _____    ______ ____
ROOT
ATOM      1  C   UNL     1      -5.508   0.603   0.901  0.00  0.00    +0.000 C 
ATOM      2  C   UNL     1      -4.077   0.492   0.391  0.00  0.00    +0.000 C 
ATOM      3  C   UNL     1      -3.597   1.860  -0.113  0.00  0.00    +0.000 C 
ATOM      4  C   UNL     1      -3.147   0.098   1.511  0.00  0.00    +0.000 C 
ATOM      5  C   UNL     1      -1.774   0.112   1.004  0.00  0.00    +0.000 C 
ATOM      6  O   UNL     1      -0.866   0.651   1.698  0.00  0.00    +0.000 OA
ATOM      7  C   UNL     1      -1.486  -0.498  -0.295  0.00  0.00    +0.000 A 
ATOM      8  C   UNL     1      -0.303  -0.917  -0.910  0.00  0.00    +0.000 A 
ATOM      9  C   UNL     1      -0.723  -1.460  -2.100  0.00  0.00    +0.000 A 
ATOM     10  N   UNL     1      -2.056  -1.371  -2.190  0.00  0.00    +0.000 NA
ATOM     11  C   UNL     1      -2.575  -0.774  -1.076  0.00  0.00    +0.000 A 
ATOM     12  C   UNL     1      -3.977  -0.486  -0.730  0.00  0.00    +0.000 C 
ENDROOT
BRANCH   8  13
ATOM     13  C   UNL     1       1.036  -0.746  -0.385  0.00  0.00    +0.000 C 
ATOM     14  O   UNL     1       1.739  -1.793  -0.071  0.00  0.00    +0.000 OA
ATOM     15  N   UNL     1       1.684   0.511  -0.177  0.00  0.00    +0.000 NA
BRANCH  15  16
ATOM     16  C   UNL     1       3.005   0.576   0.348  0.00  0.00    +0.000 A 
ATOM     17  C   UNL     1       3.641   1.783   0.454  0.00  0.00    +0.000 A 
ATOM     18  C   UNL     1       4.935   1.806   1.007  0.00  0.00    +0.000 A 
ATOM     19  C   UNL     1       5.560   0.675   1.432  0.00  0.00    +0.000 A 
ATOM     20  C   UNL     1       4.880  -0.547   1.307  0.00  0.00    +0.000 A 
ATOM     21  C   UNL     1       3.611  -0.577   0.766  0.00  0.00    +0.000 A 
ENDBRANCH  15  16
ENDBRANCH   8  13
TORSDOF 2
