REMARK  Name = 
REMARK  4 active torsions:
REMARK  status: ('A' for Active; 'I' for Inactive)
REMARK    1  A    between atoms: C_2  and  C_3
REMARK    2  A    between atoms: C_3  and  C_4
REMARK    3  A    between atoms: C_3  and  C_15
REMARK    4  A    between atoms: N_6  and  C_7
REMARK                            x       y       z     vdW  Elec       q    Type
REMARK                         _______ _______ _______ _____ _____    ______ ____
ROOT
ATOM      1  C   UNL     1       0.510  -0.175  -0.646  0.00  0.00    +0.000 C 
ATOM      2  O   UNL     1       0.707  -0.102   0.539  0.00  0.00    +0.000 OA
ATOM      3  N   UNL     1      -0.799  -0.262  -1.198  0.00  0.00    +0.000 NA
ENDROOT
BRANCH   3   4
ATOM      4  C   UNL     1      -1.970  -0.269  -0.386  0.00  0.00    +0.000 A 
ATOM      5  C   UNL     1      -1.943  -0.193   0.992  0.00  0.00    +0.000 A 
ATOM      6  C   UNL     1      -3.082  -0.200   1.773  0.00  0.00    +0.000 A 
ATOM      7  C   UNL     1      -4.321  -0.287   1.170  0.00  0.00    +0.000 A 
ATOM      8  C   UNL     1      -5.576  -0.298   1.969  0.00  0.00    +0.000 C 
ATOM      9  C   UNL     1      -4.359  -0.363  -0.207  0.00  0.00    +0.000 A 
ATOM     10  O   UNL     1      -5.620  -0.450  -0.795  0.00  0.00    +0.000 OA
ATOM     11  C   UNL     1      -3.202  -0.355  -0.978  0.00  0.00    +0.000 A 
ENDBRANCH   3   4
BRANCH   1  12
ATOM     12  C   UNL     1       1.703  -0.181  -1.720  0.00  0.00    +0.000 C 
BRANCH  12  13
ATOM     13  C   UNL     1       2.913  -0.071  -0.666  0.00  0.00    +0.000 A 
ATOM     14  C   UNL     1       2.814   0.753   0.368  0.00  0.00    +0.000 A 
ATOM     15  C   UNL     1       3.862   0.834   1.262  0.00  0.00    +0.000 A 
ATOM     16  C   UNL     1       4.990   0.077   1.088  0.00  0.00    +0.000 A 
ATOM     17  C   UNL     1       5.048  -0.766  -0.003  0.00  0.00    +0.000 A 
ATOM     18  C   UNL     1       4.000  -0.848  -0.897  0.00  0.00    +0.000 A 
ENDBRANCH  12  13
BRANCH  12  20
ATOM     19  C   UNL     1       2.691   1.706  -3.057  0.00  0.00    +0.000 C 
ATOM     20  C   UNL     1       1.633   1.448  -2.042  0.00  0.00    +0.000 C 
ENDBRANCH  12  20
ENDBRANCH   1  12
TORSDOF 4
