REMARK  Name = 
REMARK  4 active torsions:
REMARK  status: ('A' for Active; 'I' for Inactive)
REMARK    1  A    between atoms: C_2  and  C_5
REMARK    2  A    between atoms: C_5  and  C_7
REMARK    3  A    between atoms: C_7  and  S_8
REMARK    4  A    between atoms: S_8  and  C_9
REMARK                            x       y       z     vdW  Elec       q    Type
REMARK                         _______ _______ _______ _____ _____    ______ ____
ROOT
ATOM      1  C   UNL     1      -0.879   0.592  -0.437  0.00  0.00    +0.000 A 
ATOM      2  N   UNL     1      -1.617   0.834   0.687  0.00  0.00    +0.000 NA
ATOM      3  C   UNL     1      -2.821   0.307   0.546  0.00  0.00    +0.000 A 
ATOM      4  C   UNL     1      -3.889   0.310   1.431  0.00  0.00    +0.000 A 
ATOM      5  C   UNL     1      -5.044  -0.316   1.037  0.00  0.00    +0.000 A 
ATOM      6  C   UNL     1      -5.139  -0.929  -0.196  0.00  0.00    +0.000 A 
ATOM      7  C   UNL     1      -4.053  -0.907  -1.043  0.00  0.00    +0.000 A 
ATOM      8  C   UNL     1      -2.869  -0.286  -0.683  0.00  0.00    +0.000 A 
ATOM      9  N   UNL     1      -1.673  -0.099  -1.264  0.00  0.00    +0.000 NA
ENDROOT
BRANCH   1  10
ATOM     10  S   UNL     1       0.777   1.149  -0.603  0.00  0.00    +0.000 S 
BRANCH  10  11
ATOM     11  C   UNL     1       2.003  -0.045  -0.006  0.00  0.00    +0.000 C 
BRANCH  11  12
ATOM     12  C   UNL     1       3.450   0.735  -0.281  0.00  0.00    +0.000 C 
ATOM     13  O   UNL     1       3.418   1.483   1.061  0.00  0.00    +0.000 OA
BRANCH  12  15
ATOM     14  C   UNL     1       4.575  -1.440  -0.851  0.00  0.00    +0.000 C 
ATOM     15  C   UNL     1       4.386  -0.506   0.322  0.00  0.00    +0.000 C 
ATOM     16  C   UNL     1       3.685  -1.073   1.485  0.00  0.00    +0.000 C 
ATOM     17  C   UNL     1       5.689   0.192   0.684  0.00  0.00    +0.000 C 
ENDBRANCH  12  15
ENDBRANCH  11  12
ENDBRANCH  10  11
ENDBRANCH   1  10
TORSDOF 4
