REMARK  Name = 
REMARK  3 active torsions:
REMARK  status: ('A' for Active; 'I' for Inactive)
REMARK    1  A    between atoms: C_5  and  C_6
REMARK    2  A    between atoms: N_8  and  C_9
REMARK    3  A    between atoms: C_11  and  N_12
REMARK                            x       y       z     vdW  Elec       q    Type
REMARK                         _______ _______ _______ _____ _____    ______ ____
ROOT
ATOM      1  C   UNL     1       0.750  -0.062  -0.202  0.00  0.00    +0.000 C 
ATOM      2  O   UNL     1       0.101   0.047  -1.278  0.00  0.00    +0.000 OA
ATOM      3  N   UNL     1       0.013  -0.173   0.992  0.00  0.00    +0.000 NA
ENDROOT
BRANCH   1   8
ATOM      4  C   UNL     1       6.518  -0.039  -0.187  0.00  0.00    +0.000 C 
ATOM      5  C   UNL     1       5.030  -0.030  -0.207  0.00  0.00    +0.000 A 
ATOM      6  C   UNL     1       4.324  -0.829   0.668  0.00  0.00    +0.000 A 
ATOM      7  C   UNL     1       2.938  -0.858   0.691  0.00  0.00    +0.000 A 
ATOM      8  C   UNL     1       2.211  -0.073  -0.180  0.00  0.00    +0.000 A 
ATOM      9  C   UNL     1       2.912   0.729  -1.059  0.00  0.00    +0.000 A 
ATOM     10  C   UNL     1       2.139   1.585  -2.008  0.00  0.00    +0.000 C 
ATOM     11  C   UNL     1       4.297   0.753  -1.076  0.00  0.00    +0.000 A 
ENDBRANCH   1   8
BRANCH   3  12
ATOM     12  C   UNL     1      -1.394  -0.172   1.065  0.00  0.00    +0.000 A 
ATOM     13  C   UNL     1      -2.121  -0.054  -0.095  0.00  0.00    +0.000 A 
ATOM     14  C   UNL     1      -3.501  -0.044  -0.113  0.00  0.00    +0.000 A 
ATOM     15  C   UNL     1      -4.135  -0.158   1.104  0.00  0.00    +0.000 A 
ATOM     16  C   UNL     1      -3.427  -0.278   2.284  0.00  0.00    +0.000 A 
ATOM     17  C   UNL     1      -2.035  -0.285   2.272  0.00  0.00    +0.000 A 
ATOM     18  C   UNL     1      -1.284  -0.415   3.565  0.00  0.00    +0.000 C 
BRANCH  14  19
ATOM     19  N   UNL     1      -4.240   0.080  -1.338  0.00  0.00    +0.000 N 
ATOM     20  O   UNL     1      -5.486   0.083  -1.286  0.00  0.00    +0.000 OA
ATOM     21  O   UNL     1      -3.609   0.194  -2.541  0.00  0.00    +0.000 OA
ENDBRANCH  14  19
ENDBRANCH   3  12
TORSDOF 3
