REMARK  Name = 
REMARK  3 active torsions:
REMARK  status: ('A' for Active; 'I' for Inactive)
REMARK    1  A    between atoms: C_2  and  C_11
REMARK    2  A    between atoms: N_3  and  N_4
REMARK    3  A    between atoms: N_4  and  C_5
REMARK                            x       y       z     vdW  Elec       q    Type
REMARK                         _______ _______ _______ _____ _____    ______ ____
ROOT
ATOM      1  O   UNL     1       0.856  -1.614  -0.448  0.00  0.00    +0.000 OA
ATOM      2  C   UNL     1      -0.096  -0.985   0.034  0.00  0.00    +0.000 C 
ATOM      3  N   UNL     1       0.034  -0.279   1.246  0.00  0.00    +0.000 NA
ENDROOT
BRANCH   2   4
ATOM      4  C   UNL     1      -1.406  -0.944  -0.636  0.00  0.00    +0.000 A 
ATOM      5  C   UNL     1      -1.591  -1.633  -1.841  0.00  0.00    +0.000 A 
ATOM      6  C   UNL     1      -2.843  -1.589  -2.466  0.00  0.00    +0.000 A 
ATOM      7  C   UNL     1      -3.916  -0.898  -1.951  0.00  0.00    +0.000 A 
ATOM      8 CL   UNL     1      -5.459  -0.884  -2.780  0.00  0.00    +0.000 Cl
ATOM      9  C   UNL     1      -3.709  -0.225  -0.759  0.00  0.00    +0.000 A 
ATOM     10  C   UNL     1      -2.475  -0.262  -0.135  0.00  0.00    +0.000 A 
ATOM     11  O   UNL     1      -2.343   0.445   1.070  0.00  0.00    +0.000 OA
ENDBRANCH   2   4
BRANCH   3  12
ATOM     12  N   UNL     1       1.189  -0.219   1.991  0.00  0.00    +0.000 NA
BRANCH  12  13
ATOM     13  C   UNL     1       2.429   0.354   1.565  0.00  0.00    +0.000 C 
ATOM     14  C   UNL     1       2.909  -0.049   0.418  0.00  0.00    +0.000 C 
ATOM     15  C   UNL     1       4.160   0.417  -0.181  0.00  0.00    +0.000 C 
ATOM     16  C   UNL     1       5.004   1.127   0.836  0.00  0.00    +0.000 C 
ATOM     17  C   UNL     1       4.147   2.134   1.614  0.00  0.00    +0.000 C 
ATOM     18  C   UNL     1       3.110   1.363   2.423  0.00  0.00    +0.000 C 
ENDBRANCH  12  13
ENDBRANCH   3  12
TORSDOF 3
