REMARK  Name = 
REMARK  4 active torsions:
REMARK  status: ('A' for Active; 'I' for Inactive)
REMARK    1  A    between atoms: N_2  and  C_5
REMARK    2  A    between atoms: C_9  and  O_10
REMARK    3  A    between atoms: O_10  and  C_11
REMARK    4  A    between atoms: C_11  and  C_13
REMARK                            x       y       z     vdW  Elec       q    Type
REMARK                         _______ _______ _______ _____ _____    ______ ____
ROOT
ATOM      1  C   UNL     1      -3.237   0.061  -0.739  0.00  0.00    +0.000 A 
ATOM      2  C   UNL     1      -3.575  -1.026  -1.498  0.00  0.00    +0.000 A 
ATOM      3  C   UNL     1      -2.601  -1.848  -1.975  0.00  0.00    +0.000 A 
ATOM      4  C   UNL     1      -1.283  -1.591  -1.697  0.00  0.00    +0.000 A 
ATOM      5  C   UNL     1      -0.931  -0.504  -0.937  0.00  0.00    +0.000 A 
ATOM      6  C   UNL     1      -1.915   0.320  -0.460  0.00  0.00    +0.000 A 
ENDROOT
BRANCH   1   8
ATOM      7  C   UNL     1      -4.608   0.429   1.091  0.00  0.00    +0.000 C 
ATOM      8  N   UNL     1      -4.221   0.964  -0.209  0.00  0.00    +0.000 NA
ATOM      9  C   UNL     1      -3.696   2.286  -0.031  0.00  0.00    +0.000 C 
ATOM     10  C   UNL     1      -5.374   1.003  -1.118  0.00  0.00    +0.000 C 
ENDBRANCH   1   8
BRANCH   5  11
ATOM     11  O   UNL     1       0.411  -0.290  -0.687  0.00  0.00    +0.000 OA
BRANCH  11  12
ATOM     12  C   UNL     1       1.066  -0.824   0.415  0.00  0.00    +0.000 C 
ATOM     13  O   UNL     1       0.358  -1.529   1.193  0.00  0.00    +0.000 OA
BRANCH  12  14
ATOM     14  C   UNL     1       2.485  -0.592   0.670  0.00  0.00    +0.000 A 
ATOM     15  C   UNL     1       3.195   0.179  -0.206  0.00  0.00    +0.000 A 
ATOM     16  C   UNL     1       4.548   0.419   0.008  0.00  0.00    +0.000 A 
ATOM     17  C   UNL     1       5.204  -0.108   1.100  0.00  0.00    +0.000 A 
ATOM     18  N   UNL     1       6.598   0.129   1.337  0.00  0.00    +0.000 NA
ATOM     19  C   UNL     1       4.467  -0.880   1.968  0.00  0.00    +0.000 A 
ATOM     20  C   UNL     1       3.107  -1.136   1.774  0.00  0.00    +0.000 A 
ENDBRANCH  12  14
ENDBRANCH  11  12
ENDBRANCH   5  11
TORSDOF 4
