REMARK  Name = 
REMARK  0 active torsions:
REMARK  status: ('A' for Active; 'I' for Inactive)
REMARK                            x       y       z     vdW  Elec       q    Type
REMARK                         _______ _______ _______ _____ _____    ______ ____
ROOT
ATOM      1  C   UNL     1      -0.901   3.786   0.890  0.00  0.00    +0.000 C 
ATOM      2  C   UNL     1      -0.279   2.456   0.622  0.00  0.00    +0.000 A 
ATOM      3  N   UNL     1       1.051   2.263   0.685  0.00  0.00    +0.000 NA
ATOM      4  C   UNL     1       1.599   1.045   0.438  0.00  0.00    +0.000 A 
ATOM      5  C   UNL     1       0.752   0.042   0.127  0.00  0.00    +0.000 A 
ATOM      6  C   UNL     1      -0.609   0.163   0.045  0.00  0.00    +0.000 A 
ATOM      7  C   UNL     1      -1.148   1.429   0.304  0.00  0.00    +0.000 A 
ATOM      8  N   UNL     1      -2.469   1.333   0.183  0.00  0.00    +0.000 NA
ATOM      9  C   UNL     1      -2.853   0.087  -0.140  0.00  0.00    +0.000 A 
ATOM     10  C   UNL     1      -4.099  -0.495  -0.365  0.00  0.00    +0.000 A 
ATOM     11  C   UNL     1      -4.185  -1.839  -0.682  0.00  0.00    +0.000 A 
ATOM     12  C   UNL     1      -3.011  -2.595  -0.772  0.00  0.00    +0.000 A 
ATOM     13  C   UNL     1      -1.800  -1.982  -0.543  0.00  0.00    +0.000 A 
ATOM     14  C   UNL     1      -1.688  -0.647  -0.226  0.00  0.00    +0.000 A 
ATOM     15  C   UNL     1       1.360  -1.420  -0.185  0.00  0.00    +0.000 C 
ATOM     16  O   UNL     1       0.616  -1.528  -1.561  0.00  0.00    +0.000 OA
ATOM     17  C   UNL     1       2.723  -0.833  -0.957  0.00  0.00    +0.000 C 
ATOM     18  C   UNL     1       3.543  -0.431   0.243  0.00  0.00    +0.000 C 
ATOM     19  C   UNL     1       3.313  -1.372   1.403  0.00  0.00    +0.000 C 
ATOM     20  C   UNL     1       5.009  -0.441  -0.075  0.00  0.00    +0.000 C 
ATOM     21  C   UNL     1       3.077   0.981   0.568  0.00  0.00    +0.000 C 
ENDROOT
TORSDOF 0
