REMARK  Name = 
REMARK  2 active torsions:
REMARK  status: ('A' for Active; 'I' for Inactive)
REMARK    1  A    between atoms: C_1  and  C_11
REMARK    2  A    between atoms: N_2  and  N_3
REMARK                            x       y       z     vdW  Elec       q    Type
REMARK                         _______ _______ _______ _____ _____    ______ ____
ROOT
ATOM      1  C   UNL     1      -0.422  -1.249  -1.403  0.00  0.00    +0.000 C 
ATOM      2  N   UNL     1       0.794  -1.061  -1.711  0.00  0.00    +0.000 NA
ENDROOT
BRANCH   1   3
ATOM      3  C   UNL     1      -1.131  -0.173  -0.723  0.00  0.00    +0.000 A 
ATOM      4  C   UNL     1      -0.704   1.062  -0.337  0.00  0.00    +0.000 A 
ATOM      5  N   UNL     1      -1.738   1.676   0.251  0.00  0.00    +0.000 NA
ATOM      6  C   UNL     1      -2.816   0.880   0.260  0.00  0.00    +0.000 A 
ATOM      7  C   UNL     1      -4.100   1.041   0.737  0.00  0.00    +0.000 A 
ATOM      8  C   UNL     1      -5.009   0.015   0.594  0.00  0.00    +0.000 A 
ATOM      9  C   UNL     1      -4.664  -1.169  -0.015  0.00  0.00    +0.000 A 
ATOM     10  C   UNL     1      -3.386  -1.332  -0.492  0.00  0.00    +0.000 A 
ATOM     11  C   UNL     1      -2.449  -0.293  -0.353  0.00  0.00    +0.000 A 
ENDBRANCH   1   3
BRANCH   2  12
ATOM     12  N   UNL     1       1.443   0.162  -1.402  0.00  0.00    +0.000 NA
ATOM     13  C   UNL     1       2.319   0.291  -0.306  0.00  0.00    +0.000 C 
ATOM     14  N   UNL     1       2.055  -0.518   0.662  0.00  0.00    +0.000 NA
ATOM     15  C   UNL     1       2.728  -0.686   1.954  0.00  0.00    +0.000 C 
ATOM     16  C   UNL     1       3.966   0.189   2.004  0.00  0.00    +0.000 C 
ATOM     17  C   UNL     1       4.974  -0.192   0.970  0.00  0.00    +0.000 C 
ATOM     18  C   UNL     1       4.722   0.478  -0.353  0.00  0.00    +0.000 C 
ATOM     19  C   UNL     1       3.420   1.286  -0.336  0.00  0.00    +0.000 C 
ENDBRANCH   2  12
TORSDOF 2
