REMARK  Name = 
REMARK  3 active torsions:
REMARK  status: ('A' for Active; 'I' for Inactive)
REMARK    1  A    between atoms: C_2  and  C_3
REMARK    2  A    between atoms: C_3  and  N_4
REMARK    3  A    between atoms: N_4  and  C_14
REMARK                            x       y       z     vdW  Elec       q    Type
REMARK                         _______ _______ _______ _____ _____    ______ ____
ROOT
ATOM      1  N   UNL     1      -0.175  -1.287   0.038  0.00  0.00    +0.000 N 
ATOM      2  C   UNL     1      -1.184  -0.377   0.549  0.00  0.00    +0.000 A 
ATOM      3  N   UNL     1      -1.298  -0.235   1.880  0.00  0.00    +0.000 NA
ATOM      4  C   UNL     1      -2.216   0.594   2.439  0.00  0.00    +0.000 A 
ATOM      5  N   UNL     1      -3.024   1.283   1.618  0.00  0.00    +0.000 NA
ATOM      6  C   UNL     1      -2.942   1.169   0.283  0.00  0.00    +0.000 A 
ATOM      7  N   UNL     1      -3.641   1.756  -0.681  0.00  0.00    +0.000 NA
ATOM      8  C   UNL     1      -3.198   1.326  -1.901  0.00  0.00    +0.000 A 
ATOM      9  C   UNL     1      -2.177   0.432  -1.626  0.00  0.00    +0.000 A 
ATOM     10  C   UNL     1      -2.003   0.322  -0.271  0.00  0.00    +0.000 A 
ENDROOT
BRANCH   1  11
ATOM     11  C   UNL     1       1.168  -1.023   0.391  0.00  0.00    +0.000 C 
ATOM     12  C   UNL     1       1.216   0.206   1.271  0.00  0.00    +0.000 C 
ATOM     13  C   UNL     1       2.542   0.414   1.939  0.00  0.00    +0.000 C 
ATOM     14  C   UNL     1       3.297   1.547   1.238  0.00  0.00    +0.000 C 
ATOM     15  C   UNL     1       4.575   0.928   0.657  0.00  0.00    +0.000 C 
ATOM     16  C   UNL     1       4.253   0.472  -0.741  0.00  0.00    +0.000 C 
ATOM     17  C   UNL     1       2.760   0.380  -0.971  0.00  0.00    +0.000 C 
ATOM     18  C   UNL     1       2.201  -0.963  -0.651  0.00  0.00    +0.000 C 
ENDBRANCH   1  11
BRANCH   1  19
ATOM     19  C   UNL     1      -0.703  -2.343  -0.757  0.00  0.00    +0.000 C 
BRANCH  19  21
ATOM     20  O   UNL     1       0.934  -2.320  -2.517  0.00  0.00    +0.000 OA
ATOM     21  C   UNL     1      -0.386  -2.283  -2.187  0.00  0.00    +0.000 C 
ENDBRANCH  19  21
ENDBRANCH   1  19
TORSDOF 3
