REMARK  Name = 
REMARK  4 active torsions:
REMARK  status: ('A' for Active; 'I' for Inactive)
REMARK    1  A    between atoms: C_3  and  C_4
REMARK    2  A    between atoms: C_4  and  O_6
REMARK    3  A    between atoms: O_6  and  C_7
REMARK    4  A    between atoms: C_11  and  C_12
REMARK                            x       y       z     vdW  Elec       q    Type
REMARK                         _______ _______ _______ _____ _____    ______ ____
ROOT
ATOM      1  C   UNL     1       1.601  -1.574   1.331  0.00  0.00    +0.000 C 
ATOM      2  C   UNL     1       0.233  -1.604   0.626  0.00  0.00    +0.000 C 
ATOM      3  C   UNL     1       0.045  -0.885  -0.413  0.00  0.00    +0.000 C 
ATOM      4  C   UNL     1      -1.133  -0.675  -1.317  0.00  0.00    +0.000 C 
ATOM      5  S   UNL     1      -2.451  -1.798  -0.617  0.00  0.00    +0.000 S 
ATOM      6  C   UNL     1      -1.841  -2.628   0.802  0.00  0.00    +0.000 C 
ATOM      7  N   UNL     1      -2.716  -3.515   1.469  0.00  0.00    +0.000 NA
ATOM      8  N   UNL     1      -0.663  -2.468   1.249  0.00  0.00    +0.000 NA
ENDROOT
BRANCH   4   9
ATOM      9  C   UNL     1      -1.668   0.659  -0.738  0.00  0.00    +0.000 A 
ATOM     10  C   UNL     1      -3.004   0.948  -0.885  0.00  0.00    +0.000 A 
ATOM     11  C   UNL     1      -3.555   2.132  -0.398  0.00  0.00    +0.000 A 
ATOM     12  C   UNL     1      -2.722   3.018   0.243  0.00  0.00    +0.000 A 
ATOM     13  C   UNL     1      -1.391   2.723   0.386  0.00  0.00    +0.000 A 
ATOM     14  C   UNL     1      -0.856   1.544  -0.102  0.00  0.00    +0.000 A 
ENDBRANCH   4   9
BRANCH   3  15
ATOM     15  C   UNL     1       1.215  -0.064  -0.845  0.00  0.00    +0.000 C 
ATOM     16  O   UNL     1       1.080   0.650  -1.850  0.00  0.00    +0.000 OA
BRANCH  15  17
ATOM     17  O   UNL     1       2.417  -0.057  -0.200  0.00  0.00    +0.000 OA
BRANCH  17  18
ATOM     18  C   UNL     1       3.522   0.701  -0.585  0.00  0.00    +0.000 C 
ATOM     19  C   UNL     1       4.651   0.409   0.410  0.00  0.00    +0.000 C 
ATOM     20  C   UNL     1       3.264   2.190  -0.503  0.00  0.00    +0.000 C 
ATOM     21  C   UNL     1       3.973   0.293  -1.985  0.00  0.00    +0.000 C 
ENDBRANCH  17  18
ENDBRANCH  15  17
ENDBRANCH   3  15
TORSDOF 4
