REMARK  Name = 
REMARK  4 active torsions:
REMARK  status: ('A' for Active; 'I' for Inactive)
REMARK    1  A    between atoms: C_2  and  O_3
REMARK    2  A    between atoms: O_3  and  C_4
REMARK    3  A    between atoms: C_4  and  C_6
REMARK    4  A    between atoms: C_9  and  C_10
REMARK                            x       y       z     vdW  Elec       q    Type
REMARK                         _______ _______ _______ _____ _____    ______ ____
ROOT
ATOM      1  C   UNL     1       1.255   0.398   0.276  0.00  0.00    +0.000 C 
ATOM      2  C   UNL     1       0.151  -0.005   0.776  0.00  0.00    +0.000 C 
ATOM      3  C   UNL     1       0.063  -1.383   1.362  0.00  0.00    +0.000 C 
ATOM      4  C   UNL     1      -1.078   0.911   0.997  0.00  0.00    +0.000 C 
ATOM      5  N   UNL     1      -1.058   1.897  -0.127  0.00  0.00    +0.000 NA
ATOM      6  C   UNL     1       0.155   2.349  -0.638  0.00  0.00    +0.000 C 
ATOM      7  O   UNL     1       0.290   3.437  -1.293  0.00  0.00    +0.000 OA
ATOM      8  N   UNL     1       1.355   1.615  -0.462  0.00  0.00    +0.000 NA
ENDROOT
BRANCH   4   9
ATOM      9  C   UNL     1      -2.244  -0.083   0.489  0.00  0.00    +0.000 A 
ATOM     10  C   UNL     1      -3.348  -0.107   1.333  0.00  0.00    +0.000 A 
ATOM     11  C   UNL     1      -4.383  -0.931   0.965  0.00  0.00    +0.000 A 
ATOM     12  C   UNL     1      -4.316  -1.692  -0.189  0.00  0.00    +0.000 A 
ATOM     13  C   UNL     1      -3.186  -1.615  -0.976  0.00  0.00    +0.000 A 
ATOM     14  C   UNL     1      -2.106  -0.784  -0.635  0.00  0.00    +0.000 A 
ATOM     15 CL   UNL     1      -0.689  -0.712  -1.657  0.00  0.00    +0.000 Cl
ENDBRANCH   4   9
BRANCH   1  16
ATOM     16  C   UNL     1       2.445  -0.501   0.301  0.00  0.00    +0.000 C 
ATOM     17  O   UNL     1       2.313  -1.625   0.816  0.00  0.00    +0.000 OA
BRANCH  16  18
ATOM     18  O   UNL     1       3.652  -0.098  -0.229  0.00  0.00    +0.000 OA
BRANCH  18  20
ATOM     19  C   UNL     1       5.926  -0.140  -0.890  0.00  0.00    +0.000 C 
ATOM     20  C   UNL     1       4.805  -0.932  -0.221  0.00  0.00    +0.000 C 
ENDBRANCH  18  20
ENDBRANCH  16  18
ENDBRANCH   1  16
TORSDOF 4
