REMARK  Name = 
REMARK  3 active torsions:
REMARK  status: ('A' for Active; 'I' for Inactive)
REMARK    1  A    between atoms: O_2  and  C_3
REMARK    2  A    between atoms: C_8  and  O_9
REMARK    3  A    between atoms: C_11  and  C_12
REMARK                            x       y       z     vdW  Elec       q    Type
REMARK                         _______ _______ _______ _____ _____    ______ ____
ROOT
ATOM      1  C   UNL     1      -2.555  -0.541  -0.860  0.00  0.00    +0.000 A 
ATOM      2  C   UNL     1      -2.346   0.780  -1.167  0.00  0.00    +0.000 A 
ATOM      3  C   UNL     1      -1.028   1.224  -1.003  0.00  0.00    +0.000 A 
ATOM      4  C   UNL     1      -0.033   0.436  -0.582  0.00  0.00    +0.000 A 
ATOM      5  C   UNL     1      -0.293  -0.875  -0.287  0.00  0.00    +0.000 A 
ATOM      6  C   UNL     1      -1.554  -1.379  -0.422  0.00  0.00    +0.000 A 
ATOM      7  C   UNL     1       1.441   0.955  -0.501  0.00  0.00    +0.000 C 
ATOM      8  C   UNL     1       1.182   2.413   0.155  0.00  0.00    +0.000 C 
ATOM      9  C   UNL     1       0.519   3.098  -0.979  0.00  0.00    +0.000 C 
ATOM     10  O   UNL     1       1.074   3.975  -1.615  0.00  0.00    +0.000 OA
ATOM     11  N   UNL     1      -0.807   2.626  -1.235  0.00  0.00    +0.000 NA
ENDROOT
BRANCH   7  12
ATOM     12  C   UNL     1       1.868   0.182   0.830  0.00  0.00    +0.000 A 
ATOM     13  C   UNL     1       1.801   0.740   2.037  0.00  0.00    +0.000 A 
ATOM     14  C   UNL     1       2.171   0.012   3.149  0.00  0.00    +0.000 A 
ATOM     15  C   UNL     1       2.606  -1.280   3.019  0.00  0.00    +0.000 A 
ATOM     16  C   UNL     1       2.669  -1.838   1.768  0.00  0.00    +0.000 A 
ATOM     17  C   UNL     1       2.302  -1.125   0.638  0.00  0.00    +0.000 A 
ATOM     18  C   UNL     1       2.385  -1.734  -0.722  0.00  0.00    +0.000 C 
ENDBRANCH   7  12
BRANCH   1  20
ATOM     19  C   UNL     1      -4.886  -0.279  -1.430  0.00  0.00    +0.000 C 
ATOM     20  O   UNL     1      -3.820  -1.093  -0.985  0.00  0.00    +0.000 OA
ENDBRANCH   1  20
BRANCH   6  21
ATOM     21  O   UNL     1      -1.865  -2.727  -0.128  0.00  0.00    +0.000 OA
ATOM     22  C   UNL     1      -0.830  -3.569   0.319  0.00  0.00    +0.000 C 
ENDBRANCH   6  21
TORSDOF 3
