REMARK  Name = 
REMARK  4 active torsions:
REMARK  status: ('A' for Active; 'I' for Inactive)
REMARK    1  A    between atoms: C_2  and  C_3
REMARK    2  A    between atoms: C_5  and  C_6
REMARK    3  A    between atoms: C_14  and  C_15
REMARK    4  A    between atoms: C_18  and  C_19
REMARK                            x       y       z     vdW  Elec       q    Type
REMARK                         _______ _______ _______ _____ _____    ______ ____
ROOT
ATOM      1  O   UNL     1       1.386  -2.384  -2.356  0.00  0.00    +0.000 OA
ATOM      2  C   UNL     1       1.697  -1.302  -1.682  0.00  0.00    +0.000 C 
ATOM      3  N   UNL     1       0.944  -0.912  -0.592  0.00  0.00    +0.000 N 
ATOM      4  C   UNL     1      -0.225  -1.667  -0.123  0.00  0.00    +0.000 C 
ATOM      5  C   UNL     1       0.185  -1.688   1.308  0.00  0.00    +0.000 C 
ATOM      6  C   UNL     1       0.336  -0.045   1.581  0.00  0.00    +0.000 C 
ATOM      7  C   UNL     1       1.174   0.246   0.200  0.00  0.00    +0.000 C 
ENDROOT
BRANCH   2   8
ATOM      8  C   UNL     1       2.911  -0.647  -2.300  0.00  0.00    +0.000 A 
ATOM      9  C   UNL     1       3.223   0.316  -0.927  0.00  0.00    +0.000 A 
ATOM     10  C   UNL     1       4.293   1.028  -1.197  0.00  0.00    +0.000 A 
ATOM     11  N   UNL     1       4.699   0.716  -2.436  0.00  0.00    +0.000 NA
ATOM     12  N   UNL     1       3.835  -0.149  -2.770  0.00  0.00    +0.000 NA
BRANCH  10  13
ATOM     13  C   UNL     1       5.071   2.018  -0.364  0.00  0.00    +0.000 C 
ATOM     14  C   UNL     1       6.181   1.331   0.491  0.00  0.00    +0.000 C 
ATOM     15  C   UNL     1       4.904   1.810   1.101  0.00  0.00    +0.000 C 
ENDBRANCH  10  13
ENDBRANCH   2   8
BRANCH   6  16
ATOM     16  C   UNL     1      -1.125   0.305   0.999  0.00  0.00    +0.000 A 
ATOM     17  N   UNL     1      -1.421   1.020  -0.031  0.00  0.00    +0.000 NA
ATOM     18  O   UNL     1      -2.744   1.026  -0.108  0.00  0.00    +0.000 OA
ATOM     19  C   UNL     1      -3.256   0.319   0.864  0.00  0.00    +0.000 A 
ATOM     20  N   UNL     1      -2.226  -0.174   1.619  0.00  0.00    +0.000 NA
BRANCH  19  21
ATOM     21  C   UNL     1      -4.681   0.099   1.101  0.00  0.00    +0.000 A 
ATOM     22  C   UNL     1      -5.781   0.532   0.424  0.00  0.00    +0.000 A 
ATOM     23  C   UNL     1      -6.971   0.165   0.868  0.00  0.00    +0.000 A 
ATOM     24  C   UNL     1      -7.041  -0.620   1.970  0.00  0.00    +0.000 A 
ATOM     25  S   UNL     1      -5.367  -0.821   2.359  0.00  0.00    +0.000 S 
ENDBRANCH  19  21
ENDBRANCH   6  16
TORSDOF 4
