REMARK  Name = 
REMARK  3 active torsions:
REMARK  status: ('A' for Active; 'I' for Inactive)
REMARK    1  A    between atoms: C_4  and  N_5
REMARK    2  A    between atoms: N_5  and  N_6
REMARK    3  A    between atoms: C_7  and  C_9
REMARK                            x       y       z     vdW  Elec       q    Type
REMARK                         _______ _______ _______ _____ _____    ______ ____
ROOT
ATOM      1  N   UNL     1       0.038  -0.736  -0.075  0.00  0.00    +0.000 NA
ATOM      2  C   UNL     1      -1.102  -0.624  -0.948  0.00  0.00    +0.000 C 
ATOM      3  O   UNL     1      -0.933  -0.648  -2.214  0.00  0.00    +0.000 OA
ENDROOT
BRANCH   2   4
ATOM      4  C   UNL     1      -2.449  -0.482  -0.386  0.00  0.00    +0.000 A 
ATOM      5  C   UNL     1      -3.580  -0.864  -1.061  0.00  0.00    +0.000 A 
ATOM      6  C   UNL     1      -4.832  -0.699  -0.511  0.00  0.00    +0.000 A 
ATOM      7  C   UNL     1      -5.011  -0.142   0.745  0.00  0.00    +0.000 A 
ATOM      8  C   UNL     1      -3.884   0.245   1.428  0.00  0.00    +0.000 A 
ATOM      9 BR   UNL     1      -3.944   1.033   3.175  0.00  0.00    +0.000 Br
ATOM     10  C   UNL     1      -2.628   0.080   0.881  0.00  0.00    +0.000 A 
ENDBRANCH   2   4
BRANCH   1  11
ATOM     11  N   UNL     1       1.325  -0.875  -0.596  0.00  0.00    +0.000 NA
BRANCH  11  15
ATOM     12  C   UNL     1       5.309   0.163   1.773  0.00  0.00    +0.000 C 
ATOM     13  C   UNL     1       4.301   1.079   0.803  0.00  0.00    +0.000 C 
ATOM     14  C   UNL     1       3.174  -0.085   0.778  0.00  0.00    +0.000 C 
ATOM     15  C   UNL     1       2.395  -0.019  -0.274  0.00  0.00    +0.000 C 
ATOM     16  C   UNL     1       2.677   1.089  -1.245  0.00  0.00    +0.000 C 
ATOM     17  C   UNL     1       4.115   0.973  -1.688  0.00  0.00    +0.000 C 
ATOM     18  C   UNL     1       5.028   0.511  -0.586  0.00  0.00    +0.000 C 
ENDBRANCH  11  15
ENDBRANCH   1  11
TORSDOF 3
