REMARK  Name = 
REMARK  4 active torsions:
REMARK  status: ('A' for Active; 'I' for Inactive)
REMARK    1  A    between atoms: C_2  and  C_3
REMARK    2  A    between atoms: C_8  and  N_9
REMARK    3  A    between atoms: C_10  and  C_12
REMARK    4  A    between atoms: C_15  and  N_16
REMARK                            x       y       z     vdW  Elec       q    Type
REMARK                         _______ _______ _______ _____ _____    ______ ____
ROOT
ATOM      1  N   UNL     1      -1.013  -0.054   0.082  0.00  0.00    +0.000 NA
ATOM      2  C   UNL     1       0.054  -0.305  -0.798  0.00  0.00    +0.000 C 
ATOM      3  O   UNL     1      -0.201  -0.586  -1.993  0.00  0.00    +0.000 OA
ENDROOT
BRANCH   1   9
ATOM      4  C   UNL     1      -3.318   0.177   0.693  0.00  0.00    +0.000 A 
ATOM      5  C   UNL     1      -4.680   0.160   0.422  0.00  0.00    +0.000 A 
ATOM      6  C   UNL     1      -5.122  -0.134  -0.853  0.00  0.00    +0.000 A 
ATOM      7  C   UNL     1      -4.185  -0.407  -1.839  0.00  0.00    +0.000 A 
ATOM      8  C   UNL     1      -2.832  -0.382  -1.540  0.00  0.00    +0.000 A 
ATOM      9  C   UNL     1      -2.380  -0.093  -0.282  0.00  0.00    +0.000 A 
BRANCH   4  11
ATOM     10  C   UNL     1      -2.063  -0.570   2.763  0.00  0.00    +0.000 C 
ATOM     11  C   UNL     1      -2.868   0.494   2.065  0.00  0.00    +0.000 C 
ATOM     12  C   UNL     1      -3.682   1.377   2.935  0.00  0.00    +0.000 C 
ATOM     13  C   UNL     1      -2.475   1.966   2.315  0.00  0.00    +0.000 C 
ENDBRANCH   4  11
ENDBRANCH   1   9
BRANCH   2  14
ATOM     14  C   UNL     1       1.462  -0.255  -0.382  0.00  0.00    +0.000 A 
ATOM     15  C   UNL     1       1.831   0.044   0.903  0.00  0.00    +0.000 A 
ATOM     16  C   UNL     1       3.161   0.080   1.246  0.00  0.00    +0.000 A 
ATOM     17  C   UNL     1       4.174  -0.175   0.346  0.00  0.00    +0.000 A 
ATOM     18  C   UNL     1       3.781  -0.473  -0.940  0.00  0.00    +0.000 A 
ATOM     19  C   UNL     1       2.455  -0.512  -1.299  0.00  0.00    +0.000 A 
BRANCH  17  20
ATOM     20  N   UNL     1       5.550  -0.134   0.717  0.00  0.00    +0.000 N 
ATOM     21  O   UNL     1       6.392  -0.378  -0.167  0.00  0.00    +0.000 OA
ATOM     22  O   UNL     1       5.960   0.161   1.992  0.00  0.00    +0.000 OA
ENDBRANCH  17  20
ENDBRANCH   2  14
TORSDOF 4
