REMARK  Name = 
REMARK  4 active torsions:
REMARK  status: ('A' for Active; 'I' for Inactive)
REMARK    1  A    between atoms: N_4  and  C_5
REMARK    2  A    between atoms: C_7  and  O_8
REMARK    3  A    between atoms: O_8  and  C_9
REMARK    4  A    between atoms: C_17  and  N_18
REMARK                            x       y       z     vdW  Elec       q    Type
REMARK                         _______ _______ _______ _____ _____    ______ ____
ROOT
ATOM      1  C   UNL     1      -1.857   0.858  -0.318  0.00  0.00    +0.000 A 
ATOM      2  C   UNL     1      -0.687   1.065   0.373  0.00  0.00    +0.000 A 
ATOM      3  C   UNL     1       0.009   0.053   1.001  0.00  0.00    +0.000 A 
ATOM      4  C   UNL     1      -0.535  -1.218   0.904  0.00  0.00    +0.000 A 
ATOM      5  C   UNL     1      -1.707  -1.460   0.220  0.00  0.00    +0.000 A 
ATOM      6  C   UNL     1      -2.375  -0.428  -0.394  0.00  0.00    +0.000 A 
ENDROOT
BRANCH   1  10
ATOM      7  C   UNL     1      -4.393   2.970  -2.304  0.00  0.00    +0.000 C 
ATOM      8  C   UNL     1      -3.717   1.816  -1.662  0.00  0.00    +0.000 C 
ATOM      9  O   UNL     1      -4.236   0.677  -1.767  0.00  0.00    +0.000 OA
ATOM     10  N   UNL     1      -2.523   1.949  -0.942  0.00  0.00    +0.000 NA
ENDBRANCH   1  10
BRANCH   5  11
ATOM     11  N   UNL     1      -2.275  -2.763   0.116  0.00  0.00    +0.000 N 
ATOM     12  O   UNL     1      -1.699  -3.717   0.658  0.00  0.00    +0.000 OA
ATOM     13  O   UNL     1      -3.435  -3.011  -0.560  0.00  0.00    +0.000 OA
ENDBRANCH   5  11
BRANCH   3  14
ATOM     14  O   UNL     1       1.168   0.344   1.668  0.00  0.00    +0.000 OA
BRANCH  14  15
ATOM     15  C   UNL     1       2.426   0.336   1.125  0.00  0.00    +0.000 A 
ATOM     16  C   UNL     1       2.604   0.014  -0.204  0.00  0.00    +0.000 A 
ATOM     17  C   UNL     1       3.874  -0.004  -0.788  0.00  0.00    +0.000 A 
ATOM     18  C   UNL     1       4.975   0.301  -0.045  0.00  0.00    +0.000 A 
ATOM     19  C   UNL     1       4.808   0.624   1.279  0.00  0.00    +0.000 A 
ATOM     20  C   UNL     1       6.023   0.951   2.063  0.00  0.00    +0.000 C 
ATOM     21  C   UNL     1       3.552   0.642   1.859  0.00  0.00    +0.000 A 
ENDBRANCH  14  15
ENDBRANCH   3  14
TORSDOF 4
