REMARK  Name = 
REMARK  4 active torsions:
REMARK  status: ('A' for Active; 'I' for Inactive)
REMARK    1  A    between atoms: C_2  and  C_14
REMARK    2  A    between atoms: N_3  and  C_4
REMARK    3  A    between atoms: C_4  and  N_6
REMARK    4  A    between atoms: N_6  and  C_7
REMARK                            x       y       z     vdW  Elec       q    Type
REMARK                         _______ _______ _______ _____ _____    ______ ____
ROOT
ATOM      1  C   UNL     1       0.267  -0.157  -0.428  0.00  0.00    +0.000 C 
ATOM      2  S   UNL     1       0.374  -0.805   1.053  0.00  0.00    +0.000 S 
ENDROOT
BRANCH   1   5
ATOM      3  O   UNL     1      -2.103  -0.975   0.779  0.00  0.00    +0.000 OA
ATOM      4  C   UNL     1      -2.171  -0.465  -0.383  0.00  0.00    +0.000 C 
ATOM      5  N   UNL     1      -0.996  -0.031  -1.046  0.00  0.00    +0.000 NA
BRANCH   4   6
ATOM      6  C   UNL     1      -3.523  -0.359  -0.976  0.00  0.00    +0.000 C 
ATOM      7  C   UNL     1      -3.946   1.025  -1.301  0.00  0.00    +0.000 C 
ATOM      8  C   UNL     1      -5.315   1.302  -0.760  0.00  0.00    +0.000 C 
ATOM      9  C   UNL     1      -5.295   0.929   0.721  0.00  0.00    +0.000 C 
ATOM     10  C   UNL     1      -5.298  -0.574   0.788  0.00  0.00    +0.000 C 
ATOM     11  C   UNL     1      -4.537  -1.219  -0.330  0.00  0.00    +0.000 C 
ENDBRANCH   4   6
ENDBRANCH   1   5
BRANCH   1  12
ATOM     12  N   UNL     1       1.419   0.276  -1.096  0.00  0.00    +0.000 NA
BRANCH  12  13
ATOM     13  C   UNL     1       2.731   0.199  -0.577  0.00  0.00    +0.000 A 
ATOM     14  C   UNL     1       3.047  -0.314   0.659  0.00  0.00    +0.000 A 
ATOM     15  C   UNL     1       4.363  -0.346   1.079  0.00  0.00    +0.000 A 
ATOM     16  C   UNL     1       5.406   0.120   0.307  0.00  0.00    +0.000 A 
ATOM     17  O   UNL     1       6.733   0.089   0.726  0.00  0.00    +0.000 OA
ATOM     18  C   UNL     1       5.078   0.637  -0.940  0.00  0.00    +0.000 A 
ATOM     19  C   UNL     1       3.765   0.669  -1.360  0.00  0.00    +0.000 A 
ENDBRANCH  12  13
ENDBRANCH   1  12
TORSDOF 4
