REMARK  Name = 
REMARK  3 active torsions:
REMARK  status: ('A' for Active; 'I' for Inactive)
REMARK    1  A    between atoms: C_4  and  C_5
REMARK    2  A    between atoms: N_7  and  C_8
REMARK    3  A    between atoms: C_19  and  N_20
REMARK                            x       y       z     vdW  Elec       q    Type
REMARK                         _______ _______ _______ _____ _____    ______ ____
ROOT
ATOM      1  C   UNL     1       0.203  -0.575   0.317  0.00  0.00    +0.000 C 
ATOM      2  O   UNL     1      -0.182  -1.503   1.093  0.00  0.00    +0.000 OA
ATOM      3  N   UNL     1      -0.806   0.302  -0.152  0.00  0.00    +0.000 NA
ENDROOT
BRANCH   3   4
ATOM      4  C   UNL     1      -2.173   0.171   0.211  0.00  0.00    +0.000 A 
ATOM      5  C   UNL     1      -2.590  -0.837   1.057  0.00  0.00    +0.000 A 
ATOM      6  C   UNL     1      -3.922  -0.955   1.403  0.00  0.00    +0.000 A 
ATOM      7  C   UNL     1      -4.885  -0.065   0.911  0.00  0.00    +0.000 A 
ATOM      8  C   UNL     1      -4.479   0.926   0.080  0.00  0.00    +0.000 A 
ATOM      9  C   UNL     1      -3.128   1.031  -0.259  0.00  0.00    +0.000 A 
ATOM     10  C   UNL     1      -5.662   1.763  -0.329  0.00  0.00    +0.000 C 
ATOM     11  C   UNL     1      -6.727   1.409   0.689  0.00  0.00    +0.000 C 
ATOM     12  C   UNL     1      -6.368   0.001   1.146  0.00  0.00    +0.000 C 
ENDBRANCH   3   4
BRANCH   1  16
ATOM     13  C   UNL     1       4.963  -2.072   0.495  0.00  0.00    +0.000 C 
ATOM     14  C   UNL     1       3.921  -1.132   0.004  0.00  0.00    +0.000 A 
ATOM     15  C   UNL     1       2.587  -1.289   0.380  0.00  0.00    +0.000 A 
ATOM     16  C   UNL     1       1.604  -0.438  -0.057  0.00  0.00    +0.000 A 
ATOM     17  C   UNL     1       1.978   0.592  -0.892  0.00  0.00    +0.000 A 
ATOM     18  C   UNL     1       3.291   0.765  -1.275  0.00  0.00    +0.000 A 
ATOM     19  C   UNL     1       4.269  -0.087  -0.836  0.00  0.00    +0.000 A 
BRANCH  19  20
ATOM     20  N   UNL     1       5.629   0.029  -1.188  0.00  0.00    +0.000 N 
ATOM     21  O   UNL     1       6.504  -0.323  -0.393  0.00  0.00    +0.000 OA
ATOM     22  O   UNL     1       5.971   0.531  -2.405  0.00  0.00    +0.000 OA
ENDBRANCH  19  20
ENDBRANCH   1  16
TORSDOF 3
