REMARK  Name = 
REMARK  2 active torsions:
REMARK  status: ('A' for Active; 'I' for Inactive)
REMARK    1  A    between atoms: C_8  and  C_9
REMARK    2  A    between atoms: N_11  and  C_12
REMARK                            x       y       z     vdW  Elec       q    Type
REMARK                         _______ _______ _______ _____ _____    ______ ____
ROOT
ATOM      1  C   UNL     1      -4.163  -0.162  -1.266  0.00  0.00    +0.000 C 
ATOM      2  C   UNL     1      -3.913  -1.197  -0.195  0.00  0.00    +0.000 C 
ATOM      3  C   UNL     1      -5.030  -2.206  -0.273  0.00  0.00    +0.000 C 
ATOM      4  C   UNL     1      -2.609  -1.902  -0.436  0.00  0.00    +0.000 C 
ATOM      5  C   UNL     1      -1.462  -1.214   0.167  0.00  0.00    +0.000 C 
ATOM      6  O   UNL     1      -0.332  -1.764   0.098  0.00  0.00    +0.000 OA
ATOM      7  C   UNL     1      -1.589   0.075   0.838  0.00  0.00    +0.000 A 
ATOM      8  C   UNL     1      -0.678   1.078   1.067  0.00  0.00    +0.000 A 
ATOM      9  C   UNL     1      -1.422   2.040   1.763  0.00  0.00    +0.000 A 
ATOM     10  N   UNL     1      -2.685   1.608   1.920  0.00  0.00    +0.000 NA
ATOM     11  C   UNL     1      -2.826   0.397   1.361  0.00  0.00    +0.000 A 
ATOM     12  C   UNL     1      -3.915  -0.596   1.188  0.00  0.00    +0.000 C 
ENDROOT
BRANCH   8  13
ATOM     13  C   UNL     1       0.723   1.175   0.698  0.00  0.00    +0.000 C 
ATOM     14  O   UNL     1       1.413   2.170   1.038  0.00  0.00    +0.000 OA
ATOM     15  N   UNL     1       1.393   0.185  -0.051  0.00  0.00    +0.000 NA
BRANCH  15  16
ATOM     16  C   UNL     1       2.760   0.271  -0.418  0.00  0.00    +0.000 A 
ATOM     17  C   UNL     1       3.490   1.368  -0.033  0.00  0.00    +0.000 A 
ATOM     18  C   UNL     1       4.837   1.460  -0.389  0.00  0.00    +0.000 A 
ATOM     19  C   UNL     1       5.390   0.432  -1.124  0.00  0.00    +0.000 A 
ATOM     20  C   UNL     1       4.692  -0.676  -1.525  0.00  0.00    +0.000 A 
ATOM     21  C   UNL     1       3.344  -0.738  -1.152  0.00  0.00    +0.000 A 
ATOM     22  F   UNL     1       2.582  -1.804  -1.510  0.00  0.00    +0.000 F 
ENDBRANCH  15  16
ENDBRANCH   8  13
TORSDOF 2
