REMARK  Name = 
REMARK  4 active torsions:
REMARK  status: ('A' for Active; 'I' for Inactive)
REMARK    1  A    between atoms: C_2  and  C_3
REMARK    2  A    between atoms: C_8  and  N_9
REMARK    3  A    between atoms: C_10  and  C_12
REMARK    4  A    between atoms: C_16  and  N_17
REMARK                            x       y       z     vdW  Elec       q    Type
REMARK                         _______ _______ _______ _____ _____    ______ ____
ROOT
ATOM      1  N   UNL     1      -1.316   0.315  -0.370  0.00  0.00    +0.000 NA
ATOM      2  C   UNL     1      -0.153  -0.066   0.342  0.00  0.00    +0.000 C 
ATOM      3  O   UNL     1      -0.325  -0.921   1.266  0.00  0.00    +0.000 OA
ENDROOT
BRANCH   2   4
ATOM      4  C   UNL     1       1.183   0.476   0.057  0.00  0.00    +0.000 A 
ATOM      5  C   UNL     1       1.317   1.800  -0.308  0.00  0.00    +0.000 A 
ATOM      6  C   UNL     1       2.542   2.356  -0.585  0.00  0.00    +0.000 A 
ATOM      7  C   UNL     1       3.648   1.565  -0.493  0.00  0.00    +0.000 A 
ATOM      8  C   UNL     1       3.557   0.239  -0.132  0.00  0.00    +0.000 A 
ATOM      9  C   UNL     1       2.307  -0.290   0.140  0.00  0.00    +0.000 A 
ATOM     10  C   UNL     1       2.170  -1.729   0.535  0.00  0.00    +0.000 C 
BRANCH   8  11
ATOM     11  N   UNL     1       4.696  -0.605  -0.030  0.00  0.00    +0.000 N 
ATOM     12  O   UNL     1       5.697  -0.349  -0.723  0.00  0.00    +0.000 OA
ATOM     13  O   UNL     1       4.760  -1.697   0.798  0.00  0.00    +0.000 OA
ENDBRANCH   8  11
ENDBRANCH   2   4
BRANCH   1  19
ATOM     14  C   UNL     1      -3.737   0.121  -0.739  0.00  0.00    +0.000 A 
ATOM     15  C   UNL     1      -4.974  -0.402  -0.451  0.00  0.00    +0.000 A 
ATOM     16  C   UNL     1      -5.120  -1.335   0.562  0.00  0.00    +0.000 A 
ATOM     17  C   UNL     1      -3.984  -1.702   1.251  0.00  0.00    +0.000 A 
ATOM     18  C   UNL     1      -2.741  -1.171   0.956  0.00  0.00    +0.000 A 
ATOM     19  C   UNL     1      -2.595  -0.238  -0.058  0.00  0.00    +0.000 A 
BRANCH  14  21
ATOM     20  C   UNL     1      -3.378   2.497  -1.203  0.00  0.00    +0.000 C 
ATOM     21  C   UNL     1      -3.554   1.135  -1.835  0.00  0.00    +0.000 C 
ENDBRANCH  14  21
ENDBRANCH   1  19
TORSDOF 4
