REMARK  Name = 
REMARK  2 active torsions:
REMARK  status: ('A' for Active; 'I' for Inactive)
REMARK    1  A    between atoms: O_2  and  C_3
REMARK    2  A    between atoms: C_6  and  C_7
REMARK                            x       y       z     vdW  Elec       q    Type
REMARK                         _______ _______ _______ _____ _____    ______ ____
ROOT
ATOM      1  C   UNL     1      -0.301   0.027   0.062  0.00  0.00    +0.000 A 
ATOM      2  O   UNL     1       0.671  -0.251   0.898  0.00  0.00    +0.000 OA
ATOM      3  C   UNL     1       1.910   0.122   0.652  0.00  0.00    +0.000 A 
ATOM      4  C   UNL     1       2.905  -0.182   1.544  0.00  0.00    +0.000 A 
ATOM      5  C   UNL     1       2.560  -0.939   2.791  0.00  0.00    +0.000 C 
ATOM      6  C   UNL     1       4.219   0.179   1.346  0.00  0.00    +0.000 A 
ATOM      7  C   UNL     1       4.587   0.882   0.206  0.00  0.00    +0.000 A 
ATOM      8  C   UNL     1       5.996   1.290  -0.046  0.00  0.00    +0.000 C 
ATOM      9  C   UNL     1       3.583   1.186  -0.689  0.00  0.00    +0.000 A 
ATOM     10  C   UNL     1       2.269   0.821  -0.483  0.00  0.00    +0.000 A 
ATOM     11  C   UNL     1       1.257   1.121  -1.373  0.00  0.00    +0.000 A 
ATOM     12  O   UNL     1       1.510   1.748  -2.417  0.00  0.00    +0.000 OA
ATOM     13  C   UNL     1      -0.033   0.712  -1.081  0.00  0.00    +0.000 A 
ATOM     14  O   UNL     1      -1.053   1.008  -1.966  0.00  0.00    +0.000 OA
ENDROOT
BRANCH   1  18
ATOM     15  C   UNL     1      -4.287  -1.201   0.902  0.00  0.00    +0.000 A 
ATOM     16  C   UNL     1      -3.258  -1.481   1.762  0.00  0.00    +0.000 A 
ATOM     17  C   UNL     1      -1.959  -1.097   1.517  0.00  0.00    +0.000 A 
ATOM     18  C   UNL     1      -1.668  -0.398   0.357  0.00  0.00    +0.000 A 
ATOM     19  C   UNL     1      -2.685  -0.115  -0.504  0.00  0.00    +0.000 A 
ATOM     20  C   UNL     1      -3.999  -0.505  -0.253  0.00  0.00    +0.000 A 
BRANCH  15  22
ATOM     21  C   UNL     1      -6.646  -1.322   0.308  0.00  0.00    +0.000 C 
ATOM     22  O   UNL     1      -5.576  -1.607   1.190  0.00  0.00    +0.000 OA
ENDBRANCH  15  22
ENDBRANCH   1  18
TORSDOF 2
