REMARK  Name = 
REMARK  2 active torsions:
REMARK  status: ('A' for Active; 'I' for Inactive)
REMARK    1  A    between atoms: C_4  and  C_5
REMARK    2  A    between atoms: N_7  and  N_8
REMARK                            x       y       z     vdW  Elec       q    Type
REMARK                         _______ _______ _______ _____ _____    ______ ____
ROOT
ATOM      1  N   UNL     1      -0.469  -1.383  -0.398  0.00  0.00    +0.000 NA
ATOM      2  C   UNL     1      -1.307  -0.467   0.006  0.00  0.00    +0.000 C 
ATOM      3  C   UNL     1      -1.040   0.694   0.836  0.00  0.00    +0.000 C 
ATOM      4  O   UNL     1       0.074   1.021   1.319  0.00  0.00    +0.000 OA
ATOM      5  N   UNL     1      -2.267   1.381   0.996  0.00  0.00    +0.000 NA
ATOM      6  C   UNL     1      -3.312   0.690   0.289  0.00  0.00    +0.000 A 
ATOM      7  C   UNL     1      -4.657   0.983   0.160  0.00  0.00    +0.000 A 
ATOM      8  C   UNL     1      -5.200   2.183   0.823  0.00  0.00    +0.000 C 
ATOM      9  C   UNL     1      -5.427   0.117  -0.596  0.00  0.00    +0.000 A 
ATOM     10  C   UNL     1      -4.887  -0.996  -1.202  0.00  0.00    +0.000 A 
ATOM     11  C   UNL     1      -3.533  -1.269  -1.057  0.00  0.00    +0.000 A 
ATOM     12  C   UNL     1      -2.744  -0.415  -0.304  0.00  0.00    +0.000 A 
ENDROOT
BRANCH   1  15
ATOM     13  C   UNL     1       1.772  -0.330  -0.584  0.00  0.00    +0.000 C 
ATOM     14  O   UNL     1       1.415   0.350  -1.554  0.00  0.00    +0.000 OA
ATOM     15  N   UNL     1       0.852  -1.216   0.028  0.00  0.00    +0.000 NA
BRANCH  13  19
ATOM     16  C   UNL     1       6.608   1.029   0.098  0.00  0.00    +0.000 C 
ATOM     17  C   UNL     1       5.251   0.412   0.185  0.00  0.00    +0.000 A 
ATOM     18  C   UNL     1       4.145   0.626  -0.591  0.00  0.00    +0.000 A 
ATOM     19  C   UNL     1       3.147  -0.188  -0.101  0.00  0.00    +0.000 A 
ATOM     20  C   UNL     1       3.707  -0.871   0.970  0.00  0.00    +0.000 A 
ATOM     21  C   UNL     1       2.941  -1.870   1.788  0.00  0.00    +0.000 C 
ATOM     22  O   UNL     1       4.931  -0.481   1.089  0.00  0.00    +0.000 OA
ENDBRANCH  13  19
ENDBRANCH   1  15
TORSDOF 2
