REMARK  Name = 
REMARK  2 active torsions:
REMARK  status: ('A' for Active; 'I' for Inactive)
REMARK    1  A    between atoms: C_6  and  C_7
REMARK    2  A    between atoms: N_9  and  C_10
REMARK                            x       y       z     vdW  Elec       q    Type
REMARK                         _______ _______ _______ _____ _____    ______ ____
ROOT
ATOM      1  N   UNL     1      -0.895  -3.603  -0.591  0.00  0.00    +0.000 NA
ATOM      2  C   UNL     1      -1.529  -2.357  -0.220  0.00  0.00    +0.000 A 
ATOM      3  S   UNL     1      -3.182  -2.000  -0.011  0.00  0.00    +0.000 S 
ATOM      4  C   UNL     1      -3.059  -0.357   0.412  0.00  0.00    +0.000 A 
ATOM      5  C   UNL     1      -1.715  -0.129   0.379  0.00  0.00    +0.000 A 
ATOM      6  C   UNL     1      -0.920  -1.160   0.052  0.00  0.00    +0.000 A 
ATOM      7  C   UNL     1      -1.033   1.192   0.678  0.00  0.00    +0.000 C 
ATOM      8  C   UNL     1      -0.832   1.908  -0.636  0.00  0.00    +0.000 C 
ATOM      9  C   UNL     1      -2.200   2.225  -1.213  0.00  0.00    +0.000 C 
ATOM     10  C   UNL     1      -3.155   2.375  -0.042  0.00  0.00    +0.000 C 
ATOM     11  C   UNL     1      -4.414   1.574  -0.225  0.00  0.00    +0.000 C 
ATOM     12  C   UNL     1      -4.331   0.358   0.688  0.00  0.00    +0.000 C 
ENDROOT
BRANCH   6  13
ATOM     13  C   UNL     1       0.560  -1.034  -0.018  0.00  0.00    +0.000 C 
ATOM     14  O   UNL     1       1.289  -1.985  -0.319  0.00  0.00    +0.000 OA
ATOM     15  N   UNL     1       1.231   0.196   0.259  0.00  0.00    +0.000 NA
BRANCH  15  16
ATOM     16  C   UNL     1       2.642   0.328   0.195  0.00  0.00    +0.000 A 
ATOM     17  C   UNL     1       3.449  -0.737  -0.141  0.00  0.00    +0.000 A 
ATOM     18  C   UNL     1       4.825  -0.614  -0.205  0.00  0.00    +0.000 A 
ATOM     19  C   UNL     1       5.393   0.602   0.075  0.00  0.00    +0.000 A 
ATOM     20  C   UNL     1       4.634   1.681   0.411  0.00  0.00    +0.000 A 
ATOM     21  C   UNL     1       3.242   1.535   0.470  0.00  0.00    +0.000 A 
ENDBRANCH  15  16
ENDBRANCH   6  13
TORSDOF 2
