REMARK  Name = 
REMARK  4 active torsions:
REMARK  status: ('A' for Active; 'I' for Inactive)
REMARK    1  A    between atoms: C_2  and  C_3
REMARK    2  A    between atoms: C_2  and  N_5
REMARK    3  A    between atoms: N_5  and  N_6
REMARK    4  A    between atoms: C_7  and  C_9
REMARK                            x       y       z     vdW  Elec       q    Type
REMARK                         _______ _______ _______ _____ _____    ______ ____
ROOT
ATOM      1  C   UNL     1       0.405  -0.774   0.092  0.00  0.00    +0.000 A 
ATOM      2  C   UNL     1       0.733   0.537  -0.188  0.00  0.00    +0.000 A 
ATOM      3  C   UNL     1       1.996   1.053  -0.057  0.00  0.00    +0.000 A 
ATOM      4  C   UNL     1       2.323   2.362  -0.336  0.00  0.00    +0.000 A 
ATOM      5  C   UNL     1       3.600   2.861  -0.198  0.00  0.00    +0.000 A 
ATOM      6  C   UNL     1       4.561   1.978   0.241  0.00  0.00    +0.000 A 
ATOM      7  C   UNL     1       4.267   0.664   0.529  0.00  0.00    +0.000 A 
ATOM      8  C   UNL     1       2.985   0.188   0.384  0.00  0.00    +0.000 A 
ATOM      9  C   UNL     1       2.680  -1.133   0.670  0.00  0.00    +0.000 A 
ATOM     10  C   UNL     1       1.383  -1.633   0.528  0.00  0.00    +0.000 A 
ATOM     11  O   UNL     1       1.113  -2.954   0.822  0.00  0.00    +0.000 OA
ENDROOT
BRANCH   1  13
ATOM     12  N   UNL     1      -2.022  -0.426  -0.516  0.00  0.00    +0.000 NA
ATOM     13  C   UNL     1      -0.974  -1.270  -0.069  0.00  0.00    +0.000 C 
ATOM     14  O   UNL     1      -1.241  -2.465   0.192  0.00  0.00    +0.000 OA
BRANCH  12  15
ATOM     15  N   UNL     1      -3.342  -0.845  -0.685  0.00  0.00    +0.000 NA
BRANCH  15  17
ATOM     16  C   UNL     1      -4.890  -0.909   1.140  0.00  0.00    +0.000 C 
ATOM     17  C   UNL     1      -4.422  -0.300   0.061  0.00  0.00    +0.000 C 
BRANCH  17  18
ATOM     18  C   UNL     1      -5.085   0.973  -0.321  0.00  0.00    +0.000 C 
ATOM     19  C   UNL     1      -4.068   2.090  -0.307  0.00  0.00    +0.000 C 
ENDBRANCH  17  18
ENDBRANCH  15  17
ENDBRANCH  12  15
ENDBRANCH   1  13
TORSDOF 4
