REMARK  Name = 
REMARK  4 active torsions:
REMARK  status: ('A' for Active; 'I' for Inactive)
REMARK    1  A    between atoms: O_2  and  C_3
REMARK    2  A    between atoms: C_6  and  C_7
REMARK    3  A    between atoms: C_12  and  C_13
REMARK    4  A    between atoms: C_16  and  O_17
REMARK                            x       y       z     vdW  Elec       q    Type
REMARK                         _______ _______ _______ _____ _____    ______ ____
ROOT
ATOM      1  C   UNL     1      -1.093   1.128   1.437  0.00  0.00    +0.000 A 
ATOM      2  N   UNL     1      -1.888   1.734   2.314  0.00  0.00    +0.000 NA
ATOM      3  S   UNL     1      -0.874   2.723   3.204  0.00  0.00    +0.000 S 
ATOM      4  C   UNL     1       0.598   2.354   2.438  0.00  0.00    +0.000 A 
ATOM      5  O   UNL     1       1.903   2.841   2.688  0.00  0.00    +0.000 OA
ATOM      6  C   UNL     1       0.231   1.441   1.484  0.00  0.00    +0.000 A 
ENDROOT
BRANCH   1  10
ATOM      7  C   UNL     1      -2.789  -1.690  -1.315  0.00  0.00    +0.000 A 
ATOM      8  C   UNL     1      -2.855  -1.914   0.023  0.00  0.00    +0.000 A 
ATOM      9  C   UNL     1      -2.303  -0.994   0.900  0.00  0.00    +0.000 A 
ATOM     10  C   UNL     1      -1.681   0.153   0.462  0.00  0.00    +0.000 A 
ATOM     11  C   UNL     1      -1.621   0.366  -0.895  0.00  0.00    +0.000 A 
ATOM     12  C   UNL     1      -2.173  -0.552  -1.784  0.00  0.00    +0.000 A 
BRANCH   7  14
ATOM     13  C   UNL     1      -3.967  -3.747  -1.973  0.00  0.00    +0.000 C 
ATOM     14  O   UNL     1      -3.308  -2.543  -2.278  0.00  0.00    +0.000 OA
ENDBRANCH   7  14
ENDBRANCH   1  10
BRANCH   6  15
ATOM     15  C   UNL     1       1.248   0.845   0.569  0.00  0.00    +0.000 A 
ATOM     16  C   UNL     1       1.522  -0.506   0.564  0.00  0.00    +0.000 A 
ATOM     17  C   UNL     1       2.465  -1.054  -0.284  0.00  0.00    +0.000 A 
ATOM     18  C   UNL     1       3.171  -0.266  -1.163  0.00  0.00    +0.000 A 
ATOM     19  C   UNL     1       2.909   1.084  -1.171  0.00  0.00    +0.000 A 
ATOM     20  C   UNL     1       1.961   1.624  -0.315  0.00  0.00    +0.000 A 
BRANCH  18  21
ATOM     21  O   UNL     1       4.133  -0.825  -2.029  0.00  0.00    +0.000 OA
ATOM     22  C   UNL     1       4.410  -2.203  -2.031  0.00  0.00    +0.000 C 
ENDBRANCH  18  21
ENDBRANCH   6  15
TORSDOF 4
