REMARK  Name = 
REMARK  1 active torsions:
REMARK  status: ('A' for Active; 'I' for Inactive)
REMARK    1  A    between atoms: C_6  and  C_7
REMARK                            x       y       z     vdW  Elec       q    Type
REMARK                         _______ _______ _______ _____ _____    ______ ____
ROOT
ATOM      1  C   UNL     1       2.407   2.671   1.274  0.00  0.00    +0.000 C 
ATOM      2  N   UNL     1       1.463   2.009   0.403  0.00  0.00    +0.000 N 
ATOM      3  C   UNL     1       0.380   2.745  -0.167  0.00  0.00    +0.000 C 
ATOM      4  O   UNL     1       0.310   3.993   0.142  0.00  0.00    +0.000 OA
ATOM      5  N   UNL     1      -0.482   2.103  -0.974  0.00  0.00    +0.000 NA
ATOM      6  C   UNL     1      -0.533   0.711  -1.403  0.00  0.00    +0.000 C 
ATOM      7  C   UNL     1       0.672   0.037  -0.731  0.00  0.00    +0.000 C 
ATOM      8  C   UNL     1       1.526   0.619   0.050  0.00  0.00    +0.000 C 
ATOM      9  C   UNL     1       2.698  -0.045   0.693  0.00  0.00    +0.000 C 
ATOM     10  C   UNL     1       2.865  -1.473   0.380  0.00  0.00    +0.000 C 
ATOM     11  C   UNL     1       3.823  -1.586  -0.817  0.00  0.00    +0.000 C 
ATOM     12  C   UNL     1       3.572  -2.172   1.527  0.00  0.00    +0.000 C 
ATOM     13  C   UNL     1       1.581  -2.176   0.024  0.00  0.00    +0.000 C 
ATOM     14  C   UNL     1       0.883  -1.394  -1.011  0.00  0.00    +0.000 C 
ATOM     15  O   UNL     1       0.495  -1.939  -2.071  0.00  0.00    +0.000 OA
ENDROOT
BRANCH   6  16
ATOM     16  C   UNL     1      -1.691   0.151  -0.528  0.00  0.00    +0.000 A 
ATOM     17  C   UNL     1      -2.578  -0.630  -1.221  0.00  0.00    +0.000 A 
ATOM     18  C   UNL     1      -3.683  -1.208  -0.558  0.00  0.00    +0.000 A 
ATOM     19  C   UNL     1      -3.856  -0.979   0.785  0.00  0.00    +0.000 A 
ATOM     20  O   UNL     1      -4.972  -1.571   1.425  0.00  0.00    +0.000 OA
ATOM     21  C   UNL     1      -2.974  -0.204   1.469  0.00  0.00    +0.000 A 
ATOM     22  C   UNL     1      -1.906   0.340   0.767  0.00  0.00    +0.000 A 
ENDBRANCH   6  16
TORSDOF 1
