REMARK  Name = 
REMARK  2 active torsions:
REMARK  status: ('A' for Active; 'I' for Inactive)
REMARK    1  A    between atoms: C_2  and  C_3
REMARK    2  A    between atoms: N_15  and  C_16
REMARK                            x       y       z     vdW  Elec       q    Type
REMARK                         _______ _______ _______ _____ _____    ______ ____
ROOT
ATOM      1  C   UNL     1       0.087   0.709  -1.001  0.00  0.00    +0.000 C 
ATOM      2  C   UNL     1      -0.015  -0.219  -0.076  0.00  0.00    +0.000 C 
ATOM      3  N   UNL     1       1.034  -1.018   0.430  0.00  0.00    +0.000 NA
ATOM      4  N   UNL     1       2.361  -0.956   0.032  0.00  0.00    +0.000 NA
ATOM      5  C   UNL     1       2.790  -0.139  -0.868  0.00  0.00    +0.000 C 
ATOM      6  N   UNL     1       4.143  -0.151  -1.202  0.00  0.00    +0.000 NA
ATOM      7  S   UNL     1       1.708   1.009  -1.705  0.00  0.00    +0.000 S 
ENDROOT
BRANCH   2   8
ATOM      8  C   UNL     1      -1.335  -0.462   0.496  0.00  0.00    +0.000 A 
ATOM      9  C   UNL     1      -1.705  -1.381   1.480  0.00  0.00    +0.000 A 
ATOM     10  N   UNL     1      -3.026  -1.252   1.692  0.00  0.00    +0.000 NA
ATOM     11  C   UNL     1      -3.536  -0.296   0.896  0.00  0.00    +0.000 A 
ATOM     12  C   UNL     1      -4.796   0.239   0.700  0.00  0.00    +0.000 A 
ATOM     13  C   UNL     1      -5.006   1.239  -0.216  0.00  0.00    +0.000 A 
ATOM     14  C   UNL     1      -3.962   1.747  -0.974  0.00  0.00    +0.000 A 
ATOM     15  C   UNL     1      -2.723   1.213  -0.773  0.00  0.00    +0.000 A 
ATOM     16  C   UNL     1      -2.498   0.193   0.158  0.00  0.00    +0.000 A 
ENDBRANCH   2   8
BRANCH   6  17
ATOM     17  C   UNL     1       5.095  -0.713  -0.234  0.00  0.00    +0.000 C 
ATOM     18  C   UNL     1       5.165  -0.077   1.092  0.00  0.00    +0.000 C 
ATOM     19  C   UNL     1       6.219   0.314   0.073  0.00  0.00    +0.000 C 
ENDBRANCH   6  17
TORSDOF 2
