REMARK  Name = 
REMARK  4 active torsions:
REMARK  status: ('A' for Active; 'I' for Inactive)
REMARK    1  A    between atoms: O_2  and  C_3
REMARK    2  A    between atoms: C_9  and  S_10
REMARK    3  A    between atoms: S_10  and  C_11
REMARK    4  A    between atoms: C_14  and  C_15
REMARK                            x       y       z     vdW  Elec       q    Type
REMARK                         _______ _______ _______ _____ _____    ______ ____
ROOT
ATOM      1  C   UNL     1       2.890  -1.208  -0.037  0.00  0.00    +0.000 A 
ATOM      2  C   UNL     1       3.348  -0.005  -0.551  0.00  0.00    +0.000 A 
ATOM      3  C   UNL     1       2.539   1.099  -0.693  0.00  0.00    +0.000 A 
ATOM      4  C   UNL     1       1.207   1.060  -0.322  0.00  0.00    +0.000 A 
ATOM      5  C   UNL     1       0.739  -0.133   0.191  0.00  0.00    +0.000 A 
ATOM      6  C   UNL     1       1.562  -1.247   0.332  0.00  0.00    +0.000 A 
ATOM      7  C   UNL     1      -0.588   0.110   0.471  0.00  0.00    +0.000 A 
ATOM      8  C   UNL     1      -0.886   1.409   0.131  0.00  0.00    +0.000 A 
ATOM      9  N   UNL     1       0.232   1.994  -0.361  0.00  0.00    +0.000 N 
ATOM     10  C   UNL     1       0.337   3.372  -0.836  0.00  0.00    +0.000 C 
ENDROOT
BRANCH   8  11
ATOM     11  C   UNL     1      -2.197   2.054   0.279  0.00  0.00    +0.000 C 
ATOM     12  N   UNL     1      -2.400   3.397  -0.120  0.00  0.00    +0.000 NA
ATOM     13  O   UNL     1      -3.161   1.405   0.767  0.00  0.00    +0.000 OA
ENDBRANCH   8  11
BRANCH   1  15
ATOM     14  C   UNL     1       3.350  -3.544   0.605  0.00  0.00    +0.000 C 
ATOM     15  O   UNL     1       3.757  -2.305   0.086  0.00  0.00    +0.000 OA
ENDBRANCH   1  15
BRANCH   7  16
ATOM     16  S   UNL     1      -1.777  -1.025   1.147  0.00  0.00    +0.000 S 
BRANCH  16  17
ATOM     17  C   UNL     1      -2.714  -1.927  -0.011  0.00  0.00    +0.000 C 
ATOM     18  C   UNL     1      -2.098  -2.905  -0.889  0.00  0.00    +0.000 C 
ATOM     19  C   UNL     1      -4.140  -1.601  -0.188  0.00  0.00    +0.000 C 
ENDBRANCH  16  17
ENDBRANCH   7  16
TORSDOF 4
