REMARK  Name = 
REMARK  3 active torsions:
REMARK  status: ('A' for Active; 'I' for Inactive)
REMARK    1  A    between atoms: O_2  and  C_3
REMARK    2  A    between atoms: C_3  and  C_5
REMARK    3  A    between atoms: C_16  and  C_17
REMARK                            x       y       z     vdW  Elec       q    Type
REMARK                         _______ _______ _______ _____ _____    ______ ____
ROOT
ATOM      1  C   UNL     1      -1.093  -0.809  -0.296  0.00  0.00    +0.000 C 
ATOM      2  C   UNL     1      -0.992  -1.867   0.459  0.00  0.00    +0.000 C 
ATOM      3  N   UNL     1      -2.200  -2.601   0.778  0.00  0.00    +0.000 NA
ATOM      4  O   UNL     1       0.233  -2.309   0.963  0.00  0.00    +0.000 OA
ATOM      5  C   UNL     1       1.334  -1.579   0.628  0.00  0.00    +0.000 C 
ATOM      6  C   UNL     1       1.343  -0.507  -0.121  0.00  0.00    +0.000 C 
ATOM      7  C   UNL     1       2.614   0.173  -0.395  0.00  0.00    +0.000 C 
ATOM      8  O   UNL     1       2.612   1.400  -0.321  0.00  0.00    +0.000 OA
ATOM      9  C   UNL     1       3.748  -0.667  -0.726  0.00  0.00    +0.000 C 
ATOM     10  C   UNL     1       3.729  -1.928   0.070  0.00  0.00    +0.000 C 
ATOM     11  C   UNL     1       2.704  -1.988   1.134  0.00  0.00    +0.000 C 
ATOM     12  C   UNL     1       0.053   0.086  -0.732  0.00  0.00    +0.000 C 
ENDROOT
BRANCH  12  13
ATOM     13  C   UNL     1      -0.161   1.345   0.119  0.00  0.00    +0.000 A 
ATOM     14  C   UNL     1      -0.552   1.647   1.323  0.00  0.00    +0.000 A 
ATOM     15  C   UNL     1      -0.602   2.927   1.694  0.00  0.00    +0.000 A 
ATOM     16  C   UNL     1      -0.229   3.862   0.764  0.00  0.00    +0.000 A 
ATOM     17  S   UNL     1       0.167   2.838  -0.580  0.00  0.00    +0.000 S 
ENDBRANCH  12  13
BRANCH   1  18
ATOM     18  C   UNL     1      -2.456  -0.460  -0.758  0.00  0.00    +0.000 C 
ATOM     19  O   UNL     1      -3.470  -1.131  -0.452  0.00  0.00    +0.000 OA
BRANCH  18  21
ATOM     20  C   UNL     1      -4.046   0.945  -1.993  0.00  0.00    +0.000 C 
ATOM     21  O   UNL     1      -2.737   0.622  -1.558  0.00  0.00    +0.000 OA
ENDBRANCH  18  21
ENDBRANCH   1  18
TORSDOF 3
