REMARK  Name = 
REMARK  5 active torsions:
REMARK  status: ('A' for Active; 'I' for Inactive)
REMARK    1  A    between atoms: C_2  and  O_3
REMARK    2  A    between atoms: O_3  and  C_4
REMARK    3  A    between atoms: C_7  and  C_8
REMARK    4  A    between atoms: C_15  and  C_16
REMARK    5  A    between atoms: C_16  and  C_18
REMARK                            x       y       z     vdW  Elec       q    Type
REMARK                         _______ _______ _______ _____ _____    ______ ____
ROOT
ATOM      1  C   UNL     1      -1.780   0.626  -0.323  0.00  0.00    +0.000 A 
ATOM      2  C   UNL     1      -0.658   1.680  -0.227  0.00  0.00    +0.000 A 
ATOM      3  C   UNL     1       0.524   1.139   0.019  0.00  0.00    +0.000 A 
ATOM      4  C   UNL     1       0.962  -0.123   0.215  0.00  0.00    +0.000 A 
ATOM      5  C   UNL     1      -0.066  -1.107   0.138  0.00  0.00    +0.000 A 
ATOM      6  C   UNL     1      -1.353  -0.556  -0.133  0.00  0.00    +0.000 A 
ENDROOT
BRANCH   4   7
ATOM      7  C   UNL     1       2.349  -0.471   0.461  0.00  0.00    +0.000 A 
ATOM      8  C   UNL     1       3.403   0.463   0.427  0.00  0.00    +0.000 A 
ATOM      9  C   UNL     1       4.576  -0.188   0.668  0.00  0.00    +0.000 A 
ATOM     10  N   UNL     1       5.887   0.384   0.722  0.00  0.00    +0.000 NA
ATOM     11  O   UNL     1       4.272  -1.451   0.841  0.00  0.00    +0.000 OA
ATOM     12  N   UNL     1       2.971  -1.600   0.715  0.00  0.00    +0.000 NA
ENDBRANCH   4   7
BRANCH   6  13
ATOM     13  C   UNL     1      -2.369  -1.825  -0.323  0.00  0.00    +0.000 C 
ATOM     14  C   UNL     1      -2.286  -2.314   1.202  0.00  0.00    +0.000 C 
BRANCH  13  15
ATOM     15  C   UNL     1      -3.731  -1.283  -0.523  0.00  0.00    +0.000 C 
ATOM     16  C   UNL     1      -3.772  -0.525  -1.850  0.00  0.00    +0.000 C 
ENDBRANCH  13  15
ENDBRANCH   6  13
BRANCH   1  17
ATOM     17  O   UNL     1      -2.967   1.201  -0.568  0.00  0.00    +0.000 OA
BRANCH  17  19
ATOM     18  C   UNL     1      -2.771   3.362   0.512  0.00  0.00    +0.000 C 
ATOM     19  C   UNL     1      -3.191   2.589  -0.749  0.00  0.00    +0.000 C 
ENDBRANCH  17  19
ENDBRANCH   1  17
TORSDOF 5
