REMARK  Name = 
REMARK  3 active torsions:
REMARK  status: ('A' for Active; 'I' for Inactive)
REMARK    1  A    between atoms: O_2  and  C_3
REMARK    2  A    between atoms: N_6  and  C_7
REMARK    3  A    between atoms: N_16  and  C_17
REMARK                            x       y       z     vdW  Elec       q    Type
REMARK                         _______ _______ _______ _____ _____    ______ ____
ROOT
ATOM      1  C   UNL     1      -1.148   1.166  -0.119  0.00  0.00    +0.000 A 
ATOM      2  N   UNL     1       0.065   0.583  -0.035  0.00  0.00    +0.000 NA
ATOM      3  C   UNL     1       0.178  -0.734   0.212  0.00  0.00    +0.000 A 
ATOM      4  N   UNL     1       1.425  -1.381   0.307  0.00  0.00    +0.000 NA
ATOM      5  N   UNL     1      -0.965  -1.428   0.368  0.00  0.00    +0.000 NA
ATOM      6  C   UNL     1      -2.186  -0.875   0.290  0.00  0.00    +0.000 A 
ATOM      7  N   UNL     1      -3.381  -1.629   0.459  0.00  0.00    +0.000 NA
ATOM      8  N   UNL     1      -2.288   0.456   0.040  0.00  0.00    +0.000 NA
ENDROOT
BRANCH   4   9
ATOM      9  C   UNL     1       2.673  -0.740   0.158  0.00  0.00    +0.000 A 
ATOM     10  C   UNL     1       2.692   0.613  -0.098  0.00  0.00    +0.000 A 
ATOM     11  C   UNL     1       3.893   1.308  -0.256  0.00  0.00    +0.000 A 
ATOM     12  C   UNL     1       5.077   0.629  -0.153  0.00  0.00    +0.000 A 
ATOM     13 CL   UNL     1       6.564   1.555  -0.361  0.00  0.00    +0.000 Cl
ATOM     14  C   UNL     1       5.088  -0.714   0.100  0.00  0.00    +0.000 A 
ATOM     15  C   UNL     1       3.876  -1.397   0.256  0.00  0.00    +0.000 A 
ENDBRANCH   4   9
BRANCH   7  16
ATOM     16  C   UNL     1      -4.684  -0.996   0.367  0.00  0.00    +0.000 C 
ATOM     17  C   UNL     1      -4.710   0.072   1.462  0.00  0.00    +0.000 C 
ATOM     18  C   UNL     1      -5.798  -1.957   0.680  0.00  0.00    +0.000 C 
ATOM     19  C   UNL     1      -4.910  -0.418  -0.993  0.00  0.00    +0.000 C 
ENDBRANCH   7  16
BRANCH   1  21
ATOM     20  C   UNL     1      -0.161   3.356  -0.556  0.00  0.00    +0.000 C 
ATOM     21  O   UNL     1      -1.300   2.533  -0.375  0.00  0.00    +0.000 OA
ENDBRANCH   1  21
TORSDOF 3
