REMARK  Name = 
REMARK  2 active torsions:
REMARK  status: ('A' for Active; 'I' for Inactive)
REMARK    1  A    between atoms: O_2  and  C_3
REMARK    2  A    between atoms: C_7  and  C_8
REMARK                            x       y       z     vdW  Elec       q    Type
REMARK                         _______ _______ _______ _____ _____    ______ ____
ROOT
ATOM      1  C   UNL     1       0.318   1.421  -0.594  0.00  0.00    +0.000 C 
ATOM      2  C   UNL     1      -0.079   2.550   0.463  0.00  0.00    +0.000 C 
ATOM      3  C   UNL     1      -1.269   3.218  -0.159  0.00  0.00    +0.000 C 
ATOM      4  O   UNL     1      -1.257   4.363  -0.588  0.00  0.00    +0.000 OA
ATOM      5  N   UNL     1      -2.436   2.351  -0.193  0.00  0.00    +0.000 NA
ATOM      6  C   UNL     1      -2.149   0.957  -0.331  0.00  0.00    +0.000 A 
ATOM      7  C   UNL     1      -3.234   0.062  -0.278  0.00  0.00    +0.000 A 
ATOM      8  C   UNL     1      -3.016  -1.293  -0.325  0.00  0.00    +0.000 A 
ATOM      9  C   UNL     1      -4.115  -2.292  -0.273  0.00  0.00    +0.000 C 
ATOM     10  C   UNL     1      -1.727  -1.764  -0.424  0.00  0.00    +0.000 A 
ATOM     11  C   UNL     1      -1.498  -3.262  -0.474  0.00  0.00    +0.000 C 
ATOM     12  C   UNL     1      -0.697  -0.879  -0.475  0.00  0.00    +0.000 A 
ATOM     13  C   UNL     1      -0.909   0.480  -0.430  0.00  0.00    +0.000 A 
ENDROOT
BRANCH   1  18
ATOM     14  C   UNL     1       3.014  -1.099   0.180  0.00  0.00    +0.000 A 
ATOM     15  C   UNL     1       3.207  -0.958   1.544  0.00  0.00    +0.000 A 
ATOM     16  C   UNL     1       2.448  -0.022   2.246  0.00  0.00    +0.000 A 
ATOM     17  C   UNL     1       1.518   0.750   1.584  0.00  0.00    +0.000 A 
ATOM     18  C   UNL     1       1.343   0.608   0.292  0.00  0.00    +0.000 A 
ATOM     19  C   UNL     1       2.087  -0.321  -0.445  0.00  0.00    +0.000 A 
BRANCH  14  21
ATOM     20  C   UNL     1       4.717  -2.861  -0.023  0.00  0.00    +0.000 C 
ATOM     21  O   UNL     1       3.734  -2.010  -0.580  0.00  0.00    +0.000 OA
ENDBRANCH  14  21
ENDBRANCH   1  18
TORSDOF 2
