REMARK  Name = 
REMARK  3 active torsions:
REMARK  status: ('A' for Active; 'I' for Inactive)
REMARK    1  A    between atoms: C_7  and  C_8
REMARK    2  A    between atoms: C_8  and  C_10
REMARK    3  A    between atoms: C_10  and  C_11
REMARK                            x       y       z     vdW  Elec       q    Type
REMARK                         _______ _______ _______ _____ _____    ______ ____
ROOT
ATOM      1  C   UNL     1      -0.337  -0.180  -1.240  0.00  0.00    +0.000 C 
ENDROOT
BRANCH   1   2
ATOM      2  C   UNL     1       1.107  -0.325  -0.940  0.00  0.00    +0.000 A 
ATOM      3  C   UNL     1       1.761  -1.535  -0.959  0.00  0.00    +0.000 A 
ATOM      4  C   UNL     1       3.109  -1.641  -0.675  0.00  0.00    +0.000 A 
ATOM      5  C   UNL     1       3.859  -0.533  -0.359  0.00  0.00    +0.000 A 
ATOM      6  C   UNL     1       3.221   0.692  -0.334  0.00  0.00    +0.000 A 
ATOM      7  C   UNL     1       1.874   0.787  -0.620  0.00  0.00    +0.000 A 
ATOM      8  O   UNL     1       3.818   1.907  -0.038  0.00  0.00    +0.000 OA
ATOM      9  C   UNL     1       5.193   2.288  -0.083  0.00  0.00    +0.000 C 
ATOM     10  C   UNL     1       6.061   1.288   0.646  0.00  0.00    +0.000 C 
ATOM     11  C   UNL     1       6.328   0.048  -0.149  0.00  0.00    +0.000 C 
ATOM     12  O   UNL     1       5.197  -0.813  -0.101  0.00  0.00    +0.000 OA
ENDBRANCH   1   2
BRANCH   1  13
ATOM     13  C   UNL     1      -1.167  -0.304  -0.041  0.00  0.00    +0.000 C 
ATOM     14  O   UNL     1      -0.648  -0.507   1.073  0.00  0.00    +0.000 OA
BRANCH  13  21
ATOM     15  C   UNL     1      -5.659  -0.314   2.087  0.00  0.00    +0.000 C 
ATOM     16  C   UNL     1      -4.793  -0.193   0.884  0.00  0.00    +0.000 A 
ATOM     17  C   UNL     1      -5.417   0.034  -0.334  0.00  0.00    +0.000 A 
ATOM     18  O   UNL     1      -6.783   0.144  -0.436  0.00  0.00    +0.000 OA
ATOM     19  C   UNL     1      -4.623   0.146  -1.442  0.00  0.00    +0.000 A 
ATOM     20  C   UNL     1      -3.255   0.036  -1.339  0.00  0.00    +0.000 A 
ATOM     21  C   UNL     1      -2.617  -0.192  -0.120  0.00  0.00    +0.000 A 
ATOM     22  C   UNL     1      -3.426  -0.303   0.991  0.00  0.00    +0.000 A 
ATOM     23  O   UNL     1      -2.804  -0.530   2.211  0.00  0.00    +0.000 OA
ENDBRANCH  13  21
ENDBRANCH   1  13
TORSDOF 3
