REMARK  Name = 
REMARK  2 active torsions:
REMARK  status: ('A' for Active; 'I' for Inactive)
REMARK    1  A    between atoms: C_8  and  C_9
REMARK    2  A    between atoms: N_11  and  C_12
REMARK                            x       y       z     vdW  Elec       q    Type
REMARK                         _______ _______ _______ _____ _____    ______ ____
ROOT
ATOM      1  C   UNL     1      -5.248   0.286  -0.182  0.00  0.00    +0.000 C 
ATOM      2  C   UNL     1      -3.801  -0.019   0.226  0.00  0.00    +0.000 C 
ATOM      3  C   UNL     1      -3.677  -0.073   1.744  0.00  0.00    +0.000 C 
ATOM      4  C   UNL     1      -2.899   1.071  -0.318  0.00  0.00    +0.000 C 
ATOM      5  C   UNL     1      -1.524   0.585  -0.554  0.00  0.00    +0.000 C 
ATOM      6  O   UNL     1      -0.698   1.336  -1.097  0.00  0.00    +0.000 OA
ATOM      7  C   UNL     1      -1.082  -0.759  -0.173  0.00  0.00    +0.000 A 
ATOM      8  C   UNL     1       0.146  -1.310   0.114  0.00  0.00    +0.000 A 
ATOM      9  C   UNL     1      -0.126  -2.641   0.400  0.00  0.00    +0.000 A 
ATOM     10  N   UNL     1      -1.446  -2.863   0.287  0.00  0.00    +0.000 NA
ATOM     11  C   UNL     1      -2.050  -1.723  -0.062  0.00  0.00    +0.000 A 
ATOM     12  C   UNL     1      -3.462  -1.383  -0.321  0.00  0.00    +0.000 C 
ENDROOT
BRANCH   8  13
ATOM     13  C   UNL     1       1.434  -0.639   0.119  0.00  0.00    +0.000 C 
ATOM     14  O   UNL     1       2.472  -1.332   0.385  0.00  0.00    +0.000 OA
ATOM     15  N   UNL     1       1.665   0.714  -0.141  0.00  0.00    +0.000 NA
BRANCH  15  16
ATOM     16  C   UNL     1       2.980   1.319  -0.118  0.00  0.00    +0.000 A 
ATOM     17  C   UNL     1       4.087   0.624   0.156  0.00  0.00    +0.000 A 
ATOM     18  C   UNL     1       5.269   1.279   0.153  0.00  0.00    +0.000 A 
ATOM     19  S   UNL     1       4.821   2.876  -0.237  0.00  0.00    +0.000 S 
ATOM     20  C   UNL     1       3.139   2.653  -0.382  0.00  0.00    +0.000 A 
ENDBRANCH  15  16
ENDBRANCH   8  13
TORSDOF 2
