REMARK  Name = 
REMARK  4 active torsions:
REMARK  status: ('A' for Active; 'I' for Inactive)
REMARK    1  A    between atoms: C_2  and  C_12
REMARK    2  A    between atoms: N_3  and  C_4
REMARK    3  A    between atoms: C_4  and  N_6
REMARK    4  A    between atoms: C_15  and  N_16
REMARK                            x       y       z     vdW  Elec       q    Type
REMARK                         _______ _______ _______ _____ _____    ______ ____
ROOT
ATOM      1  O   UNL     1      -0.435  -2.422   0.561  0.00  0.00    +0.000 OA
ATOM      2  C   UNL     1      -0.093  -1.262   0.218  0.00  0.00    +0.000 C 
ATOM      3  N   UNL     1      -1.135  -0.404  -0.229  0.00  0.00    +0.000 NA
ENDROOT
BRANCH   2   4
ATOM      4  C   UNL     1       1.304  -0.820   0.276  0.00  0.00    +0.000 A 
ATOM      5  C   UNL     1       2.316  -1.646   0.708  0.00  0.00    +0.000 A 
ATOM      6  C   UNL     1       3.622  -1.230   0.761  0.00  0.00    +0.000 A 
ATOM      7  C   UNL     1       3.961   0.052   0.376  0.00  0.00    +0.000 A 
ATOM      8  C   UNL     1       2.976   0.897  -0.058  0.00  0.00    +0.000 A 
ATOM      9  C   UNL     1       1.675   0.451  -0.101  0.00  0.00    +0.000 A 
BRANCH   7  10
ATOM     10  N   UNL     1       5.317   0.509   0.422  0.00  0.00    +0.000 N 
ATOM     11  O   UNL     1       6.230  -0.246   0.815  0.00  0.00    +0.000 OA
ATOM     12  O   UNL     1       5.571   1.792   0.024  0.00  0.00    +0.000 OA
ENDBRANCH   7  10
ENDBRANCH   2   4
BRANCH   3  13
ATOM     13  C   UNL     1      -2.496  -0.793  -0.299  0.00  0.00    +0.000 C 
ATOM     14  S   UNL     1      -3.008  -2.274   0.128  0.00  0.00    +0.000 S 
BRANCH  13  15
ATOM     15  N   UNL     1      -3.420   0.176  -0.766  0.00  0.00    +0.000 N 
ATOM     16  C   UNL     1      -3.000   1.513  -1.158  0.00  0.00    +0.000 C 
ATOM     17  C   UNL     1      -3.763   2.591  -0.443  0.00  0.00    +0.000 C 
ATOM     18  C   UNL     1      -5.233   2.318  -0.368  0.00  0.00    +0.000 C 
ATOM     19  C   UNL     1      -5.549   0.896   0.019  0.00  0.00    +0.000 C 
ATOM     20  C   UNL     1      -4.840  -0.098  -0.885  0.00  0.00    +0.000 C 
ENDBRANCH  13  15
ENDBRANCH   3  13
TORSDOF 4
