REMARK  Name = 
REMARK  4 active torsions:
REMARK  status: ('A' for Active; 'I' for Inactive)
REMARK    1  A    between atoms: C_2  and  O_3
REMARK    2  A    between atoms: O_3  and  C_4
REMARK    3  A    between atoms: C_4  and  C_6
REMARK    4  A    between atoms: C_17  and  C_18
REMARK                            x       y       z     vdW  Elec       q    Type
REMARK                         _______ _______ _______ _____ _____    ______ ____
ROOT
ATOM      1  C   UNL     1       0.440  -1.097   0.326  0.00  0.00    +0.000 C 
ATOM      2  C   UNL     1      -0.227  -1.519   1.326  0.00  0.00    +0.000 C 
ATOM      3  N   UNL     1       0.478  -2.327   2.335  0.00  0.00    +0.000 NA
ATOM      4  O   UNL     1      -1.578  -1.284   1.555  0.00  0.00    +0.000 OA
ATOM      5  C   UNL     1      -2.187  -0.523   0.576  0.00  0.00    +0.000 C 
ATOM      6  C   UNL     1      -1.626  -0.030  -0.494  0.00  0.00    +0.000 C 
ATOM      7  C   UNL     1      -2.419   0.751  -1.422  0.00  0.00    +0.000 C 
ATOM      8  O   UNL     1      -1.962   1.778  -1.917  0.00  0.00    +0.000 OA
ATOM      9  C   UNL     1      -3.765   0.272  -1.744  0.00  0.00    +0.000 C 
ATOM     10  C   UNL     1      -4.376  -0.395  -0.569  0.00  0.00    +0.000 C 
ATOM     11  C   UNL     1      -3.674  -0.195   0.718  0.00  0.00    +0.000 C 
ATOM     12  C   UNL     1      -0.116  -0.260  -0.789  0.00  0.00    +0.000 C 
ENDROOT
BRANCH  12  13
ATOM     13  C   UNL     1       0.546   1.128  -0.525  0.00  0.00    +0.000 A 
ATOM     14  C   UNL     1       1.626   1.679  -1.056  0.00  0.00    +0.000 A 
ATOM     15  C   UNL     1       1.962   2.898  -0.632  0.00  0.00    +0.000 A 
ATOM     16  C   UNL     1       1.169   3.489   0.315  0.00  0.00    +0.000 A 
ATOM     17  S   UNL     1      -0.032   2.260   0.559  0.00  0.00    +0.000 S 
ENDBRANCH  12  13
BRANCH   1  18
ATOM     18  C   UNL     1       1.856  -1.430   0.227  0.00  0.00    +0.000 C 
ATOM     19  O   UNL     1       2.438  -2.121   1.100  0.00  0.00    +0.000 OA
BRANCH  18  20
ATOM     20  O   UNL     1       2.620  -0.995  -0.839  0.00  0.00    +0.000 OA
BRANCH  20  22
ATOM     21  C   UNL     1       4.834  -0.784   0.148  0.00  0.00    +0.000 C 
ATOM     22  C   UNL     1       3.993  -1.292  -0.978  0.00  0.00    +0.000 C 
ENDBRANCH  20  22
ENDBRANCH  18  20
ENDBRANCH   1  18
TORSDOF 4
