REMARK  Name = 
REMARK  4 active torsions:
REMARK  status: ('A' for Active; 'I' for Inactive)
REMARK    1  A    between atoms: C_2  and  C_3
REMARK    2  A    between atoms: C_5  and  C_6
REMARK    3  A    between atoms: C_10  and  C_11
REMARK    4  A    between atoms: C_20  and  O_21
REMARK                            x       y       z     vdW  Elec       q    Type
REMARK                         _______ _______ _______ _____ _____    ______ ____
ROOT
ATOM      1  C   UNL     1      -2.012   0.709   0.729  0.00  0.00    +0.000 A 
ATOM      2  C   UNL     1      -0.912  -0.122   0.788  0.00  0.00    +0.000 A 
ATOM      3  C   UNL     1      -0.506  -0.894  -0.283  0.00  0.00    +0.000 A 
ATOM      4  C   UNL     1      -1.211  -0.851  -1.465  0.00  0.00    +0.000 A 
ATOM      5  O   UNL     1      -0.842  -1.614  -2.581  0.00  0.00    +0.000 OA
ATOM      6  C   UNL     1      -2.317  -0.012  -1.515  0.00  0.00    +0.000 A 
ATOM      7  C   UNL     1      -2.714   0.750  -0.453  0.00  0.00    +0.000 A 
ENDROOT
BRANCH   3   8
ATOM      8  C   UNL     1       0.663  -1.751  -0.158  0.00  0.00    +0.000 A 
ATOM      9  O   UNL     1       0.690  -3.061  -0.249  0.00  0.00    +0.000 OA
ATOM     10  N   UNL     1       1.902  -3.511  -0.088  0.00  0.00    +0.000 NA
ATOM     11  C   UNL     1       2.723  -2.452   0.120  0.00  0.00    +0.000 A 
ATOM     12  C   UNL     1       1.956  -1.306   0.081  0.00  0.00    +0.000 A 
BRANCH  12  13
ATOM     13  C   UNL     1       2.393   0.075   0.251  0.00  0.00    +0.000 A 
ATOM     14  C   UNL     1       1.951   0.863   1.292  0.00  0.00    +0.000 A 
ATOM     15  C   UNL     1       2.357   2.166   1.462  0.00  0.00    +0.000 A 
ATOM     16  C   UNL     1       3.241   2.728   0.568  0.00  0.00    +0.000 A 
ATOM     17  C   UNL     1       3.700   1.956  -0.486  0.00  0.00    +0.000 A 
ATOM     18  C   UNL     1       3.286   0.668  -0.636  0.00  0.00    +0.000 A 
ENDBRANCH  12  13
ENDBRANCH   3   8
BRANCH   1  20
ATOM     19  C   UNL     1      -3.586   0.921   2.639  0.00  0.00    +0.000 C 
ATOM     20  C   UNL     1      -2.386   1.508   1.923  0.00  0.00    +0.000 C 
ENDBRANCH   1  20
BRANCH   7  21
ATOM     21  O   UNL     1      -3.825   1.593  -0.502  0.00  0.00    +0.000 OA
ATOM     22  C   UNL     1      -4.549   1.639  -1.717  0.00  0.00    +0.000 C 
ENDBRANCH   7  21
TORSDOF 4
