REMARK  Name = 
REMARK  4 active torsions:
REMARK  status: ('A' for Active; 'I' for Inactive)
REMARK    1  A    between atoms: C_2  and  O_5
REMARK    2  A    between atoms: O_5  and  C_6
REMARK    3  A    between atoms: N_8  and  N_9
REMARK    4  A    between atoms: N_9  and  C_10
REMARK                            x       y       z     vdW  Elec       q    Type
REMARK                         _______ _______ _______ _____ _____    ______ ____
ROOT
ATOM      1  N   UNL     1      -0.130   0.082  -1.396  0.00  0.00    +0.000 NA
ENDROOT
BRANCH   1   2
ATOM      2  C   UNL     1      -1.452   0.513  -1.098  0.00  0.00    +0.000 C 
ATOM      3  C   UNL     1      -2.090   1.414  -1.849  0.00  0.00    +0.000 C 
ATOM      4  C   UNL     1      -3.454   1.668  -1.295  0.00  0.00    +0.000 C 
ATOM      5  C   UNL     1      -3.538   0.791  -0.106  0.00  0.00    +0.000 A 
ATOM      6  C   UNL     1      -4.545   0.594   0.801  0.00  0.00    +0.000 A 
ATOM      7  C   UNL     1      -4.322  -0.320   1.838  0.00  0.00    +0.000 A 
ATOM      8  C   UNL     1      -3.146  -0.994   1.949  0.00  0.00    +0.000 A 
ATOM      9  C   UNL     1      -2.144  -0.768   1.007  0.00  0.00    +0.000 A 
ATOM     10  C   UNL     1      -2.345   0.116  -0.006  0.00  0.00    +0.000 A 
ENDBRANCH   1   2
BRANCH   1  13
ATOM     11  C   UNL     1       2.157  -0.228  -0.483  0.00  0.00    +0.000 C 
ATOM     12  O   UNL     1       2.528  -0.657  -1.603  0.00  0.00    +0.000 OA
ATOM     13  N   UNL     1       0.798   0.158  -0.349  0.00  0.00    +0.000 NA
BRANCH  11  14
ATOM     14  O   UNL     1       2.978  -0.108   0.617  0.00  0.00    +0.000 OA
BRANCH  14  16
ATOM     15  C   UNL     1       4.963   0.379  -0.553  0.00  0.00    +0.000 C 
ATOM     16  C   UNL     1       4.340  -0.485   0.517  0.00  0.00    +0.000 C 
ATOM     17  C   UNL     1       4.963  -0.222   1.887  0.00  0.00    +0.000 C 
ATOM     18  C   UNL     1       4.440  -1.932   0.121  0.00  0.00    +0.000 C 
ENDBRANCH  14  16
ENDBRANCH  11  14
ENDBRANCH   1  13
TORSDOF 4
