REMARK  Name = 
REMARK  5 active torsions:
REMARK  status: ('A' for Active; 'I' for Inactive)
REMARK    1  A    between atoms: C_2  and  O_3
REMARK    2  A    between atoms: O_3  and  C_4
REMARK    3  A    between atoms: C_4  and  C_6
REMARK    4  A    between atoms: N_9  and  C_10
REMARK    5  A    between atoms: C_10  and  C_11
REMARK                            x       y       z     vdW  Elec       q    Type
REMARK                         _______ _______ _______ _____ _____    ______ ____
ROOT
ATOM      1  C   UNL     1      -1.986  -0.329  -0.259  0.00  0.00    +0.000 A 
ATOM      2  C   UNL     1      -1.743  -0.738  -1.550  0.00  0.00    +0.000 A 
ATOM      3  N   UNL     1      -0.641  -0.082  -1.958  0.00  0.00    +0.000 NA
ATOM      4  N   UNL     1      -0.180   0.707  -1.012  0.00  0.00    +0.000 N 
ATOM      5  C   UNL     1      -0.993   0.571   0.044  0.00  0.00    +0.000 A 
ATOM      6  N   UNL     1      -0.857   1.256   1.304  0.00  0.00    +0.000 NA
ENDROOT
BRANCH   1   7
ATOM      7  C   UNL     1      -3.050  -0.731   0.635  0.00  0.00    +0.000 C 
ATOM      8  O   UNL     1      -3.115  -0.246   1.793  0.00  0.00    +0.000 OA
BRANCH   7   9
ATOM      9  O   UNL     1      -4.029  -1.654   0.255  0.00  0.00    +0.000 OA
BRANCH   9  11
ATOM     10  C   UNL     1      -5.741  -0.672   1.535  0.00  0.00    +0.000 C 
ATOM     11  C   UNL     1      -5.022  -1.978   1.201  0.00  0.00    +0.000 C 
ENDBRANCH   9  11
ENDBRANCH   7   9
ENDBRANCH   1   7
BRANCH   4  12
ATOM     12  C   UNL     1       0.974   1.560  -1.075  0.00  0.00    +0.000 C 
BRANCH  12  13
ATOM     13  C   UNL     1       2.212   0.870  -0.628  0.00  0.00    +0.000 A 
ATOM     14  C   UNL     1       2.636   0.874   0.693  0.00  0.00    +0.000 A 
ATOM     15  C   UNL     1       3.805   0.205   1.037  0.00  0.00    +0.000 A 
ATOM     16  C   UNL     1       4.573  -0.471   0.112  0.00  0.00    +0.000 A 
ATOM     17 CL   UNL     1       6.039  -1.293   0.616  0.00  0.00    +0.000 Cl
ATOM     18  C   UNL     1       4.144  -0.469  -1.198  0.00  0.00    +0.000 A 
ATOM     19  C   UNL     1       2.976   0.199  -1.543  0.00  0.00    +0.000 A 
ENDBRANCH  12  13
ENDBRANCH   4  12
TORSDOF 5
