REMARK  Name = 
REMARK  4 active torsions:
REMARK  status: ('A' for Active; 'I' for Inactive)
REMARK    1  A    between atoms: C_2  and  C_3
REMARK    2  A    between atoms: C_3  and  C_4
REMARK    3  A    between atoms: C_4  and  C_5
REMARK    4  A    between atoms: N_11  and  C_12
REMARK                            x       y       z     vdW  Elec       q    Type
REMARK                         _______ _______ _______ _____ _____    ______ ____
ROOT
ATOM      1  O   UNL     1      -0.177  -0.008   0.799  0.00  0.00    +0.000 OA
ATOM      2  C   UNL     1       0.047  -1.029   0.102  0.00  0.00    +0.000 C 
ATOM      3  N   UNL     1      -1.011  -1.571  -0.687  0.00  0.00    +0.000 NA
ENDROOT
BRANCH   3   4
ATOM      4  C   UNL     1      -2.268  -0.928  -0.647  0.00  0.00    +0.000 A 
ATOM      5  C   UNL     1      -3.295  -1.443  -1.404  0.00  0.00    +0.000 A 
ATOM      6  C   UNL     1      -4.544  -0.851  -1.400  0.00  0.00    +0.000 A 
ATOM      7  C   UNL     1      -4.716   0.264  -0.612  0.00  0.00    +0.000 A 
ATOM      8  C   UNL     1      -3.726   0.824   0.167  0.00  0.00    +0.000 A 
ATOM      9  O   UNL     1      -3.965   1.952   0.940  0.00  0.00    +0.000 OA
ATOM     10  C   UNL     1      -2.487   0.188   0.125  0.00  0.00    +0.000 A 
ENDBRANCH   3   4
BRANCH   2  11
ATOM     11  C   UNL     1       1.397  -1.632   0.125  0.00  0.00    +0.000 C 
BRANCH  11  12
ATOM     12  C   UNL     1       2.283  -0.838   1.044  0.00  0.00    +0.000 C 
BRANCH  12  13
ATOM     13  C   UNL     1       2.370   0.576   0.547  0.00  0.00    +0.000 C 
ATOM     14  C   UNL     1       2.946   0.558  -0.835  0.00  0.00    +0.000 C 
ATOM     15  C   UNL     1       4.432   0.771  -0.876  0.00  0.00    +0.000 C 
ATOM     16  C   UNL     1       5.048   0.355   0.420  0.00  0.00    +0.000 C 
ATOM     17  C   UNL     1       4.579   1.310   1.493  0.00  0.00    +0.000 C 
ATOM     18  C   UNL     1       3.087   1.502   1.474  0.00  0.00    +0.000 C 
ENDBRANCH  12  13
ENDBRANCH  11  12
ENDBRANCH   2  11
TORSDOF 4
