REMARK  Name = 
REMARK  2 active torsions:
REMARK  status: ('A' for Active; 'I' for Inactive)
REMARK    1  A    between atoms: C_2  and  C_5
REMARK    2  A    between atoms: C_7  and  C_8
REMARK                            x       y       z     vdW  Elec       q    Type
REMARK                         _______ _______ _______ _____ _____    ______ ____
ROOT
ATOM      1  C   UNL     1      -2.938  -0.166  -0.054  0.00  0.00    +0.000 A 
ATOM      2  C   UNL     1      -1.757   0.349   0.457  0.00  0.00    +0.000 A 
ATOM      3  C   UNL     1      -0.521  -0.168   0.168  0.00  0.00    +0.000 A 
ATOM      4  N   UNL     1      -0.493  -1.248  -0.672  0.00  0.00    +0.000 NA
ATOM      5  C   UNL     1      -1.631  -1.776  -1.190  0.00  0.00    +0.000 A 
ATOM      6  N   UNL     1      -1.559  -2.902  -2.047  0.00  0.00    +0.000 NA
ATOM      7  N   UNL     1      -2.817  -1.229  -0.872  0.00  0.00    +0.000 NA
ENDROOT
BRANCH   3   8
ATOM      8  C   UNL     1       0.753   0.350   0.632  0.00  0.00    +0.000 A 
ATOM      9  C   UNL     1       0.884   1.216   1.697  0.00  0.00    +0.000 A 
ATOM     10  C   UNL     1       2.147   1.711   2.058  0.00  0.00    +0.000 A 
ATOM     11  C   UNL     1       3.276   1.376   1.392  0.00  0.00    +0.000 A 
ATOM     12  F   UNL     1       4.510   1.850   1.735  0.00  0.00    +0.000 F 
ATOM     13  C   UNL     1       3.156   0.492   0.298  0.00  0.00    +0.000 A 
ATOM     14  C   UNL     1       4.314   0.172  -0.402  0.00  0.00    +0.000 A 
ATOM     15  C   UNL     1       4.189  -0.682  -1.504  0.00  0.00    +0.000 A 
ATOM     16  C   UNL     1       2.926  -1.164  -1.844  0.00  0.00    +0.000 A 
ATOM     17  C   UNL     1       1.815  -0.830  -1.133  0.00  0.00    +0.000 A 
ATOM     18  C   UNL     1       1.916   0.010  -0.046  0.00  0.00    +0.000 A 
ENDBRANCH   3   8
BRANCH   1  20
ATOM     19  C   UNL     1      -4.196   1.830  -0.396  0.00  0.00    +0.000 C 
ATOM     20  C   UNL     1      -4.265   0.462   0.298  0.00  0.00    +0.000 C 
ATOM     21  C   UNL     1      -5.414  -0.342  -0.229  0.00  0.00    +0.000 C 
ATOM     22  F   UNL     1      -4.296   0.689   1.654  0.00  0.00    +0.000 F 
ENDBRANCH   1  20
TORSDOF 2
