REMARK  Name = 
REMARK  1 active torsions:
REMARK  status: ('A' for Active; 'I' for Inactive)
REMARK    1  A    between atoms: O_2  and  C_3
REMARK                            x       y       z     vdW  Elec       q    Type
REMARK                         _______ _______ _______ _____ _____    ______ ____
ROOT
ATOM      1  C   UNL     1      -4.137  -0.372  -0.647  0.00  0.00    +0.000 A 
ATOM      2  C   UNL     1      -4.395  -1.400   0.229  0.00  0.00    +0.000 A 
ATOM      3  C   UNL     1      -3.412  -1.976   1.006  0.00  0.00    +0.000 A 
ATOM      4  C   UNL     1      -2.101  -1.530   0.930  0.00  0.00    +0.000 A 
ATOM      5  N   UNL     1      -0.956  -1.876   1.537  0.00  0.00    +0.000 NA
ATOM      6  C   UNL     1       0.077  -1.103   1.091  0.00  0.00    +0.000 A 
ATOM      7  N   UNL     1       1.388  -1.070   1.394  0.00  0.00    +0.000 NA
ATOM      8  C   UNL     1       2.199  -0.190   0.793  0.00  0.00    +0.000 A 
ATOM      9  C   UNL     1       3.566  -0.141   1.095  0.00  0.00    +0.000 A 
ATOM     10  C   UNL     1       4.327   0.793   0.432  0.00  0.00    +0.000 A 
ATOM     11  C   UNL     1       5.799   0.897   0.711  0.00  0.00    +0.000 C 
ATOM     12  C   UNL     1       3.794   1.660  -0.496  0.00  0.00    +0.000 A 
ATOM     13  C   UNL     1       4.617   2.665  -1.208  0.00  0.00    +0.000 C 
ATOM     14  C   UNL     1       2.444   1.590  -0.775  0.00  0.00    +0.000 A 
ATOM     15  C   UNL     1       1.636   0.663  -0.131  0.00  0.00    +0.000 A 
ATOM     16  N   UNL     1       0.320   0.646  -0.449  0.00  0.00    +0.000 NA
ATOM     17  C   UNL     1      -0.487  -0.250   0.167  0.00  0.00    +0.000 A 
ATOM     18  C   UNL     1      -1.839  -0.500   0.053  0.00  0.00    +0.000 A 
ATOM     19  C   UNL     1      -2.839   0.082  -0.734  0.00  0.00    +0.000 A 
ENDROOT
BRANCH   1  21
ATOM     20  C   UNL     1      -4.834   1.241  -2.300  0.00  0.00    +0.000 C 
ATOM     21  O   UNL     1      -5.169   0.172  -1.407  0.00  0.00    +0.000 OA
ENDBRANCH   1  21
TORSDOF 1
