REMARK  Name = 
REMARK  3 active torsions:
REMARK  status: ('A' for Active; 'I' for Inactive)
REMARK    1  A    between atoms: C_4  and  C_5
REMARK    2  A    between atoms: C_13  and  N_14
REMARK    3  A    between atoms: N_14  and  C_15
REMARK                            x       y       z     vdW  Elec       q    Type
REMARK                         _______ _______ _______ _____ _____    ______ ____
ROOT
ATOM      1  C   UNL     1       1.444   0.290  -0.041  0.00  0.00    +0.000 A 
ATOM      2  N   UNL     1       1.437   1.618  -0.215  0.00  0.00    +0.000 NA
ATOM      3  C   UNL     1       0.147   2.060  -0.276  0.00  0.00    +0.000 A 
ATOM      4  N   UNL     1      -0.329   3.307  -0.440  0.00  0.00    +0.000 NA
ATOM      5  C   UNL     1      -1.649   3.547  -0.473  0.00  0.00    +0.000 A 
ATOM      6  C   UNL     1      -2.527   2.492  -0.336  0.00  0.00    +0.000 A 
ATOM      7  C   UNL     1      -1.997   1.230  -0.170  0.00  0.00    +0.000 A 
ATOM      8  N   UNL     1      -0.676   0.984  -0.136  0.00  0.00    +0.000 N 
ATOM      9  C   UNL     1       0.122  -0.089   0.006  0.00  0.00    +0.000 A 
ENDROOT
BRANCH   1  13
ATOM     10  C   UNL     1       3.995  -2.388   0.315  0.00  0.00    +0.000 A 
ATOM     11  C   UNL     1       5.054  -1.537   0.205  0.00  0.00    +0.000 A 
ATOM     12  S   UNL     1       4.280  -0.031   0.006  0.00  0.00    +0.000 S 
ATOM     13  C   UNL     1       2.652  -0.528   0.068  0.00  0.00    +0.000 A 
ATOM     14  C   UNL     1       2.771  -1.879   0.246  0.00  0.00    +0.000 A 
ENDBRANCH   1  13
BRANCH   9  15
ATOM     15  N   UNL     1      -0.324  -1.420   0.181  0.00  0.00    +0.000 NA
BRANCH  15  16
ATOM     16  C   UNL     1      -1.665  -1.881   0.238  0.00  0.00    +0.000 C 
ATOM     17  C   UNL     1      -2.487  -1.609  -1.003  0.00  0.00    +0.000 C 
ATOM     18  C   UNL     1      -3.923  -1.539  -0.524  0.00  0.00    +0.000 C 
ATOM     19  C   UNL     1      -3.889  -1.356   0.964  0.00  0.00    +0.000 C 
ATOM     20  C   UNL     1      -2.436  -1.268   1.385  0.00  0.00    +0.000 C 
ENDBRANCH  15  16
ENDBRANCH   9  15
TORSDOF 3
