REMARK  Name = 
REMARK  5 active torsions:
REMARK  status: ('A' for Active; 'I' for Inactive)
REMARK    1  A    between atoms: C_7  and  N_8
REMARK    2  A    between atoms: N_8  and  C_9
REMARK    3  A    between atoms: C_9  and  N_11
REMARK    4  A    between atoms: N_11  and  C_12
REMARK    5  A    between atoms: C_12  and  C_13
REMARK                            x       y       z     vdW  Elec       q    Type
REMARK                         _______ _______ _______ _____ _____    ______ ____
ROOT
ATOM      1  N   UNL     1      -0.400  -0.360  -0.163  0.00  0.00    +0.000 NA
ENDROOT
BRANCH   1   8
ATOM      2  C   UNL     1      -4.623   2.070  -0.452  0.00  0.00    +0.000 C 
ATOM      3  C   UNL     1      -3.942   0.775  -0.303  0.00  0.00    +0.000 A 
ATOM      4  C   UNL     1      -4.623  -0.411  -0.170  0.00  0.00    +0.000 A 
ATOM      5  C   UNL     1      -3.922  -1.590  -0.034  0.00  0.00    +0.000 A 
ATOM      6  C   UNL     1      -4.708  -2.842   0.106  0.00  0.00    +0.000 C 
ATOM      7  C   UNL     1      -2.537  -1.565  -0.033  0.00  0.00    +0.000 A 
ATOM      8  C   UNL     1      -1.822  -0.396  -0.163  0.00  0.00    +0.000 A 
ATOM      9  C   UNL     1      -2.548   0.769  -0.298  0.00  0.00    +0.000 A 
ENDBRANCH   1   8
BRANCH   1  10
ATOM     10  C   UNL     1       0.305   0.861  -0.300  0.00  0.00    +0.000 C 
ATOM     11  S   UNL     1      -0.553   2.246  -0.460  0.00  0.00    +0.000 S 
BRANCH  10  12
ATOM     12  N   UNL     1       1.719   0.871  -0.297  0.00  0.00    +0.000 NA
BRANCH  12  13
ATOM     13  C   UNL     1       2.420  -0.386  -0.151  0.00  0.00    +0.000 C 
BRANCH  13  14
ATOM     14  C   UNL     1       3.906  -0.172  -0.171  0.00  0.00    +0.000 A 
ATOM     15  C   UNL     1       4.717   0.069   0.901  0.00  0.00    +0.000 A 
ATOM     16  C   UNL     1       6.012   0.206   0.444  0.00  0.00    +0.000 A 
ATOM     17  C   UNL     1       5.921   0.036  -0.928  0.00  0.00    +0.000 A 
ATOM     18  O   UNL     1       4.678  -0.180  -1.232  0.00  0.00    +0.000 OA
ENDBRANCH  13  14
ENDBRANCH  12  13
ENDBRANCH  10  12
ENDBRANCH   1  10
TORSDOF 5
