REMARK  Name = 
REMARK  2 active torsions:
REMARK  status: ('A' for Active; 'I' for Inactive)
REMARK    1  A    between atoms: C_4  and  C_5
REMARK    2  A    between atoms: N_15  and  C_16
REMARK                            x       y       z     vdW  Elec       q    Type
REMARK                         _______ _______ _______ _____ _____    ______ ____
ROOT
ATOM      1  C   UNL     1       2.166  -1.933  -1.338  0.00  0.00    +0.000 C 
ATOM      2  C   UNL     1       1.228  -0.823  -0.949  0.00  0.00    +0.000 A 
ATOM      3  C   UNL     1      -0.112  -0.716  -1.246  0.00  0.00    +0.000 A 
ATOM      4  C   UNL     1      -0.620   0.467  -0.707  0.00  0.00    +0.000 A 
ATOM      5  C   UNL     1       0.467   1.048  -0.086  0.00  0.00    +0.000 A 
ATOM      6  C   UNL     1       0.436   2.332   0.636  0.00  0.00    +0.000 C 
ATOM      7  N   UNL     1       1.565   0.286  -0.226  0.00  0.00    +0.000 N 
ENDROOT
BRANCH   4   8
ATOM      8  C   UNL     1      -2.003   0.908  -0.784  0.00  0.00    +0.000 C 
ATOM      9  C   UNL     1      -3.040   0.150  -0.443  0.00  0.00    +0.000 C 
ATOM     10  N   UNL     1      -4.412   0.461  -0.474  0.00  0.00    +0.000 NA
ATOM     11  C   UNL     1      -5.207  -0.621   0.016  0.00  0.00    +0.000 C 
ATOM     12  O   UNL     1      -6.470  -0.663   0.118  0.00  0.00    +0.000 OA
ATOM     13  N   UNL     1      -4.271  -1.640   0.362  0.00  0.00    +0.000 NA
ATOM     14  C   UNL     1      -2.936  -1.182   0.086  0.00  0.00    +0.000 C 
ATOM     15  O   UNL     1      -1.925  -1.892   0.304  0.00  0.00    +0.000 OA
ENDBRANCH   4   8
BRANCH   7  16
ATOM     16  C   UNL     1       2.886   0.488   0.267  0.00  0.00    +0.000 A 
ATOM     17  C   UNL     1       3.656   1.573  -0.045  0.00  0.00    +0.000 A 
ATOM     18  C   UNL     1       4.932   1.734   0.456  0.00  0.00    +0.000 A 
ATOM     19  C   UNL     1       5.471   0.792   1.296  0.00  0.00    +0.000 A 
ATOM     20  C   UNL     1       4.731  -0.308   1.631  0.00  0.00    +0.000 A 
ATOM     21  C   UNL     1       3.458  -0.462   1.128  0.00  0.00    +0.000 A 
ENDBRANCH   7  16
TORSDOF 2
