REMARK  Name = 
REMARK  3 active torsions:
REMARK  status: ('A' for Active; 'I' for Inactive)
REMARK    1  A    between atoms: O_2  and  C_3
REMARK    2  A    between atoms: C_6  and  C_7
REMARK    3  A    between atoms: N_9  and  C_10
REMARK                            x       y       z     vdW  Elec       q    Type
REMARK                         _______ _______ _______ _____ _____    ______ ____
ROOT
ATOM      1  C   UNL     1       0.456  -0.406  -0.620  0.00  0.00    +0.000 C 
ATOM      2  O   UNL     1      -0.119  -1.041  -1.534  0.00  0.00    +0.000 OA
ATOM      3  N   UNL     1      -0.298   0.453   0.181  0.00  0.00    +0.000 NA
ENDROOT
BRANCH   3   4
ATOM      4  C   UNL     1      -1.687   0.688   0.062  0.00  0.00    +0.000 A 
ATOM      5  C   UNL     1      -2.211   1.678  -0.733  0.00  0.00    +0.000 A 
ATOM      6  C   UNL     1      -1.311   2.586  -1.538  0.00  0.00    +0.000 C 
ATOM      7  C   UNL     1      -3.572   1.840  -0.793  0.00  0.00    +0.000 A 
ATOM      8  C   UNL     1      -4.409   1.028  -0.070  0.00  0.00    +0.000 A 
ATOM      9  O   UNL     1      -5.795   1.229  -0.161  0.00  0.00    +0.000 OA
ATOM     10  C   UNL     1      -3.911   0.023   0.739  0.00  0.00    +0.000 A 
ATOM     11 CL   UNL     1      -4.961  -1.027   1.671  0.00  0.00    +0.000 Cl
ATOM     12  C   UNL     1      -2.527  -0.120   0.781  0.00  0.00    +0.000 A 
ATOM     13  C   UNL     1      -2.017  -1.221   1.669  0.00  0.00    +0.000 C 
ENDBRANCH   3   4
BRANCH   1  17
ATOM     14  C   UNL     1       4.656  -0.891   0.008  0.00  0.00    +0.000 A 
ATOM     15  C   UNL     1       4.004  -1.577  -0.989  0.00  0.00    +0.000 A 
ATOM     16  C   UNL     1       2.646  -1.424  -1.196  0.00  0.00    +0.000 A 
ATOM     17  C   UNL     1       1.895  -0.575  -0.408  0.00  0.00    +0.000 A 
ATOM     18  C   UNL     1       2.565   0.106   0.589  0.00  0.00    +0.000 A 
ATOM     19  C   UNL     1       3.926  -0.038   0.807  0.00  0.00    +0.000 A 
BRANCH  14  21
ATOM     20  C   UNL     1       6.652  -0.294   1.285  0.00  0.00    +0.000 C 
ATOM     21  O   UNL     1       6.019  -1.017   0.249  0.00  0.00    +0.000 OA
ENDBRANCH  14  21
ENDBRANCH   1  17
TORSDOF 3
