REMARK  Name = 
REMARK  3 active torsions:
REMARK  status: ('A' for Active; 'I' for Inactive)
REMARK    1  A    between atoms: C_2  and  O_3
REMARK    2  A    between atoms: O_3  and  C_4
REMARK    3  A    between atoms: C_4  and  C_6
REMARK                            x       y       z     vdW  Elec       q    Type
REMARK                         _______ _______ _______ _____ _____    ______ ____
ROOT
ATOM      1  C   UNL     1       1.605  -0.046   0.162  0.00  0.00    +0.000 A 
ATOM      2  N   UNL     1       0.681   0.278   1.084  0.00  0.00    +0.000 NA
ATOM      3  C   UNL     1      -0.568   0.216   0.555  0.00  0.00    +0.000 A 
ATOM      4  C   UNL     1      -1.818   0.453   1.084  0.00  0.00    +0.000 A 
ATOM      5  C   UNL     1      -2.970   0.312   0.299  0.00  0.00    +0.000 A 
ATOM      6  N   UNL     1      -4.266   0.488   0.601  0.00  0.00    +0.000 NA
ATOM      7  C   UNL     1      -4.985   0.228  -0.499  0.00  0.00    +0.000 A 
ATOM      8  C   UNL     1      -4.147  -0.121  -1.532  0.00  0.00    +0.000 A 
ATOM      9  C   UNL     1      -2.879  -0.065  -1.020  0.00  0.00    +0.000 A 
ATOM     10  C   UNL     1      -1.601  -0.298  -1.530  0.00  0.00    +0.000 A 
ATOM     11  C   UNL     1      -1.503  -0.704  -2.947  0.00  0.00    +0.000 C 
ATOM     12  C   UNL     1      -0.463  -0.162  -0.765  0.00  0.00    +0.000 A 
ATOM     13  C   UNL     1       0.887  -0.323  -1.000  0.00  0.00    +0.000 A 
ATOM     14  C   UNL     1       1.467  -0.729  -2.298  0.00  0.00    +0.000 C 
ENDROOT
BRANCH   1  15
ATOM     15  C   UNL     1       3.054  -0.102   0.321  0.00  0.00    +0.000 C 
ATOM     16  O   UNL     1       3.806  -0.416  -0.608  0.00  0.00    +0.000 OA
BRANCH  15  17
ATOM     17  O   UNL     1       3.582   0.210   1.564  0.00  0.00    +0.000 OA
BRANCH  17  19
ATOM     18  C   UNL     1       5.153   0.588   3.296  0.00  0.00    +0.000 C 
ATOM     19  C   UNL     1       4.966   0.192   1.842  0.00  0.00    +0.000 C 
ENDBRANCH  17  19
ENDBRANCH  15  17
ENDBRANCH   1  15
TORSDOF 3
