REMARK  Name = 
REMARK  3 active torsions:
REMARK  status: ('A' for Active; 'I' for Inactive)
REMARK    1  A    between atoms: C_6  and  N_7
REMARK    2  A    between atoms: N_7  and  C_8
REMARK    3  A    between atoms: C_12  and  C_13
REMARK                            x       y       z     vdW  Elec       q    Type
REMARK                         _______ _______ _______ _____ _____    ______ ____
ROOT
ATOM      1  C   UNL     1      -4.690  -3.544  -1.528  0.00  0.00    +0.000 C 
ATOM      2  C   UNL     1      -3.714  -2.447  -1.212  0.00  0.00    +0.000 A 
ATOM      3  C   UNL     1      -4.039  -1.118  -1.373  0.00  0.00    +0.000 A 
ATOM      4  C   UNL     1      -3.124  -0.121  -1.076  0.00  0.00    +0.000 A 
ATOM      5  N   UNL     1      -1.910  -0.456  -0.627  0.00  0.00    +0.000 N 
ATOM      6  C   UNL     1      -0.811   0.322  -0.257  0.00  0.00    +0.000 A 
ATOM      7  C   UNL     1       0.177  -0.530   0.128  0.00  0.00    +0.000 A 
ATOM      8  N   UNL     1      -0.316  -1.807  -0.008  0.00  0.00    +0.000 NA
ATOM      9  C   UNL     1      -1.569  -1.722  -0.463  0.00  0.00    +0.000 A 
ATOM     10  C   UNL     1      -2.465  -2.768  -0.752  0.00  0.00    +0.000 A 
ENDROOT
BRANCH   7  11
ATOM     11  C   UNL     1       1.549  -0.267   0.580  0.00  0.00    +0.000 A 
ATOM     12  C   UNL     1       2.625  -0.909  -0.056  0.00  0.00    +0.000 A 
ATOM     13  C   UNL     1       3.926  -0.735   0.361  0.00  0.00    +0.000 A 
ATOM     14  C   UNL     1       4.234   0.081   1.429  0.00  0.00    +0.000 A 
ATOM     15  O   UNL     1       5.552   0.248   1.840  0.00  0.00    +0.000 OA
ATOM     16  C   UNL     1       3.180   0.713   2.056  0.00  0.00    +0.000 A 
ATOM     17  C   UNL     1       1.881   0.531   1.628  0.00  0.00    +0.000 A 
ENDBRANCH   7  11
BRANCH   6  18
ATOM     18  N   UNL     1      -0.876   1.684  -0.364  0.00  0.00    +0.000 NA
BRANCH  18  19
ATOM     19  C   UNL     1      -0.144   2.810  -0.126  0.00  0.00    +0.000 C 
ATOM     20  C   UNL     1       0.093   3.195   1.338  0.00  0.00    +0.000 C 
ATOM     21  C   UNL     1       1.250   2.752  -0.790  0.00  0.00    +0.000 C 
ATOM     22  C   UNL     1      -0.807   4.085  -0.726  0.00  0.00    +0.000 C 
ENDBRANCH  18  19
ENDBRANCH   6  18
TORSDOF 3
