REMARK  Name = 
REMARK  3 active torsions:
REMARK  status: ('A' for Active; 'I' for Inactive)
REMARK    1  A    between atoms: C_2  and  C_5
REMARK    2  A    between atoms: N_7  and  C_8
REMARK    3  A    between atoms: C_11  and  N_12
REMARK                            x       y       z     vdW  Elec       q    Type
REMARK                         _______ _______ _______ _____ _____    ______ ____
ROOT
ATOM      1  C   UNL     1       2.603   0.283  -0.109  0.00  0.00    +0.000 A 
ATOM      2  N   UNL     1       1.386   0.751  -0.431  0.00  0.00    +0.000 NA
ATOM      3  N   UNL     1       0.451  -0.057   0.082  0.00  0.00    +0.000 N 
ATOM      4  C   UNL     1       1.057  -1.063   0.746  0.00  0.00    +0.000 A 
ATOM      5  C   UNL     1       2.406  -0.861   0.633  0.00  0.00    +0.000 A 
ATOM      6  C   UNL     1       3.082  -1.968   1.363  0.00  0.00    +0.000 C 
ATOM      7  C   UNL     1       2.024  -3.045   1.367  0.00  0.00    +0.000 C 
ATOM      8  N   UNL     1       0.801  -2.250   1.515  0.00  0.00    +0.000 NA
ENDROOT
BRANCH   3   9
ATOM      9  C   UNL     1      -0.955   0.114  -0.048  0.00  0.00    +0.000 A 
ATOM     10  C   UNL     1      -1.707  -0.607  -0.952  0.00  0.00    +0.000 A 
ATOM     11  C   UNL     1      -3.078  -0.426  -1.064  0.00  0.00    +0.000 A 
ATOM     12  C   UNL     1      -3.747   0.484  -0.274  0.00  0.00    +0.000 A 
ATOM     13  C   UNL     1      -3.002   1.207   0.631  0.00  0.00    +0.000 A 
ATOM     14  C   UNL     1      -1.629   1.021   0.738  0.00  0.00    +0.000 A 
BRANCH  12  15
ATOM     15  N   UNL     1      -5.159   0.658  -0.401  0.00  0.00    +0.000 N 
ATOM     16  O   UNL     1      -5.839   0.019  -1.206  0.00  0.00    +0.000 OA
ATOM     17  O   UNL     1      -5.766   1.569   0.403  0.00  0.00    +0.000 OA
ENDBRANCH  12  15
ENDBRANCH   3   9
BRANCH   1  19
ATOM     18  C   UNL     1       3.732   2.139  -1.302  0.00  0.00    +0.000 C 
ATOM     19  C   UNL     1       3.917   0.899  -0.492  0.00  0.00    +0.000 C 
ATOM     20  C   UNL     1       4.764  -0.139  -1.205  0.00  0.00    +0.000 C 
ATOM     21  C   UNL     1       4.658   1.268   0.777  0.00  0.00    +0.000 C 
ENDBRANCH   1  19
TORSDOF 3
