REMARK  Name = 
REMARK  1 active torsions:
REMARK  status: ('A' for Active; 'I' for Inactive)
REMARK    1  A    between atoms: C_9  and  C_11
REMARK                            x       y       z     vdW  Elec       q    Type
REMARK                         _______ _______ _______ _____ _____    ______ ____
ROOT
ATOM      1  C   UNL     1      -5.704  -1.509   0.000  0.00  0.00    +0.000 C 
ATOM      2  N   UNL     1      -4.323  -0.922   0.000  0.00  0.00    +0.000 NA
ATOM      3  C   UNL     1      -3.037  -1.694   0.000  0.00  0.00    +0.000 C 
ATOM      4  C   UNL     1      -1.905  -0.710   0.000  0.00  0.00    +0.000 C 
ATOM      5  C   UNL     1      -2.492   0.671   0.000  0.00  0.00    +0.000 C 
ATOM      6  C   UNL     1      -3.986   0.539   0.000  0.00  0.00    +0.000 C 
ATOM      7  C   UNL     1      -2.854   1.524   0.000  0.00  0.00    +0.000 C 
ATOM      8  N   UNL     1      -1.569   0.752   0.000  0.00  0.00    +0.000 N 
ATOM      9  C   UNL     1      -0.188   1.339   0.000  0.00  0.00    +0.000 C 
ATOM     10  O   UNL     1      -0.006   2.828   0.000  0.00  0.00    +0.000 OA
ENDROOT
BRANCH   9  11
ATOM     11  C   UNL     1       1.010   0.436   0.000  0.00  0.00    +0.000 A 
ATOM     12  C   UNL     1       2.445   0.875   0.000  0.00  0.00    +0.000 A 
ATOM     13  C   UNL     1       3.305  -0.353   0.000  0.00  0.00    +0.000 A 
ATOM     14  N   UNL     1       4.805  -0.379   0.000  0.00  0.00    +0.000 N 
ATOM     15  O   UNL     1       5.577   0.907   0.000  0.00  0.00    +0.000 OA
ATOM     16  O   UNL     1       5.533  -1.690   0.000  0.00  0.00    +0.000 OA
ATOM     17  N   UNL     1       2.403  -1.551   0.000  0.00  0.00    +0.000 NA
ATOM     18  N   UNL     1       0.985  -1.063   0.000  0.00  0.00    +0.000 NA
ENDBRANCH   9  11
TORSDOF 1
