REMARK  Name = 
REMARK  5 active torsions:
REMARK  status: ('A' for Active; 'I' for Inactive)
REMARK    1  A    between atoms: N_2  and  C_4
REMARK    2  A    between atoms: N_10  and  C_11
REMARK    3  A    between atoms: C_11  and  C_12
REMARK    4  A    between atoms: C_12  and  C_13
REMARK    5  A    between atoms: C_13  and  C_14
REMARK                            x       y       z     vdW  Elec       q    Type
REMARK                         _______ _______ _______ _____ _____    ______ ____
ROOT
ATOM      1  C   UNL     1       2.433   0.927   0.814  0.00  0.00    +0.000 C 
ATOM      2  C   UNL     1       2.414  -0.235   0.191  0.00  0.00    +0.000 C 
ATOM      3  N   UNL     1       3.500  -0.653  -0.645  0.00  0.00    +0.000 NA
ATOM      4  C   UNL     1       3.704  -2.035  -1.010  0.00  0.00    +0.000 C 
ATOM      5  C   UNL     1       2.573  -2.926  -0.580  0.00  0.00    +0.000 C 
ATOM      6  C   UNL     1       1.230  -2.246  -0.545  0.00  0.00    +0.000 C 
ATOM      7  N   UNL     1       1.321  -1.095   0.316  0.00  0.00    +0.000 N 
ENDROOT
BRANCH   1   9
ATOM      8  O   UNL     1       3.424   2.805  -0.043  0.00  0.00    +0.000 OA
ATOM      9  N   UNL     1       3.515   1.825   0.700  0.00  0.00    +0.000 N 
ATOM     10  O   UNL     1       4.654   1.604   1.408  0.00  0.00    +0.000 OA
ENDBRANCH   1   9
BRANCH   7  11
ATOM     11  C   UNL     1       0.281  -0.854   1.269  0.00  0.00    +0.000 C 
BRANCH  11  12
ATOM     12  C   UNL     1      -0.954  -0.469   0.466  0.00  0.00    +0.000 C 
BRANCH  12  13
ATOM     13  C   UNL     1      -2.102  -0.217   1.411  0.00  0.00    +0.000 C 
BRANCH  13  14
ATOM     14  C   UNL     1      -3.257   0.176   0.552  0.00  0.00    +0.000 A 
ATOM     15  C   UNL     1      -4.121  -0.737  -0.000  0.00  0.00    +0.000 A 
ATOM     16  C   UNL     1      -5.190  -0.325  -0.798  0.00  0.00    +0.000 A 
ATOM     17  C   UNL     1      -5.392   1.001  -1.041  0.00  0.00    +0.000 A 
ATOM     18  C   UNL     1      -4.536   1.940  -0.493  0.00  0.00    +0.000 A 
ATOM     19  C   UNL     1      -3.496   1.514   0.283  0.00  0.00    +0.000 A 
ENDBRANCH  13  14
ENDBRANCH  12  13
ENDBRANCH  11  12
ENDBRANCH   7  11
TORSDOF 5
