REMARK  Name = 
REMARK  2 active torsions:
REMARK  status: ('A' for Active; 'I' for Inactive)
REMARK    1  A    between atoms: N_11  and  C_12
REMARK    2  A    between atoms: C_12  and  C_13
REMARK                            x       y       z     vdW  Elec       q    Type
REMARK                         _______ _______ _______ _____ _____    ______ ____
ROOT
ATOM      1  C   UNL     1      -0.217  -1.630   0.851  0.00  0.00    +0.000 C 
ENDROOT
BRANCH   1  12
ATOM      2  O   UNL     1       1.421  -1.592  -1.627  0.00  0.00    +0.000 OA
ATOM      3  C   UNL     1       1.679  -0.868  -0.621  0.00  0.00    +0.000 C 
ATOM      4  C   UNL     1       2.771   0.072  -0.496  0.00  0.00    +0.000 A 
ATOM      5  C   UNL     1       3.782   0.442  -1.353  0.00  0.00    +0.000 A 
ATOM      6  C   UNL     1       4.719   1.374  -1.002  0.00  0.00    +0.000 A 
ATOM      7  C   UNL     1       4.653   1.965   0.250  0.00  0.00    +0.000 A 
ATOM      8  C   UNL     1       3.663   1.623   1.126  0.00  0.00    +0.000 A 
ATOM      9  C   UNL     1       2.721   0.674   0.749  0.00  0.00    +0.000 A 
ATOM     10  C   UNL     1       1.573   0.125   1.471  0.00  0.00    +0.000 C 
ATOM     11  O   UNL     1       1.193   0.417   2.631  0.00  0.00    +0.000 OA
ATOM     12  N   UNL     1       0.953  -0.815   0.610  0.00  0.00    +0.000 N 
ENDBRANCH   1  12
BRANCH   1  13
ATOM     13  C   UNL     1      -1.478  -0.886   0.404  0.00  0.00    +0.000 C 
ATOM     14  C   UNL     1      -1.506   0.310   1.190  0.00  0.00    +0.000 C 
ATOM     15  C   UNL     1      -2.728   1.299   0.811  0.00  0.00    +0.000 C 
ATOM     16  C   UNL     1      -3.987   0.357   0.964  0.00  0.00    +0.000 C 
ATOM     17  C   UNL     1      -4.017  -1.119   0.396  0.00  0.00    +0.000 C 
ATOM     18  C   UNL     1      -3.692  -0.821  -1.158  0.00  0.00    +0.000 C 
ATOM     19  C   UNL     1      -2.575   0.009  -1.392  0.00  0.00    +0.000 C 
ATOM     20  O   UNL     1      -2.509   0.214  -2.777  0.00  0.00    +0.000 OA
ATOM     21  C   UNL     1      -2.570   1.287  -0.794  0.00  0.00    +0.000 C 
ATOM     22  C   UNL     1      -1.275  -0.743  -1.082  0.00  0.00    +0.000 C 
ATOM     23  C   UNL     1      -2.574  -1.695   0.850  0.00  0.00    +0.000 C 
ENDBRANCH   1  13
TORSDOF 2
