REMARK  Name = 
REMARK  3 active torsions:
REMARK  status: ('A' for Active; 'I' for Inactive)
REMARK    1  A    between atoms: C_2  and  C_13
REMARK    2  A    between atoms: N_3  and  N_4
REMARK    3  A    between atoms: C_5  and  C_6
REMARK                            x       y       z     vdW  Elec       q    Type
REMARK                         _______ _______ _______ _____ _____    ______ ____
ROOT
ATOM      1  O   UNL     1      -1.058  -1.533  -0.278  0.00  0.00    +0.000 OA
ATOM      2  C   UNL     1      -1.397  -0.961   0.722  0.00  0.00    +0.000 C 
ATOM      3  N   UNL     1      -0.468  -0.409   1.607  0.00  0.00    +0.000 NA
ENDROOT
BRANCH   2   4
ATOM      4  C   UNL     1      -2.875  -0.744   1.187  0.00  0.00    +0.000 C 
ATOM      5  C   UNL     1      -3.608  -1.456   0.015  0.00  0.00    +0.000 C 
ATOM      6  C   UNL     1      -4.490  -0.425  -0.746  0.00  0.00    +0.000 C 
ATOM      7  C   UNL     1      -5.144   0.512   0.357  0.00  0.00    +0.000 C 
ATOM      8  C   UNL     1      -4.374   1.166   1.000  0.00  0.00    +0.000 C 
ATOM      9  C   UNL     1      -2.906   0.899   0.573  0.00  0.00    +0.000 C 
ATOM     10  C   UNL     1      -3.170   0.523  -0.939  0.00  0.00    +0.000 C 
ENDBRANCH   2   4
BRANCH   3  11
ATOM     11  N   UNL     1       0.903  -0.549   1.282  0.00  0.00    +0.000 NA
ATOM     12  C   UNL     1       1.394   0.279   0.450  0.00  0.00    +0.000 C 
BRANCH  12  13
ATOM     13  C   UNL     1       2.816   0.204   0.055  0.00  0.00    +0.000 A 
ATOM     14  C   UNL     1       3.597  -0.772   0.602  0.00  0.00    +0.000 A 
ATOM     15  C   UNL     1       4.901  -0.901   0.290  0.00  0.00    +0.000 A 
ATOM     16  C   UNL     1       5.444   0.005  -0.623  0.00  0.00    +0.000 A 
ATOM     17  C   UNL     1       4.645   0.988  -1.169  0.00  0.00    +0.000 A 
ATOM     18  C   UNL     1       3.315   1.092  -0.828  0.00  0.00    +0.000 A 
ATOM     19  O   UNL     1       2.477   2.082  -1.368  0.00  0.00    +0.000 OA
ENDBRANCH  12  13
ENDBRANCH   3  11
TORSDOF 3
