REMARK  Name = 
REMARK  3 active torsions:
REMARK  status: ('A' for Active; 'I' for Inactive)
REMARK    1  A    between atoms: C_2  and  C_13
REMARK    2  A    between atoms: N_3  and  C_4
REMARK    3  A    between atoms: C_17  and  N_18
REMARK                            x       y       z     vdW  Elec       q    Type
REMARK                         _______ _______ _______ _____ _____    ______ ____
ROOT
ATOM      1  O   UNL     1      -0.027   1.923  -0.738  0.00  0.00    +0.000 OA
ATOM      2  C   UNL     1      -0.582   0.851  -0.400  0.00  0.00    +0.000 C 
ATOM      3  N   UNL     1       0.264  -0.160   0.131  0.00  0.00    +0.000 NA
ENDROOT
BRANCH   3   4
ATOM      4  C   UNL     1       1.663   0.075   0.256  0.00  0.00    +0.000 A 
ATOM      5  C   UNL     1       2.222   1.283  -0.136  0.00  0.00    +0.000 A 
ATOM      6  C   UNL     1       3.575   1.527  -0.022  0.00  0.00    +0.000 A 
ATOM      7  C   UNL     1       4.435   0.579   0.486  0.00  0.00    +0.000 A 
ATOM      8  C   UNL     1       3.899  -0.623   0.878  0.00  0.00    +0.000 A 
ATOM      9  C   UNL     1       2.523  -0.872   0.763  0.00  0.00    +0.000 A 
ATOM     10  C   UNL     1       5.005  -1.464   1.392  0.00  0.00    +0.000 C 
ATOM     11  C   UNL     1       6.209  -0.948   0.642  0.00  0.00    +0.000 C 
ATOM     12  C   UNL     1       5.928   0.563   0.715  0.00  0.00    +0.000 C 
ENDBRANCH   3   4
BRANCH   2  13
ATOM     13  C   UNL     1      -2.013   0.687  -0.557  0.00  0.00    +0.000 A 
ATOM     14  C   UNL     1      -2.743   1.725  -1.082  0.00  0.00    +0.000 A 
ATOM     15  C   UNL     1      -4.127   1.615  -1.252  0.00  0.00    +0.000 A 
ATOM     16  C   UNL     1      -4.742   0.441  -0.883  0.00  0.00    +0.000 A 
ATOM     17  C   UNL     1      -4.038  -0.620  -0.354  0.00  0.00    +0.000 A 
ATOM     18  C   UNL     1      -2.666  -0.469  -0.201  0.00  0.00    +0.000 A 
BRANCH  17  19
ATOM     19  N   UNL     1      -4.711  -1.829   0.021  0.00  0.00    +0.000 N 
ATOM     20  O   UNL     1      -4.011  -2.743   0.491  0.00  0.00    +0.000 OA
ATOM     21  O   UNL     1      -6.061  -1.928  -0.150  0.00  0.00    +0.000 OA
ENDBRANCH  17  19
ENDBRANCH   2  13
TORSDOF 3
