REMARK  Name = 
REMARK  4 active torsions:
REMARK  status: ('A' for Active; 'I' for Inactive)
REMARK    1  A    between atoms: C_4  and  N_5
REMARK    2  A    between atoms: N_5  and  C_6
REMARK    3  A    between atoms: C_6  and  N_8
REMARK    4  A    between atoms: C_9  and  C_11
REMARK                            x       y       z     vdW  Elec       q    Type
REMARK                         _______ _______ _______ _____ _____    ______ ____
ROOT
ATOM      1  C   UNL     1      -0.464   1.145   0.577  0.00  0.00    +0.000 C 
ATOM      2  S   UNL     1      -1.016   2.548   1.200  0.00  0.00    +0.000 S 
ENDROOT
BRANCH   1   3
ATOM      3  N   UNL     1       0.997   1.071   0.566  0.00  0.00    +0.000 NA
ATOM      4  C   UNL     1       1.659  -0.060   0.067  0.00  0.00    +0.000 C 
ATOM      5  O   UNL     1       0.967  -1.012  -0.372  0.00  0.00    +0.000 OA
BRANCH   4   6
ATOM      6  C   UNL     1       3.119  -0.188   0.032  0.00  0.00    +0.000 A 
ATOM      7  C   UNL     1       3.723  -1.321  -0.469  0.00  0.00    +0.000 A 
ATOM      8  C   UNL     1       5.104  -1.455  -0.508  0.00  0.00    +0.000 A 
ATOM      9  C   UNL     1       5.889  -0.425  -0.033  0.00  0.00    +0.000 A 
ATOM     10  C   UNL     1       5.307   0.731   0.479  0.00  0.00    +0.000 A 
ATOM     11  C   UNL     1       3.942   0.815   0.496  0.00  0.00    +0.000 A 
ENDBRANCH   4   6
ENDBRANCH   1   3
BRANCH   1  12
ATOM     12  N   UNL     1      -1.246   0.157   0.120  0.00  0.00    +0.000 NA
BRANCH  12  16
ATOM     13  C   UNL     1      -5.449  -2.232  -1.018  0.00  0.00    +0.000 C 
ATOM     14  C   UNL     1      -4.512  -1.178  -0.530  0.00  0.00    +0.000 A 
ATOM     15  C   UNL     1      -3.152  -1.240  -0.537  0.00  0.00    +0.000 A 
ATOM     16  C   UNL     1      -2.609  -0.030   0.016  0.00  0.00    +0.000 A 
ATOM     17  N   UNL     1      -3.708   0.669   0.313  0.00  0.00    +0.000 N 
ATOM     18  C   UNL     1      -3.729   1.997   0.910  0.00  0.00    +0.000 C 
ATOM     19  N   UNL     1      -4.822   0.007  -0.001  0.00  0.00    +0.000 NA
ENDBRANCH  12  16
ENDBRANCH   1  12
TORSDOF 4
