REMARK  Name = 
REMARK  4 active torsions:
REMARK  status: ('A' for Active; 'I' for Inactive)
REMARK    1  A    between atoms: C_2  and  C_3
REMARK    2  A    between atoms: C_3  and  C_4
REMARK    3  A    between atoms: N_8  and  C_9
REMARK    4  A    between atoms: C_14  and  N_15
REMARK                            x       y       z     vdW  Elec       q    Type
REMARK                         _______ _______ _______ _____ _____    ______ ____
ROOT
ATOM      1  C   UNL     1       0.033   0.144  -0.088  0.00  0.00    +0.000 A 
ATOM      2  C   UNL     1       0.018   1.143  -1.040  0.00  0.00    +0.000 A 
ATOM      3  C   UNL     1      -1.110   1.672  -1.588  0.00  0.00    +0.000 A 
ATOM      4  C   UNL     1      -2.324   1.177  -1.163  0.00  0.00    +0.000 A 
ATOM      5  C   UNL     1      -2.373   0.181  -0.215  0.00  0.00    +0.000 A 
ATOM      6  C   UNL     1      -3.597  -0.311   0.206  0.00  0.00    +0.000 A 
ATOM      7  C   UNL     1      -3.570  -1.307   1.157  0.00  0.00    +0.000 A 
ATOM      8  C   UNL     1      -2.413  -1.827   1.697  0.00  0.00    +0.000 A 
ATOM      9  C   UNL     1      -1.204  -1.325   1.265  0.00  0.00    +0.000 A 
ATOM     10  C   UNL     1      -1.191  -0.339   0.325  0.00  0.00    +0.000 A 
ENDROOT
BRANCH   1  13
ATOM     11  O   UNL     1       2.534   0.998  -0.807  0.00  0.00    +0.000 OA
ATOM     12  C   UNL     1       2.522   0.083   0.065  0.00  0.00    +0.000 C 
ATOM     13  N   UNL     1       1.238  -0.383   0.461  0.00  0.00    +0.000 NA
BRANCH  12  14
ATOM     14  C   UNL     1       3.779  -0.468   0.638  0.00  0.00    +0.000 C 
BRANCH  14  15
ATOM     15  C   UNL     1       4.938   0.258  -0.011  0.00  0.00    +0.000 C 
ATOM     16  C   UNL     1       6.305  -0.169   0.449  0.00  0.00    +0.000 C 
ATOM     17  C   UNL     1       6.674  -0.340  -1.030  0.00  0.00    +0.000 C 
ATOM     18  C   UNL     1       5.191  -0.376  -1.385  0.00  0.00    +0.000 C 
ENDBRANCH  14  15
ENDBRANCH  12  14
ENDBRANCH   1  13
BRANCH   6  19
ATOM     19  N   UNL     1      -4.802   0.213  -0.340  0.00  0.00    +0.000 N 
ATOM     20  O   UNL     1      -5.788  -0.526  -0.365  0.00  0.00    +0.000 OA
ATOM     21  O   UNL     1      -4.858   1.502  -0.821  0.00  0.00    +0.000 OA
ENDBRANCH   6  19
TORSDOF 4
