REMARK  Name = 
REMARK  3 active torsions:
REMARK  status: ('A' for Active; 'I' for Inactive)
REMARK    1  A    between atoms: C_2  and  C_14
REMARK    2  A    between atoms: N_3  and  C_4
REMARK    3  A    between atoms: C_18  and  N_19
REMARK                            x       y       z     vdW  Elec       q    Type
REMARK                         _______ _______ _______ _____ _____    ______ ____
ROOT
ATOM      1  O   UNL     1       0.044  -0.361   1.948  0.00  0.00    +0.000 OA
ATOM      2  C   UNL     1      -0.487  -0.147   0.821  0.00  0.00    +0.000 C 
ATOM      3  N   UNL     1       0.386  -0.069  -0.278  0.00  0.00    +0.000 NA
ENDROOT
BRANCH   3   4
ATOM      4  C   UNL     1       1.758  -0.216  -0.151  0.00  0.00    +0.000 C 
ATOM      5  C   UNL     1       2.494  -1.290  -0.827  0.00  0.00    +0.000 C 
ATOM      6  C   UNL     1       3.432  -2.023   0.143  0.00  0.00    +0.000 C 
ATOM      7  C   UNL     1       4.339  -1.060   0.853  0.00  0.00    +0.000 C 
ATOM      8  C   UNL     1       5.230  -0.298  -0.135  0.00  0.00    +0.000 C 
ATOM      9  C   UNL     1       4.287   0.454  -1.074  0.00  0.00    +0.000 C 
ATOM     10  C   UNL     1       3.467  -0.581  -1.795  0.00  0.00    +0.000 C 
ATOM     11  C   UNL     1       3.478   1.453  -0.294  0.00  0.00    +0.000 C 
ATOM     12  C   UNL     1       2.555   0.703   0.686  0.00  0.00    +0.000 C 
ATOM     13  C   UNL     1       3.527  -0.056   1.603  0.00  0.00    +0.000 C 
ENDBRANCH   3   4
BRANCH   2  14
ATOM     14  C   UNL     1      -1.927  -0.005   0.767  0.00  0.00    +0.000 A 
ATOM     15  C   UNL     1      -2.704  -0.209   1.883  0.00  0.00    +0.000 A 
ATOM     16  C   UNL     1      -4.066  -0.097   1.915  0.00  0.00    +0.000 A 
ATOM     17  C   UNL     1      -4.739   0.242   0.769  0.00  0.00    +0.000 A 
ATOM     18  C   UNL     1      -4.001   0.457  -0.372  0.00  0.00    +0.000 A 
ATOM     19  C   UNL     1      -2.611   0.338  -0.388  0.00  0.00    +0.000 A 
BRANCH  18  20
ATOM     20  N   UNL     1      -4.663   0.815  -1.578  0.00  0.00    +0.000 N 
ATOM     21  O   UNL     1      -5.888   0.900  -1.571  0.00  0.00    +0.000 OA
ATOM     22  O   UNL     1      -3.909   1.052  -2.724  0.00  0.00    +0.000 OA
ENDBRANCH  18  20
ENDBRANCH   2  14
TORSDOF 3
