REMARK  Name = 
REMARK  6 active torsions:
REMARK  status: ('A' for Active; 'I' for Inactive)
REMARK    1  A    between atoms: C_2  and  C_3
REMARK    2  A    between atoms: C_2  and  N_13
REMARK    3  A    between atoms: C_3  and  C_4
REMARK    4  A    between atoms: C_14  and  O_16
REMARK    5  A    between atoms: O_16  and  C_17
REMARK    6  A    between atoms: C_17  and  C_18
REMARK                            x       y       z     vdW  Elec       q    Type
REMARK                         _______ _______ _______ _____ _____    ______ ____
ROOT
ATOM      1  C   UNL     1       0.147   1.406  -0.962  0.00  0.00    +0.000 C 
ENDROOT
BRANCH   1   2
ATOM      2  C   UNL     1      -1.183   0.750  -1.066  0.00  0.00    +0.000 A 
ATOM      3  C   UNL     1      -1.688   0.105  -2.211  0.00  0.00    +0.000 A 
ATOM      4  N   UNL     1      -2.924  -0.362  -1.957  0.00  0.00    +0.000 NA
ATOM      5  C   UNL     1      -3.250  -0.040  -0.669  0.00  0.00    +0.000 A 
ATOM      6  C   UNL     1      -4.376  -0.253   0.085  0.00  0.00    +0.000 A 
ATOM      7  C   UNL     1      -4.478   0.195   1.391  0.00  0.00    +0.000 A 
ATOM      8  C   UNL     1      -3.395   0.884   1.947  0.00  0.00    +0.000 A 
ATOM      9  C   UNL     1      -2.260   1.097   1.180  0.00  0.00    +0.000 A 
ATOM     10  C   UNL     1      -2.162   0.651  -0.122  0.00  0.00    +0.000 A 
ENDBRANCH   1   2
BRANCH   1  12
ATOM     11  C   UNL     1       2.439   1.497  -1.709  0.00  0.00    +0.000 C 
ATOM     12  C   UNL     1       1.094   0.539  -2.000  0.00  0.00    +0.000 C 
BRANCH  12  13
ATOM     13  N   UNL     1       1.530  -0.547  -0.953  0.00  0.00    +0.000 NA
ATOM     14  C   UNL     1       2.166  -0.215   0.214  0.00  0.00    +0.000 C 
ATOM     15  O   UNL     1       2.396   0.996   0.464  0.00  0.00    +0.000 OA
BRANCH  14  16
ATOM     16  O   UNL     1       2.564  -1.195   1.124  0.00  0.00    +0.000 OA
BRANCH  16  17
ATOM     17  C   UNL     1       3.235  -0.664   2.285  0.00  0.00    +0.000 C 
BRANCH  17  18
ATOM     18  C   UNL     1       4.455   0.122   1.926  0.00  0.00    +0.000 C 
ATOM     19 CL   UNL     1       5.688  -0.809   1.034  0.00  0.00    +0.000 Cl
ENDBRANCH  17  18
ENDBRANCH  16  17
ENDBRANCH  14  16
ENDBRANCH  12  13
ENDBRANCH   1  12
TORSDOF 6
