REMARK  Name = 
REMARK  1 active torsions:
REMARK  status: ('A' for Active; 'I' for Inactive)
REMARK    1  A    between atoms: C_7  and  N_8
REMARK                            x       y       z     vdW  Elec       q    Type
REMARK                         _______ _______ _______ _____ _____    ______ ____
ROOT
ATOM      1  N   UNL     1      -0.602   0.453  -1.686  0.00  0.00    +0.000 NA
ATOM      2  C   UNL     1       0.627   0.149  -1.424  0.00  0.00    +0.000 C 
ATOM      3  N   UNL     1       1.733   0.113  -2.321  0.00  0.00    +0.000 NA
ATOM      4  C   UNL     1       2.784  -0.236  -1.668  0.00  0.00    +0.000 C 
ATOM      5  N   UNL     1       4.095  -0.388  -2.211  0.00  0.00    +0.000 NA
ATOM      6  C   UNL     1       2.464  -0.465  -0.266  0.00  0.00    +0.000 A 
ATOM      7  C   UNL     1       3.225  -0.846   0.816  0.00  0.00    +0.000 A 
ATOM      8  C   UNL     1       2.624  -0.982   2.046  0.00  0.00    +0.000 A 
ATOM      9  C   UNL     1       1.264  -0.735   2.187  0.00  0.00    +0.000 A 
ATOM     10  C   UNL     1       0.496  -0.354   1.109  0.00  0.00    +0.000 A 
ATOM     11  C   UNL     1       1.115  -0.224  -0.113  0.00  0.00    +0.000 A 
ENDROOT
BRANCH   1  18
ATOM     12  C   UNL     1      -3.574  -2.028   1.424  0.00  0.00    +0.000 C 
ATOM     13  C   UNL     1      -3.004  -0.750   0.912  0.00  0.00    +0.000 A 
ATOM     14  C   UNL     1      -3.396   0.454   1.484  0.00  0.00    +0.000 A 
ATOM     15  C   UNL     1      -2.861   1.630   1.002  0.00  0.00    +0.000 A 
ATOM     16  C   UNL     1      -1.938   1.611  -0.048  0.00  0.00    +0.000 A 
ATOM     17  C   UNL     1      -1.414   2.913  -0.505  0.00  0.00    +0.000 C 
ATOM     18  C   UNL     1      -1.541   0.421  -0.623  0.00  0.00    +0.000 A 
ATOM     19  C   UNL     1      -2.095  -0.735  -0.117  0.00  0.00    +0.000 A 
ENDBRANCH   1  18
TORSDOF 1
