REMARK  Name = 
REMARK  2 active torsions:
REMARK  status: ('A' for Active; 'I' for Inactive)
REMARK    1  A    between atoms: C_5  and  C_6
REMARK    2  A    between atoms: C_6  and  C_8
REMARK                            x       y       z     vdW  Elec       q    Type
REMARK                         _______ _______ _______ _____ _____    ______ ____
ROOT
ATOM      1  C   UNL     1       0.569  -0.122  -0.983  0.00  0.00    +0.000 A 
ATOM      2  C   UNL     1       0.649  -0.065   0.389  0.00  0.00    +0.000 A 
ATOM      3  C   UNL     1       1.819  -0.216   1.078  0.00  0.00    +0.000 A 
ATOM      4  C   UNL     1       2.981  -0.439   0.353  0.00  0.00    +0.000 A 
ATOM      5  C   UNL     1       2.918  -0.498  -1.009  0.00  0.00    +0.000 A 
ATOM      6  C   UNL     1       1.727  -0.343  -1.689  0.00  0.00    +0.000 A 
ATOM      7  N   UNL     1       1.658  -0.405  -3.112  0.00  0.00    +0.000 NA
ATOM      8  O   UNL     1       4.141  -0.586   1.084  0.00  0.00    +0.000 OA
ATOM      9  C   UNL     1       4.321  -0.260   2.428  0.00  0.00    +0.000 C 
ATOM     10  C   UNL     1       3.082   0.224   3.113  0.00  0.00    +0.000 C 
ATOM     11  O   UNL     1       1.903  -0.158   2.467  0.00  0.00    +0.000 OA
ENDROOT
BRANCH   1  12
ATOM     12  C   UNL     1      -0.709   0.046  -1.657  0.00  0.00    +0.000 C 
ATOM     13  O   UNL     1      -0.786  -0.006  -2.899  0.00  0.00    +0.000 OA
BRANCH  12  18
ATOM     14  C   UNL     1      -5.551   0.937   1.369  0.00  0.00    +0.000 C 
ATOM     15  C   UNL     1      -4.295   0.705   0.585  0.00  0.00    +0.000 A 
ATOM     16  C   UNL     1      -4.183   1.129  -0.723  0.00  0.00    +0.000 A 
ATOM     17  C   UNL     1      -3.030   0.915  -1.438  0.00  0.00    +0.000 A 
ATOM     18  C   UNL     1      -1.944   0.282  -0.911  0.00  0.00    +0.000 A 
ATOM     19  C   UNL     1      -2.058  -0.148   0.415  0.00  0.00    +0.000 A 
ATOM     20  C   UNL     1      -3.211   0.063   1.141  0.00  0.00    +0.000 A 
ENDBRANCH  12  18
ENDBRANCH   1  12
TORSDOF 2
