REMARK  Name = 
REMARK  3 active torsions:
REMARK  status: ('A' for Active; 'I' for Inactive)
REMARK    1  A    between atoms: C_2  and  O_3
REMARK    2  A    between atoms: O_3  and  C_4
REMARK    3  A    between atoms: C_4  and  C_6
REMARK                            x       y       z     vdW  Elec       q    Type
REMARK                         _______ _______ _______ _____ _____    ______ ____
ROOT
ATOM      1  C   UNL     1       1.485  -0.501  -0.073  0.00  0.00    +0.000 A 
ATOM      2  C   UNL     1       1.635  -1.854  -0.258  0.00  0.00    +0.000 A 
ATOM      3  N   UNL     1       2.878  -2.574  -0.394  0.00  0.00    +0.000 NA
ATOM      4  N   UNL     1       0.404  -2.372  -0.288  0.00  0.00    +0.000 N 
ATOM      5  C   UNL     1       0.080  -3.790  -0.466  0.00  0.00    +0.000 C 
ATOM      6  C   UNL     1      -0.521  -1.396  -0.128  0.00  0.00    +0.000 A 
ATOM      7  N   UNL     1      -1.874  -1.387  -0.084  0.00  0.00    +0.000 NA
ATOM      8  C   UNL     1      -2.586  -0.258   0.089  0.00  0.00    +0.000 A 
ATOM      9  C   UNL     1      -3.965  -0.294   0.129  0.00  0.00    +0.000 A 
ATOM     10  C   UNL     1      -4.667   0.865   0.306  0.00  0.00    +0.000 A 
ATOM     11  C   UNL     1      -4.028   2.071   0.446  0.00  0.00    +0.000 A 
ATOM     12  C   UNL     1      -2.653   2.085   0.404  0.00  0.00    +0.000 A 
ATOM     13  C   UNL     1      -1.897   0.946   0.228  0.00  0.00    +0.000 A 
ATOM     14  N   UNL     1      -0.554   0.954   0.186  0.00  0.00    +0.000 NA
ATOM     15  C   UNL     1       0.150  -0.201   0.009  0.00  0.00    +0.000 A 
ENDROOT
BRANCH   1  16
ATOM     16  C   UNL     1       2.542   0.505   0.027  0.00  0.00    +0.000 C 
ATOM     17  O   UNL     1       3.723   0.108  -0.064  0.00  0.00    +0.000 OA
BRANCH  16  18
ATOM     18  O   UNL     1       2.263   1.851   0.215  0.00  0.00    +0.000 OA
BRANCH  18  20
ATOM     19  C   UNL     1       4.250   2.453   1.479  0.00  0.00    +0.000 C 
ATOM     20  C   UNL     1       3.333   2.788   0.305  0.00  0.00    +0.000 C 
ENDBRANCH  18  20
ENDBRANCH  16  18
ENDBRANCH   1  16
TORSDOF 3
