REMARK  Name = 
REMARK  5 active torsions:
REMARK  status: ('A' for Active; 'I' for Inactive)
REMARK    1  A    between atoms: C_2  and  O_3
REMARK    2  A    between atoms: O_3  and  C_4
REMARK    3  A    between atoms: C_7  and  C_8
REMARK    4  A    between atoms: C_8  and  C_10
REMARK    5  A    between atoms: C_13  and  C_14
REMARK                            x       y       z     vdW  Elec       q    Type
REMARK                         _______ _______ _______ _____ _____    ______ ____
ROOT
ATOM      1  C   UNL     1      -0.452   1.470  -0.091  0.00  0.00    +0.000 A 
ATOM      2  C   UNL     1       0.669   2.303  -0.145  0.00  0.00    +0.000 A 
ATOM      3  C   UNL     1       1.883   1.705  -0.484  0.00  0.00    +0.000 A 
ATOM      4  C   UNL     1       2.000   0.380  -0.754  0.00  0.00    +0.000 A 
ATOM      5  C   UNL     1       0.888  -0.411  -0.694  0.00  0.00    +0.000 A 
ATOM      6  C   UNL     1      -0.363   0.123  -0.360  0.00  0.00    +0.000 A 
ENDROOT
BRANCH   6   7
ATOM      7  C   UNL     1      -1.546  -0.723  -0.297  0.00  0.00    +0.000 A 
ATOM      8  C   UNL     1      -1.535  -2.086  -0.554  0.00  0.00    +0.000 A 
ATOM      9  C   UNL     1      -2.846  -2.548  -0.396  0.00  0.00    +0.000 A 
ATOM     10  N   UNL     1      -3.289  -3.890  -0.564  0.00  0.00    +0.000 NA
ATOM     11  O   UNL     1      -3.560  -1.497  -0.065  0.00  0.00    +0.000 OA
ATOM     12  N   UNL     1      -2.804  -0.430  -0.007  0.00  0.00    +0.000 NA
ENDBRANCH   6   7
BRANCH   4  13
ATOM     13  C   UNL     1       3.387  -0.241  -1.138  0.00  0.00    +0.000 C 
ATOM     14  C   UNL     1       4.246   0.575  -0.006  0.00  0.00    +0.000 C 
BRANCH  13  15
ATOM     15  C   UNL     1       3.230  -1.576  -0.200  0.00  0.00    +0.000 C 
ATOM     16  C   UNL     1       4.512  -2.367  -0.417  0.00  0.00    +0.000 C 
ENDBRANCH  13  15
ENDBRANCH   4  13
BRANCH   1  17
ATOM     17  O   UNL     1      -1.692   2.014   0.243  0.00  0.00    +0.000 OA
BRANCH  17  19
ATOM     18  C   UNL     1      -0.931   3.804   1.693  0.00  0.00    +0.000 C 
ATOM     19  C   UNL     1      -1.797   3.394   0.521  0.00  0.00    +0.000 C 
ENDBRANCH  17  19
ENDBRANCH   1  17
TORSDOF 5
