REMARK  Name = 
REMARK  2 active torsions:
REMARK  status: ('A' for Active; 'I' for Inactive)
REMARK    1  A    between atoms: C_2  and  C_4
REMARK    2  A    between atoms: C_9  and  C_10
REMARK                            x       y       z     vdW  Elec       q    Type
REMARK                         _______ _______ _______ _____ _____    ______ ____
ROOT
ATOM      1  C   UNL     1       0.128   0.330  -0.706  0.00  0.00    +0.000 A 
ATOM      2  C   UNL     1       0.418   0.714  -2.025  0.00  0.00    +0.000 A 
ATOM      3  C   UNL     1       1.661   0.599  -2.587  0.00  0.00    +0.000 A 
ATOM      4  C   UNL     1       2.703   0.084  -1.846  0.00  0.00    +0.000 A 
ATOM      5  F   UNL     1       3.939  -0.037  -2.385  0.00  0.00    +0.000 F 
ATOM      6  C   UNL     1       2.429  -0.294  -0.550  0.00  0.00    +0.000 A 
ATOM      7  C   UNL     1       3.452  -0.782   0.221  0.00  0.00    +0.000 A 
ATOM      8  C   UNL     1       3.226  -1.143   1.527  0.00  0.00    +0.000 A 
ATOM      9  C   UNL     1       1.959  -1.023   2.097  0.00  0.00    +0.000 A 
ATOM     10  C   UNL     1       0.948  -0.539   1.326  0.00  0.00    +0.000 A 
ATOM     11  C   UNL     1       1.146  -0.173   0.023  0.00  0.00    +0.000 A 
ENDROOT
BRANCH   1  17
ATOM     12  C   UNL     1      -1.980   0.074   0.748  0.00  0.00    +0.000 A 
ATOM     13  N   UNL     1      -3.211   0.672   0.708  0.00  0.00    +0.000 NA
ATOM     14  C   UNL     1      -3.215   1.523  -0.307  0.00  0.00    +0.000 A 
ATOM     15  N   UNL     1      -4.347   2.342  -0.667  0.00  0.00    +0.000 NA
ATOM     16  O   UNL     1      -2.057   1.460  -0.863  0.00  0.00    +0.000 OA
ATOM     17  C   UNL     1      -1.235   0.577  -0.255  0.00  0.00    +0.000 A 
BRANCH  12  19
ATOM     18  C   UNL     1      -2.596  -1.015   2.876  0.00  0.00    +0.000 C 
ATOM     19  C   UNL     1      -1.622  -1.008   1.699  0.00  0.00    +0.000 C 
ATOM     20  C   UNL     1      -1.747  -2.360   0.968  0.00  0.00    +0.000 C 
ENDBRANCH  12  19
ENDBRANCH   1  17
TORSDOF 2
