REMARK  Name = 
REMARK  3 active torsions:
REMARK  status: ('A' for Active; 'I' for Inactive)
REMARK    1  A    between atoms: N_4  and  C_5
REMARK    2  A    between atoms: C_5  and  O_6
REMARK    3  A    between atoms: O_6  and  C_7
REMARK                            x       y       z     vdW  Elec       q    Type
REMARK                         _______ _______ _______ _____ _____    ______ ____
ROOT
ATOM      1  O   UNL     1       0.298  -1.512  -1.583  0.00  0.00    +0.000 OA
ENDROOT
BRANCH   1   2
ATOM      2  C   UNL     1       1.034  -0.590  -0.861  0.00  0.00    +0.000 A 
ATOM      3  C   UNL     1       0.614   0.705  -0.662  0.00  0.00    +0.000 A 
ATOM      4  C   UNL     1       1.336   1.628   0.052  0.00  0.00    +0.000 A 
ATOM      5  C   UNL     1       2.559   1.266   0.617  0.00  0.00    +0.000 A 
ATOM      6  C   UNL     1       3.005  -0.021   0.436  0.00  0.00    +0.000 A 
ATOM      7  C   UNL     1       2.263  -0.930  -0.285  0.00  0.00    +0.000 A 
ATOM      8  C   UNL     1       4.333  -0.198   1.127  0.00  0.00    +0.000 C 
ATOM      9  C   UNL     1       4.236   0.881   2.202  0.00  0.00    +0.000 C 
ATOM     10  C   UNL     1       3.566   1.984   1.418  0.00  0.00    +0.000 C 
ENDBRANCH   1   2
BRANCH   1  11
ATOM     11  C   UNL     1      -0.924  -1.214  -2.166  0.00  0.00    +0.000 C 
BRANCH  11  15
ATOM     12  N   UNL     1      -4.571  -1.629   1.010  0.00  0.00    +0.000 NA
ATOM     13  C   UNL     1      -3.573  -1.039   0.209  0.00  0.00    +0.000 A 
ATOM     14  N   UNL     1      -2.735  -1.662  -0.619  0.00  0.00    +0.000 NA
ATOM     15  N   UNL     1      -1.921  -0.807  -1.221  0.00  0.00    +0.000 N 
ATOM     16  C   UNL     1      -2.233   0.402  -0.776  0.00  0.00    +0.000 A 
ATOM     17  C   UNL     1      -3.271   0.304   0.129  0.00  0.00    +0.000 A 
ATOM     18 CL   UNL     1      -4.016   1.639   0.974  0.00  0.00    +0.000 Cl
ENDBRANCH  11  15
ENDBRANCH   1  11
TORSDOF 3
