REMARK  Name = 
REMARK  2 active torsions:
REMARK  status: ('A' for Active; 'I' for Inactive)
REMARK    1  A    between atoms: C_2  and  N_5
REMARK    2  A    between atoms: C_9  and  C_10
REMARK                            x       y       z     vdW  Elec       q    Type
REMARK                         _______ _______ _______ _____ _____    ______ ____
ROOT
ATOM      1  N   UNL     1      -4.328  -0.684   0.482  0.00  0.00    +0.000 NA
ATOM      2  C   UNL     1      -2.927  -0.660   0.506  0.00  0.00    +0.000 C 
ATOM      3  N   UNL     1      -2.315   0.019  -0.386  0.00  0.00    +0.000 NA
ATOM      4  N   UNL     1      -0.951   0.133  -0.486  0.00  0.00    +0.000 NA
ATOM      5  C   UNL     1       0.030  -0.449   0.337  0.00  0.00    +0.000 C 
ATOM      6  C   UNL     1      -0.270  -1.216   1.360  0.00  0.00    +0.000 C 
ATOM      7  S   UNL     1      -1.969  -1.543   1.733  0.00  0.00    +0.000 S 
ENDROOT
BRANCH   5   8
ATOM      8  C   UNL     1       1.460  -0.173   0.021  0.00  0.00    +0.000 A 
ATOM      9  C   UNL     1       1.978   0.590  -0.987  0.00  0.00    +0.000 A 
ATOM     10  C   UNL     1       3.352   0.533  -0.856  0.00  0.00    +0.000 A 
ATOM     11  C   UNL     1       4.403   1.068  -1.536  0.00  0.00    +0.000 A 
ATOM     12  C   UNL     1       5.726   0.840  -1.177  0.00  0.00    +0.000 A 
ATOM     13  C   UNL     1       5.919   0.031  -0.078  0.00  0.00    +0.000 A 
ATOM     14  C   UNL     1       4.893  -0.534   0.643  0.00  0.00    +0.000 A 
ATOM     15  C   UNL     1       3.594  -0.271   0.238  0.00  0.00    +0.000 A 
ATOM     16  O   UNL     1       2.445  -0.653   0.707  0.00  0.00    +0.000 OA
ENDBRANCH   5   8
BRANCH   1  18
ATOM     17  C   UNL     1      -4.735   1.731   0.623  0.00  0.00    +0.000 C 
ATOM     18  C   UNL     1      -5.033   0.432  -0.090  0.00  0.00    +0.000 C 
ATOM     19  C   UNL     1      -6.523   0.179   0.062  0.00  0.00    +0.000 C 
ATOM     20  C   UNL     1      -4.749   0.626  -1.547  0.00  0.00    +0.000 C 
ENDBRANCH   1  18
TORSDOF 2
