REMARK  Name = 
REMARK  2 active torsions:
REMARK  status: ('A' for Active; 'I' for Inactive)
REMARK    1  A    between atoms: C_6  and  N_7
REMARK    2  A    between atoms: C_11  and  C_12
REMARK                            x       y       z     vdW  Elec       q    Type
REMARK                         _______ _______ _______ _____ _____    ______ ____
ROOT
ATOM      1  N   UNL     1       1.247  -1.334   0.274  0.00  0.00    +0.000 N 
ATOM      2  N   UNL     1       1.770  -2.482   0.685  0.00  0.00    +0.000 NA
ATOM      3  N   UNL     1       0.851  -3.360   1.001  0.00  0.00    +0.000 NA
ATOM      4  C   UNL     1      -0.331  -2.767   0.790  0.00  0.00    +0.000 A 
ATOM      5  C   UNL     1      -0.069  -1.484   0.330  0.00  0.00    +0.000 A 
ENDROOT
BRANCH   5   6
ATOM      6  C   UNL     1      -1.135  -0.517  -0.017  0.00  0.00    +0.000 C 
ATOM      7  C   UNL     1      -0.659   0.808  -0.486  0.00  0.00    +0.000 C 
ATOM      8  C   UNL     1      -1.901   1.643  -0.799  0.00  0.00    +0.000 C 
ATOM      9  C   UNL     1      -2.718   1.011  -1.909  0.00  0.00    +0.000 C 
ATOM     10  C   UNL     1      -3.180  -0.367  -1.466  0.00  0.00    +0.000 C 
ATOM     11  C   UNL     1      -4.031  -0.191  -0.234  0.00  0.00    +0.000 C 
ATOM     12  C   UNL     1      -3.230   0.463   0.884  0.00  0.00    +0.000 C 
ATOM     13  C   UNL     1      -2.755   1.842   0.450  0.00  0.00    +0.000 C 
ATOM     14  C   UNL     1      -1.999  -0.356   1.231  0.00  0.00    +0.000 C 
ATOM     15  C   UNL     1      -1.993  -1.206  -1.084  0.00  0.00    +0.000 C 
ENDBRANCH   5   6
BRANCH   1  21
ATOM     16  N   UNL     1       4.064   2.384   1.544  0.00  0.00    +0.000 NA
ATOM     17  C   UNL     1       3.362   1.677   0.530  0.00  0.00    +0.000 A 
ATOM     18  C   UNL     1       3.392   2.120  -0.760  0.00  0.00    +0.000 A 
ATOM     19  C   UNL     1       2.722   1.450  -1.752  0.00  0.00    +0.000 A 
ATOM     20  C   UNL     1       2.001   0.301  -1.436  0.00  0.00    +0.000 A 
ATOM     21  C   UNL     1       1.954  -0.166  -0.145  0.00  0.00    +0.000 A 
ATOM     22  C   UNL     1       2.639   0.532   0.826  0.00  0.00    +0.000 A 
ENDBRANCH   1  21
TORSDOF 2
