REMARK  Name = 
REMARK  4 active torsions:
REMARK  status: ('A' for Active; 'I' for Inactive)
REMARK    1  A    between atoms: C_2  and  C_4
REMARK    2  A    between atoms: C_7  and  O_8
REMARK    3  A    between atoms: O_8  and  C_9
REMARK    4  A    between atoms: C_12  and  C_13
REMARK                            x       y       z     vdW  Elec       q    Type
REMARK                         _______ _______ _______ _____ _____    ______ ____
ROOT
ATOM      1  O   UNL     1      -0.260  -1.302   0.839  0.00  0.00    +0.000 OA
ENDROOT
BRANCH   1   5
ATOM      2  C   UNL     1       3.707  -0.061   0.121  0.00  0.00    +0.000 A 
ATOM      3  C   UNL     1       3.064   0.266   1.261  0.00  0.00    +0.000 A 
ATOM      4  C   UNL     1       1.752  -0.149   1.490  0.00  0.00    +0.000 A 
ATOM      5  C   UNL     1       1.056  -0.900   0.581  0.00  0.00    +0.000 A 
ATOM      6  C   UNL     1       1.718  -1.228  -0.574  0.00  0.00    +0.000 A 
ATOM      7  C   UNL     1       3.046  -0.811  -0.813  0.00  0.00    +0.000 A 
BRANCH   2   9
ATOM      8  C   UNL     1       5.792   0.150   1.311  0.00  0.00    +0.000 C 
ATOM      9  C   UNL     1       5.175   0.377  -0.200  0.00  0.00    +0.000 C 
ATOM     10  O   UNL     1       5.648  -0.980  -0.677  0.00  0.00    +0.000 OA
ENDBRANCH   2   9
ENDBRANCH   1   5
BRANCH   1  11
ATOM     11  C   UNL     1      -1.363  -0.559   0.484  0.00  0.00    +0.000 A 
ATOM     12  C   UNL     1      -1.881   0.365   1.345  0.00  0.00    +0.000 A 
ATOM     13  C   UNL     1      -3.002   1.071   0.898  0.00  0.00    +0.000 A 
ATOM     14  C   UNL     1      -3.550   0.854  -0.325  0.00  0.00    +0.000 A 
ATOM     15  C   UNL     1      -3.012  -0.065  -1.148  0.00  0.00    +0.000 A 
ATOM     16  C   UNL     1      -1.908  -0.782  -0.745  0.00  0.00    +0.000 A 
BRANCH  14  17
ATOM     17  C   UNL     1      -4.791   1.725  -0.671  0.00  0.00    +0.000 C 
ATOM     18  C   UNL     1      -5.646   0.536  -1.470  0.00  0.00    +0.000 C 
ATOM     19  O   UNL     1      -5.543   1.495   0.618  0.00  0.00    +0.000 OA
ENDBRANCH  14  17
ENDBRANCH   1  11
TORSDOF 4
