REMARK  Name = 
REMARK  3 active torsions:
REMARK  status: ('A' for Active; 'I' for Inactive)
REMARK    1  A    between atoms: C_11  and  S_12
REMARK    2  A    between atoms: S_12  and  C_13
REMARK    3  A    between atoms: C_13  and  C_14
REMARK                            x       y       z     vdW  Elec       q    Type
REMARK                         _______ _______ _______ _____ _____    ______ ____
ROOT
ATOM      1  C   UNL     1      -3.548   2.015   1.443  0.00  0.00    +0.000 A 
ATOM      2  C   UNL     1      -2.178   2.108   1.514  0.00  0.00    +0.000 A 
ATOM      3  C   UNL     1      -1.353   1.238   0.862  0.00  0.00    +0.000 A 
ATOM      4  C   UNL     1      -1.914   0.230   0.105  0.00  0.00    +0.000 A 
ATOM      5  C   UNL     1      -3.301   0.114   0.017  0.00  0.00    +0.000 A 
ATOM      6  C   UNL     1      -4.100   1.016   0.692  0.00  0.00    +0.000 A 
ATOM      7  N   UNL     1      -3.550  -0.940  -0.774  0.00  0.00    +0.000 NA
ATOM      8  C   UNL     1      -2.350  -1.447  -1.154  0.00  0.00    +0.000 A 
ATOM      9  N   UNL     1      -1.830  -2.446  -1.902  0.00  0.00    +0.000 NA
ATOM     10  N   UNL     1      -0.522  -2.361  -1.837  0.00  0.00    +0.000 NA
ATOM     11  C   UNL     1      -0.179  -1.318  -1.054  0.00  0.00    +0.000 A 
ATOM     12  N   UNL     1      -1.331  -0.763  -0.639  0.00  0.00    +0.000 N 
ENDROOT
BRANCH  11  13
ATOM     13  S   UNL     1       1.476  -0.775  -0.645  0.00  0.00    +0.000 S 
BRANCH  13  14
ATOM     14  C   UNL     1       1.384   0.666   0.436  0.00  0.00    +0.000 C 
BRANCH  14  15
ATOM     15  C   UNL     1       2.796   1.100   0.763  0.00  0.00    +0.000 C 
ATOM     16  C   UNL     1       3.589   0.035   1.459  0.00  0.00    +0.000 C 
ATOM     17  C   UNL     1       4.840  -0.349   0.694  0.00  0.00    +0.000 C 
ATOM     18  C   UNL     1       4.585  -0.530  -0.771  0.00  0.00    +0.000 C 
ATOM     19  C   UNL     1       3.979   0.697  -1.402  0.00  0.00    +0.000 C 
ATOM     20  C   UNL     1       3.507   1.710  -0.412  0.00  0.00    +0.000 C 
ENDBRANCH  14  15
ENDBRANCH  13  14
ENDBRANCH  11  13
TORSDOF 3
