REMARK  Name = 
REMARK  2 active torsions:
REMARK  status: ('A' for Active; 'I' for Inactive)
REMARK    1  A    between atoms: C_4  and  C_6
REMARK    2  A    between atoms: C_9  and  N_10
REMARK                            x       y       z     vdW  Elec       q    Type
REMARK                         _______ _______ _______ _____ _____    ______ ____
ROOT
ATOM      1  C   UNL     1      -2.946  -0.682   1.419  0.00  0.00    +0.000 C 
ATOM      2  C   UNL     1      -1.974  -0.648   0.063  0.00  0.00    +0.000 C 
ATOM      3  O   UNL     1      -0.979   0.295   0.757  0.00  0.00    +0.000 OA
ATOM      4  C   UNL     1      -0.054   0.659  -0.143  0.00  0.00    +0.000 C 
ATOM      5  O   UNL     1      -0.030   2.096  -0.104  0.00  0.00    +0.000 OA
ATOM      6  C   UNL     1      -0.573   0.331  -1.543  0.00  0.00    +0.000 C 
ATOM      7  C   UNL     1      -1.847   1.188  -1.526  0.00  0.00    +0.000 C 
ATOM      8  N   UNL     1      -2.766   0.495  -0.653  0.00  0.00    +0.000 N 
ATOM      9  C   UNL     1      -3.451   1.336   0.208  0.00  0.00    +0.000 C 
ATOM     10  C   UNL     1      -4.830   0.950   0.604  0.00  0.00    +0.000 C 
ATOM     11  C   UNL     1      -5.504  -0.080  -0.204  0.00  0.00    +0.000 C 
ATOM     12  C   UNL     1      -4.621  -1.042  -0.927  0.00  0.00    +0.000 C 
ATOM     13  C   UNL     1      -3.592  -0.236  -1.622  0.00  0.00    +0.000 C 
ENDROOT
BRANCH   4  14
ATOM     14  C   UNL     1       1.314   0.230   0.013  0.00  0.00    +0.000 A 
ATOM     15  C   UNL     1       2.033   0.153   1.184  0.00  0.00    +0.000 A 
ATOM     16  C   UNL     1       3.348  -0.263   1.150  0.00  0.00    +0.000 A 
ATOM     17  C   UNL     1       3.983  -0.600   0.007  0.00  0.00    +0.000 A 
ATOM     18  C   UNL     1       3.284  -0.537  -1.199  0.00  0.00    +0.000 A 
ATOM     19  C   UNL     1       1.988  -0.128  -1.140  0.00  0.00    +0.000 A 
BRANCH  17  20
ATOM     20  N   UNL     1       5.339  -1.042  -0.072  0.00  0.00    +0.000 N 
ATOM     21  O   UNL     1       5.804  -1.425  -1.160  0.00  0.00    +0.000 OA
ATOM     22  O   UNL     1       6.076  -1.052   1.072  0.00  0.00    +0.000 OA
ENDBRANCH  17  20
ENDBRANCH   4  14
TORSDOF 2
