REMARK  Name = 
REMARK  6 active torsions:
REMARK  status: ('A' for Active; 'I' for Inactive)
REMARK    1  A    between atoms: C_2  and  C_3
REMARK    2  A    between atoms: C_3  and  C_4
REMARK    3  A    between atoms: C_4  and  C_5
REMARK    4  A    between atoms: C_12  and  C_13
REMARK    5  A    between atoms: C_13  and  O_14
REMARK    6  A    between atoms: O_14  and  C_15
REMARK                            x       y       z     vdW  Elec       q    Type
REMARK                         _______ _______ _______ _____ _____    ______ ____
ROOT
ATOM      1  C   UNL     1      -0.512  -0.506   0.071  0.00  0.00    +0.000 C 
ATOM      2  O   UNL     1       0.816  -0.513   0.026  0.00  0.00    +0.000 OA
ATOM      3  C   UNL     1       1.258   0.834  -0.328  0.00  0.00    +0.000 C 
ATOM      4  C   UNL     1       0.420   1.008  -1.744  0.00  0.00    +0.000 C 
ATOM      5  S   UNL     1      -0.619  -0.451  -1.794  0.00  0.00    +0.000 S 
ENDROOT
BRANCH   1   6
ATOM      6  C   UNL     1      -1.240   0.720   0.431  0.00  0.00    +0.000 A 
ATOM      7  C   UNL     1      -0.893   1.718   1.286  0.00  0.00    +0.000 A 
ATOM      8  C   UNL     1      -1.720   2.803   1.474  0.00  0.00    +0.000 A 
ATOM      9  C   UNL     1      -2.911   2.929   0.820  0.00  0.00    +0.000 A 
ATOM     10  C   UNL     1      -3.299   1.959  -0.053  0.00  0.00    +0.000 A 
ATOM     11  C   UNL     1      -2.451   0.890  -0.216  0.00  0.00    +0.000 A 
ENDBRANCH   1   6
BRANCH   1  12
ATOM     12  C   UNL     1      -1.150  -1.704   0.520  0.00  0.00    +0.000 C 
BRANCH  12  14
ATOM     13  C   UNL     1      -3.178  -3.100   0.431  0.00  0.00    +0.000 C 
ATOM     14  C   UNL     1      -2.549  -1.826  -0.059  0.00  0.00    +0.000 C 
ENDBRANCH  12  14
ENDBRANCH   1  12
BRANCH   3  15
ATOM     15  C   UNL     1       2.605   0.493  -1.026  0.00  0.00    +0.000 C 
BRANCH  15  16
ATOM     16  O   UNL     1       3.599  -0.088  -0.490  0.00  0.00    +0.000 OA
BRANCH  16  17
ATOM     17  C   UNL     1       3.823  -1.337   0.043  0.00  0.00    +0.000 C 
ATOM     18  N   UNL     1       5.147  -1.687   0.566  0.00  0.00    +0.000 NA
ATOM     19  O   UNL     1       2.855  -2.142   0.042  0.00  0.00    +0.000 OA
ENDBRANCH  16  17
ENDBRANCH  15  16
ENDBRANCH   3  15
TORSDOF 6
