REMARK  Name = 
REMARK  5 active torsions:
REMARK  status: ('A' for Active; 'I' for Inactive)
REMARK    1  A    between atoms: C_2  and  C_3
REMARK    2  A    between atoms: N_9  and  C_10
REMARK    3  A    between atoms: C_10  and  C_11
REMARK    4  A    between atoms: C_11  and  O_12
REMARK    5  A    between atoms: O_12  and  C_13
REMARK                            x       y       z     vdW  Elec       q    Type
REMARK                         _______ _______ _______ _____ _____    ______ ____
ROOT
ATOM      1  C   UNL     1       3.390   2.043   1.152  0.00  0.00    +0.000 C 
ATOM      2  C   UNL     1       3.289   0.709   0.480  0.00  0.00    +0.000 C 
ATOM      3  N   UNL     1       2.974   0.786  -0.921  0.00  0.00    +0.000 NA
ATOM      4  C   UNL     1       1.558   0.602  -1.118  0.00  0.00    +0.000 C 
ATOM      5  O   UNL     1       0.956   0.863  -2.196  0.00  0.00    +0.000 OA
ATOM      6  N   UNL     1       1.055   0.095   0.104  0.00  0.00    +0.000 N 
ATOM      7  C   UNL     1       2.118  -0.040   1.053  0.00  0.00    +0.000 C 
ATOM      8  O   UNL     1       2.049  -0.662   2.128  0.00  0.00    +0.000 OA
ENDROOT
BRANCH   2   9
ATOM      9  C   UNL     1       4.521  -0.099   0.774  0.00  0.00    +0.000 C 
ATOM     10  C   UNL     1       5.869   0.421   0.355  0.00  0.00    +0.000 C 
ATOM     11  C   UNL     1       5.256  -0.699  -0.464  0.00  0.00    +0.000 C 
ENDBRANCH   2   9
BRANCH   6  12
ATOM     12  C   UNL     1      -0.331  -0.240   0.366  0.00  0.00    +0.000 C 
BRANCH  12  13
ATOM     13  C   UNL     1      -1.087   0.934   0.909  0.00  0.00    +0.000 C 
BRANCH  13  14
ATOM     14  O   UNL     1      -2.421   0.570   1.148  0.00  0.00    +0.000 OA
BRANCH  14  15
ATOM     15  C   UNL     1      -3.190   0.124   0.081  0.00  0.00    +0.000 A 
ATOM     16  C   UNL     1      -2.729   0.013  -1.203  0.00  0.00    +0.000 A 
ATOM     17  C   UNL     1      -3.576  -0.442  -2.189  0.00  0.00    +0.000 A 
ATOM     18  C   UNL     1      -4.881  -0.789  -1.913  0.00  0.00    +0.000 A 
ATOM     19  C   UNL     1      -5.337  -0.673  -0.609  0.00  0.00    +0.000 A 
ATOM     20  C   UNL     1      -4.508  -0.222   0.389  0.00  0.00    +0.000 A 
ATOM     21  F   UNL     1      -4.975  -0.113   1.673  0.00  0.00    +0.000 F 
ENDBRANCH  14  15
ENDBRANCH  13  14
ENDBRANCH  12  13
ENDBRANCH   6  12
TORSDOF 5
