REMARK  Name = 
REMARK  2 active torsions:
REMARK  status: ('A' for Active; 'I' for Inactive)
REMARK    1  A    between atoms: O_2  and  C_3
REMARK    2  A    between atoms: C_14  and  O_15
REMARK                            x       y       z     vdW  Elec       q    Type
REMARK                         _______ _______ _______ _____ _____    ______ ____
ROOT
ATOM      1  C   UNL     1      -4.258   0.913  -0.272  0.00  0.00    +0.000 A 
ATOM      2  C   UNL     1      -4.202  -0.217   0.544  0.00  0.00    +0.000 A 
ATOM      3  C   UNL     1      -2.938  -0.736   0.786  0.00  0.00    +0.000 A 
ATOM      4  C   UNL     1      -1.805  -0.173   0.257  0.00  0.00    +0.000 A 
ATOM      5  C   UNL     1      -1.866   0.942  -0.547  0.00  0.00    +0.000 A 
ATOM      6  C   UNL     1      -3.115   1.481  -0.806  0.00  0.00    +0.000 A 
ATOM      7  N   UNL     1      -0.608   1.247  -0.902  0.00  0.00    +0.000 NA
ATOM      8  C   UNL     1       0.250   0.391  -0.371  0.00  0.00    +0.000 A 
ATOM      9  C   UNL     1       1.619   0.297  -0.448  0.00  0.00    +0.000 A 
ATOM     10  C   UNL     1       2.348   1.198  -1.180  0.00  0.00    +0.000 A 
ATOM     11  C   UNL     1       3.739   1.048  -1.219  0.00  0.00    +0.000 A 
ATOM     12  C   UNL     1       4.361   0.024  -0.541  0.00  0.00    +0.000 A 
ATOM     13  C   UNL     1       3.578  -0.850   0.178  0.00  0.00    +0.000 A 
ATOM     14  C   UNL     1       2.227  -0.727   0.232  0.00  0.00    +0.000 A 
ATOM     15  O   UNL     1       1.517  -1.604   0.944  0.00  0.00    +0.000 OA
ATOM     16  C   UNL     1       0.211  -1.536   1.034  0.00  0.00    +0.000 A 
ATOM     17  O   UNL     1      -0.470  -2.358   1.704  0.00  0.00    +0.000 OA
ATOM     18  C   UNL     1      -0.487  -0.535   0.380  0.00  0.00    +0.000 A 
ENDROOT
BRANCH   1  20
ATOM     19  C   UNL     1      -6.708   1.033  -0.099  0.00  0.00    +0.000 C 
ATOM     20  O   UNL     1      -5.461   1.497  -0.568  0.00  0.00    +0.000 OA
ENDBRANCH   1  20
BRANCH  12  21
ATOM     21  O   UNL     1       5.725  -0.148  -0.560  0.00  0.00    +0.000 OA
ATOM     22  C   UNL     1       6.342  -1.189   0.131  0.00  0.00    +0.000 C 
ENDBRANCH  12  21
TORSDOF 2
