REMARK  Name = 
REMARK  4 active torsions:
REMARK  status: ('A' for Active; 'I' for Inactive)
REMARK    1  A    between atoms: C_2  and  N_3
REMARK    2  A    between atoms: C_2  and  C_12
REMARK    3  A    between atoms: N_3  and  N_4
REMARK    4  A    between atoms: C_5  and  C_7
REMARK                            x       y       z     vdW  Elec       q    Type
REMARK                         _______ _______ _______ _____ _____    ______ ____
ROOT
ATOM      1  C   UNL     1      -2.146  -2.444   1.008  0.00  0.00    +0.000 C 
ATOM      2  C   UNL     1      -1.610  -1.440   0.286  0.00  0.00    +0.000 C 
ENDROOT
BRANCH   2   3
ATOM      3  C   UNL     1      -2.371  -0.210   0.129  0.00  0.00    +0.000 A 
ATOM      4  C   UNL     1      -3.635   0.014   0.677  0.00  0.00    +0.000 A 
ATOM      5  C   UNL     1      -4.029   1.283   0.316  0.00  0.00    +0.000 A 
ATOM      6  C   UNL     1      -5.309   1.938   0.682  0.00  0.00    +0.000 C 
ATOM      7  O   UNL     1      -3.088   1.817  -0.404  0.00  0.00    +0.000 OA
ATOM      8  C   UNL     1      -2.083   0.954  -0.536  0.00  0.00    +0.000 A 
ATOM      9  C   UNL     1      -0.817   1.193  -1.292  0.00  0.00    +0.000 C 
ENDBRANCH   2   3
BRANCH   2  10
ATOM     10  N   UNL     1      -0.343  -1.700  -0.250  0.00  0.00    +0.000 NA
BRANCH  10  11
ATOM     11  N   UNL     1       0.750  -0.839  -0.255  0.00  0.00    +0.000 NA
ATOM     12  C   UNL     1       1.936  -1.176   0.421  0.00  0.00    +0.000 C 
ATOM     13  O   UNL     1       2.050  -2.250   1.044  0.00  0.00    +0.000 OA
BRANCH  12  14
ATOM     14  C   UNL     1       3.111  -0.264   0.424  0.00  0.00    +0.000 A 
ATOM     15  C   UNL     1       3.213   0.954  -0.180  0.00  0.00    +0.000 A 
ATOM     16  C   UNL     1       4.376   1.608  -0.045  0.00  0.00    +0.000 A 
ATOM     17  C   UNL     1       5.360   1.016   0.679  0.00  0.00    +0.000 A 
ATOM     18  S   UNL     1       4.634  -0.453   1.157  0.00  0.00    +0.000 S 
ENDBRANCH  12  14
ENDBRANCH  10  11
ENDBRANCH   2  10
TORSDOF 4
