REMARK  Name = 
REMARK  2 active torsions:
REMARK  status: ('A' for Active; 'I' for Inactive)
REMARK    1  A    between atoms: C_8  and  N_9
REMARK    2  A    between atoms: N_9  and  C_10
REMARK                            x       y       z     vdW  Elec       q    Type
REMARK                         _______ _______ _______ _____ _____    ______ ____
ROOT
ATOM      1  C   UNL     1      -4.553   2.201  -1.751  0.00  0.00    +0.000 C 
ATOM      2  C   UNL     1      -3.760   1.302  -0.831  0.00  0.00    +0.000 A 
ATOM      3  S   UNL     1      -4.293   0.315   0.448  0.00  0.00    +0.000 S 
ATOM      4  C   UNL     1      -2.787  -0.338   0.937  0.00  0.00    +0.000 A 
ATOM      5  N   UNL     1      -2.381  -1.217   1.908  0.00  0.00    +0.000 NA
ATOM      6  C   UNL     1      -1.088  -1.556   2.064  0.00  0.00    +0.000 A 
ATOM      7  N   UNL     1      -0.213  -0.989   1.220  0.00  0.00    +0.000 NA
ATOM      8  C   UNL     1      -0.559  -0.131   0.264  0.00  0.00    +0.000 A 
ATOM      9  C   UNL     1      -1.904   0.243   0.076  0.00  0.00    +0.000 A 
ATOM     10  C   UNL     1      -2.405   1.093  -0.842  0.00  0.00    +0.000 A 
ATOM     11  C   UNL     1      -1.564   1.831  -1.883  0.00  0.00    +0.000 C 
ENDROOT
BRANCH   8  12
ATOM     12  N   UNL     1       0.478   0.386  -0.552  0.00  0.00    +0.000 NA
BRANCH  12  13
ATOM     13  C   UNL     1       1.835   0.013  -0.367  0.00  0.00    +0.000 A 
ATOM     14  C   UNL     1       2.224  -0.874   0.616  0.00  0.00    +0.000 A 
ATOM     15  C   UNL     1       3.550  -1.219   0.772  0.00  0.00    +0.000 A 
ATOM     16  C   UNL     1       4.546  -0.705  -0.031  0.00  0.00    +0.000 A 
ATOM     17  O   UNL     1       5.881  -1.061   0.137  0.00  0.00    +0.000 OA
ATOM     18  C   UNL     1       4.160   0.182  -1.015  0.00  0.00    +0.000 A 
ATOM     19  C   UNL     1       2.833   0.526  -1.170  0.00  0.00    +0.000 A 
ENDBRANCH  12  13
ENDBRANCH   8  12
TORSDOF 2
