REMARK  Name = 
REMARK  3 active torsions:
REMARK  status: ('A' for Active; 'I' for Inactive)
REMARK    1  A    between atoms: C_2  and  C_3
REMARK    2  A    between atoms: C_4  and  C_5
REMARK    3  A    between atoms: C_8  and  N_9
REMARK                            x       y       z     vdW  Elec       q    Type
REMARK                         _______ _______ _______ _____ _____    ______ ____
ROOT
ATOM      1  C   UNL     1      -0.777  -0.670  -0.127  0.00  0.00    +0.000 A 
ATOM      2  C   UNL     1      -0.282   0.552  -0.561  0.00  0.00    +0.000 A 
ATOM      3  C   UNL     1       1.063   0.809  -0.499  0.00  0.00    +0.000 A 
ATOM      4  C   UNL     1       1.992  -0.113  -0.009  0.00  0.00    +0.000 A 
ATOM      5  C   UNL     1       1.470  -1.314   0.415  0.00  0.00    +0.000 A 
ATOM      6  C   UNL     1       0.121  -1.587   0.358  0.00  0.00    +0.000 A 
ENDROOT
BRANCH   1   8
ATOM      7  C   UNL     1      -3.210  -0.088   0.010  0.00  0.00    +0.000 C 
ATOM      8  C   UNL     1      -2.220  -0.944  -0.200  0.00  0.00    +0.000 C 
ATOM      9  C   UNL     1      -2.793  -2.261  -0.529  0.00  0.00    +0.000 C 
ATOM     10  N   UNL     1      -4.217  -2.087  -0.514  0.00  0.00    +0.000 NA
ATOM     11  C   UNL     1      -4.485  -0.745  -0.171  0.00  0.00    +0.000 C 
ATOM     12  O   UNL     1      -5.631  -0.200  -0.041  0.00  0.00    +0.000 OA
BRANCH   7  14
ATOM     13  C   UNL     1      -3.523   2.295  -0.656  0.00  0.00    +0.000 C 
ATOM     14  C   UNL     1      -2.939   1.348   0.370  0.00  0.00    +0.000 C 
ENDBRANCH   7  14
ENDBRANCH   1   8
BRANCH   4  15
ATOM     15  N   UNL     1       3.380   0.208   0.029  0.00  0.00    +0.000 N 
ATOM     16  C   UNL     1       4.431  -0.378  -0.551  0.00  0.00    +0.000 A 
ATOM     17  C   UNL     1       5.543   0.341  -0.188  0.00  0.00    +0.000 A 
ATOM     18  N   UNL     1       5.179   1.360   0.608  0.00  0.00    +0.000 NA
ATOM     19  C   UNL     1       3.849   1.255   0.724  0.00  0.00    +0.000 A 
ATOM     20  C   UNL     1       3.051   2.218   1.532  0.00  0.00    +0.000 C 
ENDBRANCH   4  15
TORSDOF 3
