REMARK  Name = 
REMARK  4 active torsions:
REMARK  status: ('A' for Active; 'I' for Inactive)
REMARK    1  A    between atoms: N_3  and  C_4
REMARK    2  A    between atoms: C_4  and  C_5
REMARK    3  A    between atoms: N_13  and  C_14
REMARK    4  A    between atoms: C_14  and  C_15
REMARK                            x       y       z     vdW  Elec       q    Type
REMARK                         _______ _______ _______ _____ _____    ______ ____
ROOT
ATOM      1  N   UNL     1      -0.276  -1.736   0.972  0.00  0.00    +0.000 NA
ATOM      2  C   UNL     1      -0.119  -0.671   0.037  0.00  0.00    +0.000 A 
ATOM      3  N   UNL     1       0.914   0.190  -0.001  0.00  0.00    +0.000 N 
ATOM      4  N   UNL     1       0.652   1.001  -1.014  0.00  0.00    +0.000 NA
ATOM      5  N   UNL     1      -0.494   0.656  -1.577  0.00  0.00    +0.000 NA
ATOM      6  N   UNL     1      -0.992  -0.392  -0.930  0.00  0.00    +0.000 N 
ENDROOT
BRANCH   3   7
ATOM      7  C   UNL     1       2.040   0.179   0.899  0.00  0.00    +0.000 C 
BRANCH   7   8
ATOM      8  C   UNL     1       3.161  -0.679   0.395  0.00  0.00    +0.000 C 
ATOM      9  C   UNL     1       3.662  -0.183  -0.944  0.00  0.00    +0.000 C 
ATOM     10  C   UNL     1       5.152   0.082  -0.916  0.00  0.00    +0.000 C 
ATOM     11  C   UNL     1       5.377   1.162   0.138  0.00  0.00    +0.000 C 
ATOM     12  C   UNL     1       5.048   0.577   1.474  0.00  0.00    +0.000 C 
ATOM     13  C   UNL     1       4.253  -0.679   1.422  0.00  0.00    +0.000 C 
ENDBRANCH   7   8
ENDBRANCH   3   7
BRANCH   6  14
ATOM     14  C   UNL     1      -2.253  -1.070  -1.253  0.00  0.00    +0.000 C 
BRANCH  14  15
ATOM     15  C   UNL     1      -3.342  -0.405  -0.472  0.00  0.00    +0.000 A 
ATOM     16  C   UNL     1      -3.718  -0.795   0.773  0.00  0.00    +0.000 A 
ATOM     17  C   UNL     1      -4.731  -0.139   1.440  0.00  0.00    +0.000 A 
ATOM     18  C   UNL     1      -5.369   0.924   0.837  0.00  0.00    +0.000 A 
ATOM     19  C   UNL     1      -4.989   1.320  -0.425  0.00  0.00    +0.000 A 
ATOM     20  C   UNL     1      -3.974   0.656  -1.083  0.00  0.00    +0.000 A 
ENDBRANCH  14  15
ENDBRANCH   6  14
TORSDOF 4
