REMARK  Name = 
REMARK  4 active torsions:
REMARK  status: ('A' for Active; 'I' for Inactive)
REMARK    1  A    between atoms: C_2  and  C_5
REMARK    2  A    between atoms: C_5  and  C_7
REMARK    3  A    between atoms: C_7  and  C_15
REMARK    4  A    between atoms: C_8  and  C_9
REMARK                            x       y       z     vdW  Elec       q    Type
REMARK                         _______ _______ _______ _____ _____    ______ ____
ROOT
ATOM      1  C   UNL     1       0.822  -0.252  -0.253  0.00  0.00    +0.000 C 
ATOM      2  C   UNL     1       0.089  -1.191   0.289  0.00  0.00    +0.000 C 
ENDROOT
BRANCH   2   3
ATOM      3  C   UNL     1      -1.272  -0.992   0.663  0.00  0.00    +0.000 A 
ATOM      4  C   UNL     1      -2.237  -0.467  -0.137  0.00  0.00    +0.000 A 
ATOM      5  C   UNL     1      -3.521  -0.296   0.304  0.00  0.00    +0.000 A 
ATOM      6  C   UNL     1      -3.839  -0.665   1.586  0.00  0.00    +0.000 A 
ATOM      7  C   UNL     1      -2.908  -1.201   2.441  0.00  0.00    +0.000 A 
ATOM      8  C   UNL     1      -1.616  -1.363   1.969  0.00  0.00    +0.000 A 
ENDBRANCH   2   3
BRANCH   1   9
ATOM      9  C   UNL     1       0.347   1.133  -0.479  0.00  0.00    +0.000 A 
ATOM     10  N   UNL     1      -0.776   1.736  -0.179  0.00  0.00    +0.000 NA
ATOM     11  C   UNL     1      -0.966   2.978  -0.488  0.00  0.00    +0.000 A 
ATOM     12  O   UNL     1      -2.166   3.675  -0.183  0.00  0.00    +0.000 OA
ATOM     13  C   UNL     1       0.050   3.631  -1.139  0.00  0.00    +0.000 A 
ATOM     14  S   UNL     1       1.223   2.397  -1.262  0.00  0.00    +0.000 S 
ENDBRANCH   1   9
BRANCH   1  15
ATOM     15  C   UNL     1       2.217  -0.531  -0.619  0.00  0.00    +0.000 C 
ATOM     16  O   UNL     1       2.925   0.343  -1.122  0.00  0.00    +0.000 OA
BRANCH  15  18
ATOM     17  C   UNL     1       2.696  -2.194   1.076  0.00  0.00    +0.000 C 
ATOM     18  C   UNL     1       2.779  -1.882  -0.384  0.00  0.00    +0.000 C 
ATOM     19  C   UNL     1       1.941  -2.902  -1.165  0.00  0.00    +0.000 C 
ATOM     20  C   UNL     1       4.213  -1.956  -0.917  0.00  0.00    +0.000 C 
ENDBRANCH  15  18
ENDBRANCH   1  15
TORSDOF 4
