REMARK  Name = 
REMARK  4 active torsions:
REMARK  status: ('A' for Active; 'I' for Inactive)
REMARK    1  A    between atoms: C_2  and  O_3
REMARK    2  A    between atoms: O_3  and  C_4
REMARK    3  A    between atoms: C_4  and  C_6
REMARK    4  A    between atoms: C_10  and  C_11
REMARK                            x       y       z     vdW  Elec       q    Type
REMARK                         _______ _______ _______ _____ _____    ______ ____
ROOT
ATOM      1  C   UNL     1       1.459  -0.255   0.099  0.00  0.00    +0.000 A 
ATOM      2  C   UNL     1       0.683  -1.183   0.718  0.00  0.00    +0.000 A 
ATOM      3  C   UNL     1       1.346  -2.387   1.302  0.00  0.00    +0.000 C 
ATOM      4  N   UNL     1      -0.646  -0.993   0.785  0.00  0.00    +0.000 NA
ATOM      5  C   UNL     1      -1.264   0.086   0.264  0.00  0.00    +0.000 A 
ATOM      6  N   UNL     1      -0.484   0.991  -0.343  0.00  0.00    +0.000 NA
ATOM      7  C   UNL     1       0.863   0.855  -0.443  0.00  0.00    +0.000 A 
ATOM      8  N   UNL     1       1.654   1.850  -1.101  0.00  0.00    +0.000 NA
ENDROOT
BRANCH   5   9
ATOM      9  C   UNL     1      -2.700   0.214   0.380  0.00  0.00    +0.000 A 
ATOM     10  C   UNL     1      -3.442  -0.745   1.012  0.00  0.00    +0.000 A 
ATOM     11  C   UNL     1      -4.832  -0.632   1.130  0.00  0.00    +0.000 A 
ATOM     12  C   UNL     1      -5.454   0.464   0.600  0.00  0.00    +0.000 A 
ATOM     13  C   UNL     1      -4.703   1.433  -0.039  0.00  0.00    +0.000 A 
ATOM     14  C   UNL     1      -3.312   1.316  -0.155  0.00  0.00    +0.000 A 
ENDBRANCH   5   9
BRANCH   1  15
ATOM     15  C   UNL     1       2.913  -0.449   0.017  0.00  0.00    +0.000 C 
ATOM     16  O   UNL     1       3.445  -1.460   0.511  0.00  0.00    +0.000 OA
BRANCH  15  17
ATOM     17  O   UNL     1       3.721   0.489  -0.612  0.00  0.00    +0.000 OA
BRANCH  17  19
ATOM     18  C   UNL     1       5.623   0.158   0.769  0.00  0.00    +0.000 C 
ATOM     19  C   UNL     1       5.129   0.249  -0.662  0.00  0.00    +0.000 C 
ENDBRANCH  17  19
ENDBRANCH  15  17
ENDBRANCH   1  15
TORSDOF 4
