REMARK  Name = 
REMARK  6 active torsions:
REMARK  status: ('A' for Active; 'I' for Inactive)
REMARK    1  A    between atoms: C_2  and  C_3
REMARK    2  A    between atoms: C_3  and  O_4
REMARK    3  A    between atoms: O_4  and  C_5
REMARK    4  A    between atoms: N_7  and  C_8
REMARK    5  A    between atoms: C_9  and  C_10
REMARK    6  A    between atoms: C_10  and  O_12
REMARK                            x       y       z     vdW  Elec       q    Type
REMARK                         _______ _______ _______ _____ _____    ______ ____
ROOT
ATOM      1  C   UNL     1      -0.572   0.095  -0.013  0.00  0.00    +0.000 A 
ATOM      2  C   UNL     1      -1.642   1.001   0.045  0.00  0.00    +0.000 A 
ATOM      3  N   UNL     1      -2.759   0.274   0.152  0.00  0.00    +0.000 NA
ATOM      4  C   UNL     1      -2.477  -1.038   0.167  0.00  0.00    +0.000 A 
ATOM      5  C   UNL     1      -3.256  -2.156   0.260  0.00  0.00    +0.000 A 
ATOM      6  C   UNL     1      -2.742  -3.436   0.256  0.00  0.00    +0.000 A 
ATOM      7  C   UNL     1      -1.363  -3.559   0.151  0.00  0.00    +0.000 A 
ATOM      8  C   UNL     1      -0.596  -2.426   0.060  0.00  0.00    +0.000 A 
ATOM      9  C   UNL     1      -1.114  -1.156   0.064  0.00  0.00    +0.000 A 
ENDROOT
BRANCH   1  12
ATOM     10  C   UNL     1       1.883  -0.261  -0.195  0.00  0.00    +0.000 C 
ATOM     11  O   UNL     1       1.850  -1.512  -0.157  0.00  0.00    +0.000 OA
ATOM     12  N   UNL     1       0.743   0.555  -0.129  0.00  0.00    +0.000 NA
BRANCH  10  13
ATOM     13  O   UNL     1       3.180   0.288  -0.311  0.00  0.00    +0.000 OA
BRANCH  13  14
ATOM     14  C   UNL     1       4.317  -0.545  -0.376  0.00  0.00    +0.000 C 
BRANCH  14  16
ATOM     15  C   UNL     1       6.437   0.212   0.464  0.00  0.00    +0.000 C 
ATOM     16  C   UNL     1       5.521   0.313  -0.494  0.00  0.00    +0.000 C 
ENDBRANCH  14  16
ENDBRANCH  13  14
ENDBRANCH  10  13
ENDBRANCH   1  12
BRANCH   2  17
ATOM     17  C   UNL     1      -1.556   2.467  -0.003  0.00  0.00    +0.000 C 
ATOM     18  O   UNL     1      -0.435   3.021  -0.106  0.00  0.00    +0.000 OA
BRANCH  17  19
ATOM     19  O   UNL     1      -2.715   3.225   0.066  0.00  0.00    +0.000 OA
ATOM     20  C   UNL     1      -2.705   4.638   0.025  0.00  0.00    +0.000 C 
ENDBRANCH  17  19
ENDBRANCH   2  17
TORSDOF 6
