REMARK  Name = 
REMARK  4 active torsions:
REMARK  status: ('A' for Active; 'I' for Inactive)
REMARK    1  A    between atoms: C_2  and  N_3
REMARK    2  A    between atoms: C_6  and  C_7
REMARK    3  A    between atoms: C_12  and  O_13
REMARK    4  A    between atoms: C_16  and  O_17
REMARK                            x       y       z     vdW  Elec       q    Type
REMARK                         _______ _______ _______ _____ _____    ______ ____
ROOT
ATOM      1  C   UNL     1       0.316   0.444  -0.411  0.00  0.00    +0.000 A 
ATOM      2  C   UNL     1       0.287   1.657  -1.098  0.00  0.00    +0.000 A 
ATOM      3  N   UNL     1      -0.951   2.086  -1.240  0.00  0.00    +0.000 NA
ATOM      4  C   UNL     1      -1.767   1.187  -0.661  0.00  0.00    +0.000 A 
ATOM      5  C   UNL     1      -3.131   1.190  -0.550  0.00  0.00    +0.000 A 
ATOM      6  C   UNL     1      -3.785   0.161   0.088  0.00  0.00    +0.000 A 
ATOM      7  C   UNL     1      -3.036  -0.865   0.610  0.00  0.00    +0.000 A 
ATOM      8  C   UNL     1      -1.640  -0.874   0.500  0.00  0.00    +0.000 A 
ATOM      9  C   UNL     1      -0.987   0.148  -0.135  0.00  0.00    +0.000 A 
ENDROOT
BRANCH   1  13
ATOM     10  N   UNL     1       5.187  -0.324  -0.375  0.00  0.00    +0.000 NA
ATOM     11  C   UNL     1       3.793  -0.621  -0.091  0.00  0.00    +0.000 A 
ATOM     12  N   UNL     1       2.735   0.078  -0.401  0.00  0.00    +0.000 NA
ATOM     13  C   UNL     1       1.537  -0.340  -0.065  0.00  0.00    +0.000 A 
ATOM     14  C   UNL     1       1.503  -1.533   0.617  0.00  0.00    +0.000 A 
ATOM     15  S   UNL     1       3.141  -1.968   0.729  0.00  0.00    +0.000 S 
BRANCH  10  17
ATOM     16  C   UNL     1       4.958   2.116  -0.365  0.00  0.00    +0.000 C 
ATOM     17  C   UNL     1       5.447   0.904  -1.095  0.00  0.00    +0.000 C 
ENDBRANCH  10  17
ENDBRANCH   1  13
BRANCH   6  18
ATOM     18  O   UNL     1      -5.163   0.215   0.171  0.00  0.00    +0.000 OA
ATOM     19  C   UNL     1      -5.945   1.246  -0.351  0.00  0.00    +0.000 C 
ENDBRANCH   6  18
BRANCH   8  20
ATOM     20  O   UNL     1      -0.921  -1.919   1.036  0.00  0.00    +0.000 OA
ATOM     21  C   UNL     1      -1.578  -2.988   1.698  0.00  0.00    +0.000 C 
ENDBRANCH   8  20
TORSDOF 4
