REMARK  Name = 
REMARK  4 active torsions:
REMARK  status: ('A' for Active; 'I' for Inactive)
REMARK    1  A    between atoms: C_2  and  N_3
REMARK    2  A    between atoms: C_2  and  C_13
REMARK    3  A    between atoms: N_3  and  N_4
REMARK    4  A    between atoms: C_5  and  C_7
REMARK                            x       y       z     vdW  Elec       q    Type
REMARK                         _______ _______ _______ _____ _____    ______ ____
ROOT
ATOM      1  C   UNL     1      -0.647  -1.135  -1.939  0.00  0.00    +0.000 C 
ATOM      2  C   UNL     1      -0.946  -0.969  -0.678  0.00  0.00    +0.000 C 
ENDROOT
BRANCH   2   3
ATOM      3  C   UNL     1      -2.256  -0.570  -0.237  0.00  0.00    +0.000 A 
ATOM      4  C   UNL     1      -2.698  -0.769   1.051  0.00  0.00    +0.000 A 
ATOM      5  C   UNL     1      -3.955  -0.352   1.494  0.00  0.00    +0.000 A 
ATOM      6  C   UNL     1      -4.806   0.289   0.624  0.00  0.00    +0.000 A 
ATOM      7  C   UNL     1      -6.163   0.744   1.115  0.00  0.00    +0.000 C 
ATOM      8  C   UNL     1      -4.392   0.503  -0.670  0.00  0.00    +0.000 A 
ATOM      9  C   UNL     1      -5.337   1.218  -1.601  0.00  0.00    +0.000 C 
ATOM     10  C   UNL     1      -3.147   0.087  -1.103  0.00  0.00    +0.000 A 
ENDBRANCH   2   3
BRANCH   2  11
ATOM     11  N   UNL     1       0.088  -1.152   0.294  0.00  0.00    +0.000 NA
BRANCH  11  12
ATOM     12  N   UNL     1       1.157  -0.207   0.316  0.00  0.00    +0.000 NA
ATOM     13  C   UNL     1       2.510  -0.580   0.356  0.00  0.00    +0.000 C 
ATOM     14  O   UNL     1       2.787  -1.807   0.388  0.00  0.00    +0.000 OA
BRANCH  13  15
ATOM     15  C   UNL     1       3.599   0.401   0.361  0.00  0.00    +0.000 A 
ATOM     16  C   UNL     1       3.615   1.671   0.884  0.00  0.00    +0.000 A 
ATOM     17  C   UNL     1       4.892   2.172   0.596  0.00  0.00    +0.000 A 
ATOM     18  O   UNL     1       5.578   1.283  -0.040  0.00  0.00    +0.000 OA
ATOM     19  C   UNL     1       4.852   0.215  -0.203  0.00  0.00    +0.000 A 
ATOM     20  C   UNL     1       5.270  -1.042  -0.890  0.00  0.00    +0.000 C 
ENDBRANCH  13  15
ENDBRANCH  11  12
ENDBRANCH   2  11
TORSDOF 4
