REMARK  Name = 
REMARK  2 active torsions:
REMARK  status: ('A' for Active; 'I' for Inactive)
REMARK    1  A    between atoms: O_2  and  C_3
REMARK    2  A    between atoms: N_5  and  C_6
REMARK                            x       y       z     vdW  Elec       q    Type
REMARK                         _______ _______ _______ _____ _____    ______ ____
ROOT
ATOM      1  C   UNL     1       2.238  -0.848   0.048  0.00  0.00    +0.000 A 
ATOM      2  C   UNL     1       1.937  -2.204   0.035  0.00  0.00    +0.000 A 
ATOM      3  C   UNL     1       0.632  -2.646  -0.034  0.00  0.00    +0.000 A 
ATOM      4  C   UNL     1      -0.399  -1.701  -0.093  0.00  0.00    +0.000 A 
ATOM      5  C   UNL     1      -0.067  -0.361  -0.079  0.00  0.00    +0.000 A 
ATOM      6  C   UNL     1       1.241   0.076  -0.009  0.00  0.00    +0.000 A 
ATOM      7  N   UNL     1      -0.943   0.763  -0.129  0.00  0.00    +0.000 NA
ATOM      8  C   UNL     1      -2.379   0.739  -0.131  0.00  0.00    +0.000 A 
ATOM      9  C   UNL     1      -2.899   1.935  -0.567  0.00  0.00    +0.000 A 
ATOM     10  C   UNL     1      -4.269   2.069  -0.625  0.00  0.00    +0.000 A 
ATOM     11  C   UNL     1      -5.081   1.011  -0.249  0.00  0.00    +0.000 A 
ATOM     12  C   UNL     1      -4.567  -0.197   0.191  0.00  0.00    +0.000 A 
ATOM     13  C   UNL     1      -3.191  -0.328   0.248  0.00  0.00    +0.000 A 
ATOM     14  C   UNL     1      -2.747  -1.665   0.734  0.00  0.00    +0.000 C 
ATOM     15  C   UNL     1      -1.737  -2.307  -0.163  0.00  0.00    +0.000 C 
ENDROOT
BRANCH   1  18
ATOM     16  C   UNL     1       4.082   0.834   0.142  0.00  0.00    +0.000 C 
ATOM     17  O   UNL     1       3.231   1.762   0.094  0.00  0.00    +0.000 OA
ATOM     18  N   UNL     1       3.630  -0.493   0.122  0.00  0.00    +0.000 NA
BRANCH  16  20
ATOM     19  C   UNL     1       5.847   2.456   0.233  0.00  0.00    +0.000 C 
ATOM     20  O   UNL     1       5.439   1.105   0.215  0.00  0.00    +0.000 OA
ENDBRANCH  16  20
ENDBRANCH   1  18
TORSDOF 2
