REMARK  Name = 
REMARK  3 active torsions:
REMARK  status: ('A' for Active; 'I' for Inactive)
REMARK    1  A    between atoms: C_2  and  C_3
REMARK    2  A    between atoms: C_3  and  C_4
REMARK    3  A    between atoms: C_13  and  C_14
REMARK                            x       y       z     vdW  Elec       q    Type
REMARK                         _______ _______ _______ _____ _____    ______ ____
ROOT
ATOM      1  C   UNL     1       0.589   0.130  -1.071  0.00  0.00    +0.000 C 
ATOM      2  C   UNL     1       2.025   0.306  -0.389  0.00  0.00    +0.000 A 
ATOM      3  C   UNL     1       3.216   0.621  -0.973  0.00  0.00    +0.000 A 
ATOM      4  C   UNL     1       4.352   0.694  -0.145  0.00  0.00    +0.000 A 
ATOM      5  C   UNL     1       4.267   0.455   1.200  0.00  0.00    +0.000 A 
ATOM      6  O   UNL     1       5.431   0.545   1.948  0.00  0.00    +0.000 OA
ATOM      7  C   UNL     1       3.043   0.142   1.737  0.00  0.00    +0.000 A 
ATOM      8  C   UNL     1       1.909   0.071   0.905  0.00  0.00    +0.000 A 
ATOM      9  C   UNL     1       0.543  -0.225   1.306  0.00  0.00    +0.000 C 
ATOM     10  C   UNL     1       0.197  -1.119   0.018  0.00  0.00    +0.000 C 
ENDROOT
BRANCH  10  11
ATOM     11  C   UNL     1      -1.344  -1.024  -0.062  0.00  0.00    +0.000 A 
ATOM     12  C   UNL     1      -1.885  -1.325  -1.299  0.00  0.00    +0.000 A 
ATOM     13  C   UNL     1      -3.278  -1.303  -1.483  0.00  0.00    +0.000 A 
ATOM     14  C   UNL     1      -4.117  -0.984  -0.441  0.00  0.00    +0.000 A 
ATOM     15  O   UNL     1      -5.507  -0.969  -0.647  0.00  0.00    +0.000 OA
ATOM     16  C   UNL     1      -3.545  -0.691   0.771  0.00  0.00    +0.000 A 
ATOM     17  C   UNL     1      -2.170  -0.717   0.932  0.00  0.00    +0.000 A 
ENDBRANCH  10  11
BRANCH   1  18
ATOM     18  C   UNL     1      -0.054   1.373  -0.267  0.00  0.00    +0.000 C 
BRANCH  18  20
ATOM     19  C   UNL     1      -2.214   2.572  -0.117  0.00  0.00    +0.000 C 
ATOM     20  C   UNL     1      -1.458   1.448  -0.774  0.00  0.00    +0.000 C 
ENDBRANCH  18  20
ENDBRANCH   1  18
TORSDOF 3
