REMARK  Name = 
REMARK  4 active torsions:
REMARK  status: ('A' for Active; 'I' for Inactive)
REMARK    1  A    between atoms: C_2  and  N_3
REMARK    2  A    between atoms: C_2  and  C_15
REMARK    3  A    between atoms: C_4  and  C_6
REMARK    4  A    between atoms: C_11  and  N_12
REMARK                            x       y       z     vdW  Elec       q    Type
REMARK                         _______ _______ _______ _____ _____    ______ ____
ROOT
ATOM      1  N   UNL     1       0.220  -1.231   0.975  0.00  0.00    +0.000 NA
ATOM      2  C   UNL     1      -0.469  -0.181   0.380  0.00  0.00    +0.000 C 
ATOM      3  O   UNL     1       0.003   0.957   0.539  0.00  0.00    +0.000 OA
ENDROOT
BRANCH   2   4
ATOM      4  C   UNL     1      -1.696  -0.366  -0.410  0.00  0.00    +0.000 A 
ATOM      5  C   UNL     1      -1.707  -1.354  -1.405  0.00  0.00    +0.000 A 
ATOM      6  C   UNL     1      -2.845  -1.524  -2.169  0.00  0.00    +0.000 A 
ATOM      7  C   UNL     1      -3.948  -0.738  -1.960  0.00  0.00    +0.000 A 
ATOM      8  C   UNL     1      -3.920   0.224  -0.984  0.00  0.00    +0.000 A 
ATOM      9  C   UNL     1      -2.781   0.408  -0.202  0.00  0.00    +0.000 A 
BRANCH   9  10
ATOM     10  N   UNL     1      -2.808   1.401   0.792  0.00  0.00    +0.000 N 
ATOM     11  O   UNL     1      -3.525   2.438   0.656  0.00  0.00    +0.000 OA
ATOM     12  O   UNL     1      -2.059   1.294   1.940  0.00  0.00    +0.000 OA
ENDBRANCH   9  10
ENDBRANCH   2   4
BRANCH   1  14
ATOM     13  C   UNL     1       2.359  -2.198   1.119  0.00  0.00    +0.000 C 
ATOM     14  C   UNL     1       1.507  -0.961   1.794  0.00  0.00    +0.000 C 
BRANCH  14  15
ATOM     15  C   UNL     1       2.140   0.296   0.845  0.00  0.00    +0.000 C 
ATOM     16  C   UNL     1       3.638   0.061   1.298  0.00  0.00    +0.000 C 
ATOM     17  C   UNL     1       4.375   0.469  -0.115  0.00  0.00    +0.000 C 
ATOM     18  C   UNL     1       3.274   1.546  -0.698  0.00  0.00    +0.000 C 
ATOM     19  C   UNL     1       2.398   0.834  -1.539  0.00  0.00    +0.000 C 
ATOM     20  C   UNL     1       2.132  -0.497  -0.635  0.00  0.00    +0.000 C 
ATOM     21  C   UNL     1       3.713  -0.878  -0.735  0.00  0.00    +0.000 C 
ENDBRANCH  14  15
ENDBRANCH   1  14
TORSDOF 4
