REMARK  Name = 
REMARK  5 active torsions:
REMARK  status: ('A' for Active; 'I' for Inactive)
REMARK    1  A    between atoms: C_7  and  C_8
REMARK    2  A    between atoms: C_15  and  C_16
REMARK    3  A    between atoms: C_16  and  O_18
REMARK    4  A    between atoms: O_18  and  C_19
REMARK    5  A    between atoms: C_19  and  C_20
REMARK                            x       y       z     vdW  Elec       q    Type
REMARK                         _______ _______ _______ _____ _____    ______ ____
ROOT
ATOM      1  C   UNL     1       1.678   0.583   1.558  0.00  0.00    +0.000 C 
ATOM      2  C   UNL     1       1.285   1.261   0.596  0.00  0.00    +0.000 C 
ATOM      3  N   UNL     1       1.052   2.586   0.497  0.00  0.00    +0.000 NA
ATOM      4  C   UNL     1      -0.217   3.021  -0.030  0.00  0.00    +0.000 C 
ATOM      5  O   UNL     1      -0.594   4.190  -0.179  0.00  0.00    +0.000 OA
ATOM      6  N   UNL     1      -1.029   1.938  -0.351  0.00  0.00    +0.000 NA
ATOM      7  C   UNL     1      -0.556   0.582  -0.801  0.00  0.00    +0.000 C 
ATOM      8  C   UNL     1       0.942   0.513  -0.810  0.00  0.00    +0.000 C 
ENDROOT
BRANCH   7   9
ATOM      9  C   UNL     1      -1.693  -0.260  -0.636  0.00  0.00    +0.000 A 
ATOM     10  C   UNL     1      -2.587  -0.012  -1.736  0.00  0.00    +0.000 A 
ATOM     11  C   UNL     1      -3.902  -0.398  -1.643  0.00  0.00    +0.000 A 
ATOM     12  C   UNL     1      -4.412  -1.011  -0.556  0.00  0.00    +0.000 A 
ATOM     13  C   UNL     1      -3.474  -1.243   0.540  0.00  0.00    +0.000 A 
ATOM     14  C   UNL     1      -2.237  -0.861   0.398  0.00  0.00    +0.000 A 
ATOM     15  O   UNL     1      -1.323  -1.039   1.342  0.00  0.00    +0.000 OA
ENDBRANCH   7   9
BRANCH   8  16
ATOM     16  C   UNL     1       1.557  -0.832  -0.718  0.00  0.00    +0.000 C 
ATOM     17  O   UNL     1       1.597  -1.669  -1.649  0.00  0.00    +0.000 OA
BRANCH  16  18
ATOM     18  O   UNL     1       2.166  -1.235   0.500  0.00  0.00    +0.000 OA
BRANCH  18  19
ATOM     19  C   UNL     1       2.800  -2.423   0.706  0.00  0.00    +0.000 C 
BRANCH  19  20
ATOM     20  C   UNL     1       4.021  -2.433  -0.227  0.00  0.00    +0.000 C 
ATOM     21  C   UNL     1       4.930  -1.258   0.141  0.00  0.00    +0.000 C 
ENDBRANCH  19  20
ENDBRANCH  18  19
ENDBRANCH  16  18
ENDBRANCH   8  16
TORSDOF 5
