REMARK  Name = 
REMARK  2 active torsions:
REMARK  status: ('A' for Active; 'I' for Inactive)
REMARK    1  A    between atoms: N_11  and  C_12
REMARK    2  A    between atoms: C_12  and  C_13
REMARK                            x       y       z     vdW  Elec       q    Type
REMARK                         _______ _______ _______ _____ _____    ______ ____
ROOT
ATOM      1  C   UNL     1       1.941   1.113   2.112  0.00  0.00    +0.000 C 
ATOM      2  C   UNL     1       2.895   1.336   0.772  0.00  0.00    +0.000 C 
ATOM      3  C   UNL     1       3.919   0.116   1.247  0.00  0.00    +0.000 C 
ATOM      4  C   UNL     1       4.973   0.242   0.149  0.00  0.00    +0.000 C 
ATOM      5  C   UNL     1       4.279   0.059  -1.196  0.00  0.00    +0.000 C 
ATOM      6  C   UNL     1       2.948  -0.568  -0.906  0.00  0.00    +0.000 C 
ATOM      7  C   UNL     1       2.013   0.379  -0.206  0.00  0.00    +0.000 C 
ATOM      8  N   UNL     1       1.508   1.292  -1.213  0.00  0.00    +0.000 NA
ATOM      9  C   UNL     1       0.242   0.737  -1.571  0.00  0.00    +0.000 C 
ATOM     10  O   UNL     1      -0.405   1.029  -2.623  0.00  0.00    +0.000 OA
ATOM     11  N   UNL     1      -0.144  -0.193  -0.539  0.00  0.00    +0.000 N 
ATOM     12  C   UNL     1       0.870  -0.213   0.400  0.00  0.00    +0.000 C 
ATOM     13  O   UNL     1       0.726  -0.714   1.522  0.00  0.00    +0.000 OA
ENDROOT
BRANCH  11  14
ATOM     14  C   UNL     1      -1.422  -0.908  -0.604  0.00  0.00    +0.000 C 
BRANCH  14  15
ATOM     15  C   UNL     1      -2.519   0.075   0.107  0.00  0.00    +0.000 A 
ATOM     16  C   UNL     1      -2.163   0.300   1.362  0.00  0.00    +0.000 A 
ATOM     17  C   UNL     1      -3.307   0.824   2.098  0.00  0.00    +0.000 A 
ATOM     18  C   UNL     1      -4.515   0.981   1.470  0.00  0.00    +0.000 A 
ATOM     19  C   UNL     1      -4.661   0.694   0.085  0.00  0.00    +0.000 A 
ATOM     20  C   UNL     1      -3.506   0.215  -0.527  0.00  0.00    +0.000 A 
ATOM     21  F   UNL     1      -3.670   0.084  -1.939  0.00  0.00    +0.000 F 
ENDBRANCH  14  15
ENDBRANCH  11  14
TORSDOF 2
