REMARK  Name = 
REMARK  2 active torsions:
REMARK  status: ('A' for Active; 'I' for Inactive)
REMARK    1  A    between atoms: N_11  and  C_12
REMARK    2  A    between atoms: C_12  and  C_13
REMARK                            x       y       z     vdW  Elec       q    Type
REMARK                         _______ _______ _______ _____ _____    ______ ____
ROOT
ATOM      1  O   UNL     1       2.053   2.807   0.278  0.00  0.00    +0.000 OA
ATOM      2  C   UNL     1       1.052   2.046   0.175  0.00  0.00    +0.000 A 
ATOM      3  N   UNL     1      -0.118   2.304   0.775  0.00  0.00    +0.000 NA
ATOM      4  C   UNL     1      -1.198   1.475   0.659  0.00  0.00    +0.000 A 
ATOM      5  S   UNL     1      -2.782   1.514   1.276  0.00  0.00    +0.000 S 
ATOM      6  C   UNL     1      -3.379   0.071   0.594  0.00  0.00    +0.000 A 
ATOM      7  C   UNL     1      -2.313  -0.411  -0.106  0.00  0.00    +0.000 A 
ATOM      8  C   UNL     1      -1.166   0.326  -0.073  0.00  0.00    +0.000 A 
ATOM      9  C   UNL     1       0.081   0.077  -0.696  0.00  0.00    +0.000 A 
ATOM     10  O   UNL     1       0.260  -0.948  -1.405  0.00  0.00    +0.000 OA
ATOM     11  N   UNL     1       1.107   0.924  -0.548  0.00  0.00    +0.000 N 
ATOM     12  C   UNL     1      -2.482  -1.736  -0.875  0.00  0.00    +0.000 C 
ATOM     13  C   UNL     1      -3.895  -2.135  -0.892  0.00  0.00    +0.000 C 
ATOM     14  C   UNL     1      -4.572  -2.036   0.460  0.00  0.00    +0.000 C 
ATOM     15  C   UNL     1      -4.730  -0.557   0.701  0.00  0.00    +0.000 C 
ENDROOT
BRANCH  11  16
ATOM     16  C   UNL     1       2.356   0.600  -1.219  0.00  0.00    +0.000 C 
BRANCH  16  17
ATOM     17  C   UNL     1       3.253  -0.215  -0.383  0.00  0.00    +0.000 A 
ATOM     18  C   UNL     1       3.273  -1.591  -0.344  0.00  0.00    +0.000 A 
ATOM     19  C   UNL     1       4.262  -1.947   0.569  0.00  0.00    +0.000 A 
ATOM     20  C   UNL     1       4.782  -0.771   1.028  0.00  0.00    +0.000 A 
ATOM     21  O   UNL     1       4.157   0.203   0.440  0.00  0.00    +0.000 OA
ENDBRANCH  16  17
ENDBRANCH  11  16
TORSDOF 2
