REMARK  Name = 
REMARK  3 active torsions:
REMARK  status: ('A' for Active; 'I' for Inactive)
REMARK    1  A    between atoms: C_6  and  N_7
REMARK    2  A    between atoms: N_7  and  C_8
REMARK    3  A    between atoms: C_8  and  C_9
REMARK                            x       y       z     vdW  Elec       q    Type
REMARK                         _______ _______ _______ _____ _____    ______ ____
ROOT
ATOM      1  C   UNL     1       5.601   1.180   0.561  0.00  0.00    +0.000 C 
ATOM      2  C   UNL     1       4.277   0.591   0.302  0.00  0.00    +0.000 A 
ATOM      3  N   UNL     1       3.478  -0.123   1.127  0.00  0.00    +0.000 NA
ATOM      4  C   UNL     1       2.349  -0.461   0.438  0.00  0.00    +0.000 A 
ATOM      5  C   UNL     1       1.210  -1.159   0.845  0.00  0.00    +0.000 A 
ATOM      6  C   UNL     1       0.192  -1.327  -0.040  0.00  0.00    +0.000 A 
ATOM      7  C   UNL     1       0.392  -0.754  -1.341  0.00  0.00    +0.000 A 
ATOM      8  C   UNL     1       1.508  -0.071  -1.742  0.00  0.00    +0.000 A 
ATOM      9  C   UNL     1       2.545   0.092  -0.823  0.00  0.00    +0.000 A 
ATOM     10  N   UNL     1       3.704   0.725  -0.927  0.00  0.00    +0.000 N 
ATOM     11  C   UNL     1       4.268   1.315  -2.158  0.00  0.00    +0.000 C 
ENDROOT
BRANCH   6  12
ATOM     12  N   UNL     1      -1.004  -1.918   0.181  0.00  0.00    +0.000 NA
BRANCH  12  13
ATOM     13  C   UNL     1      -2.273  -1.608   0.624  0.00  0.00    +0.000 C 
BRANCH  13  14
ATOM     14  C   UNL     1      -2.899  -0.316   0.369  0.00  0.00    +0.000 A 
ATOM     15  C   UNL     1      -2.858   0.768   1.218  0.00  0.00    +0.000 A 
ATOM     16  C   UNL     1      -3.675   1.919   1.086  0.00  0.00    +0.000 A 
ATOM     17  C   UNL     1      -4.555   1.924   0.007  0.00  0.00    +0.000 A 
ATOM     18  C   UNL     1      -4.616   0.818  -0.877  0.00  0.00    +0.000 A 
ATOM     19  C   UNL     1      -3.827  -0.241  -0.710  0.00  0.00    +0.000 A 
ATOM     20  O   UNL     1      -3.818  -1.353  -1.532  0.00  0.00    +0.000 OA
ENDBRANCH  13  14
ENDBRANCH  12  13
ENDBRANCH   6  12
TORSDOF 3
