REMARK  Name = 
REMARK  2 active torsions:
REMARK  status: ('A' for Active; 'I' for Inactive)
REMARK    1  A    between atoms: C_2  and  C_16
REMARK    2  A    between atoms: N_3  and  N_4
REMARK                            x       y       z     vdW  Elec       q    Type
REMARK                         _______ _______ _______ _____ _____    ______ ____
ROOT
ATOM      1  N   UNL     1       0.048  -1.639  -0.373  0.00  0.00    +0.000 NA
ATOM      2  C   UNL     1      -1.023  -1.018  -0.104  0.00  0.00    +0.000 C 
ATOM      3  C   UNL     1      -2.295  -1.693  -0.679  0.00  0.00    +0.000 C 
ATOM      4  C   UNL     1      -3.225  -1.643   0.680  0.00  0.00    +0.000 C 
ATOM      5  C   UNL     1      -3.212  -0.394   1.318  0.00  0.00    +0.000 C 
ATOM      6  C   UNL     1      -1.996   0.048   1.852  0.00  0.00    +0.000 C 
ATOM      7  C   UNL     1      -0.806   0.264   0.734  0.00  0.00    +0.000 C 
ATOM      8  C   UNL     1      -1.623   1.296  -0.211  0.00  0.00    +0.000 C 
ATOM      9  C   UNL     1      -2.913   0.786  -0.602  0.00  0.00    +0.000 C 
ATOM     10  O   UNL     1      -3.473   1.796  -1.406  0.00  0.00    +0.000 OA
ATOM     11  C   UNL     1      -3.937   0.676   0.544  0.00  0.00    +0.000 C 
ATOM     12  C   UNL     1      -2.946  -0.400  -1.401  0.00  0.00    +0.000 C 
ENDROOT
BRANCH   1  15
ATOM     13  O   UNL     1       1.451   0.591  -1.383  0.00  0.00    +0.000 OA
ATOM     14  C   UNL     1       1.979  -0.117  -0.491  0.00  0.00    +0.000 C 
ATOM     15  N   UNL     1       1.313  -1.230   0.033  0.00  0.00    +0.000 NA
BRANCH  14  16
ATOM     16  C   UNL     1       3.324   0.245   0.000  0.00  0.00    +0.000 A 
ATOM     17  C   UNL     1       4.056  -0.396   0.957  0.00  0.00    +0.000 A 
ATOM     18  C   UNL     1       5.254   0.093   1.257  0.00  0.00    +0.000 A 
ATOM     19  C   UNL     1       5.671   1.208   0.586  0.00  0.00    +0.000 A 
ATOM     20  S   UNL     1       4.352   1.525  -0.449  0.00  0.00    +0.000 S 
ENDBRANCH  14  16
ENDBRANCH   1  15
TORSDOF 2
