REMARK  Name = 
REMARK  4 active torsions:
REMARK  status: ('A' for Active; 'I' for Inactive)
REMARK    1  A    between atoms: C_2  and  C_3
REMARK    2  A    between atoms: C_3  and  C_4
REMARK    3  A    between atoms: C_16  and  C_17
REMARK    4  A    between atoms: C_17  and  C_18
REMARK                            x       y       z     vdW  Elec       q    Type
REMARK                         _______ _______ _______ _____ _____    ______ ____
ROOT
ATOM      1  C   UNL     1       3.179  -0.634   0.250  0.00  0.00    +0.000 A 
ATOM      2  C   UNL     1       2.905  -1.318   1.417  0.00  0.00    +0.000 A 
ATOM      3  C   UNL     1       1.615  -1.531   1.847  0.00  0.00    +0.000 A 
ATOM      4  C   UNL     1       0.568  -1.036   1.069  0.00  0.00    +0.000 A 
ATOM      5  C   UNL     1       0.859  -0.354  -0.097  0.00  0.00    +0.000 A 
ATOM      6  C   UNL     1       2.158  -0.139  -0.531  0.00  0.00    +0.000 A 
ATOM      7  O   UNL     1       2.440   0.546  -1.702  0.00  0.00    +0.000 OA
ATOM      8  C   UNL     1      -0.393   0.062  -0.723  0.00  0.00    +0.000 A 
ATOM      9  C   UNL     1      -0.622   0.769  -1.899  0.00  0.00    +0.000 A 
ATOM     10  C   UNL     1      -1.925   1.032  -2.265  0.00  0.00    +0.000 A 
ATOM     11  C   UNL     1      -2.977   0.608  -1.486  0.00  0.00    +0.000 A 
ATOM     12  O   UNL     1      -4.313   0.838  -1.791  0.00  0.00    +0.000 OA
ATOM     13  C   UNL     1      -2.712  -0.088  -0.329  0.00  0.00    +0.000 A 
ATOM     14  C   UNL     1      -1.427  -0.379   0.083  0.00  0.00    +0.000 A 
ATOM     15  C   UNL     1      -0.880  -1.081   1.230  0.00  0.00    +0.000 C 
ATOM     16  O   UNL     1      -1.533  -1.596   2.133  0.00  0.00    +0.000 OA
ENDROOT
BRANCH   1  17
ATOM     17  C   UNL     1       4.608  -0.421  -0.173  0.00  0.00    +0.000 C 
BRANCH  17  19
ATOM     18  C   UNL     1       5.356   1.799  -0.836  0.00  0.00    +0.000 C 
ATOM     19  C   UNL     1       4.979   1.003   0.143  0.00  0.00    +0.000 C 
ENDBRANCH  17  19
ENDBRANCH   1  17
BRANCH  13  20
ATOM     20  C   UNL     1      -3.813  -0.561   0.558  0.00  0.00    +0.000 C 
BRANCH  20  21
ATOM     21  C   UNL     1      -4.311   0.633   1.335  0.00  0.00    +0.000 C 
ATOM     22  C   UNL     1      -3.762   1.847   1.166  0.00  0.00    +0.000 C 
ENDBRANCH  20  21
ENDBRANCH  13  20
TORSDOF 4
