REMARK  Name = 
REMARK  2 active torsions:
REMARK  status: ('A' for Active; 'I' for Inactive)
REMARK    1  A    between atoms: C_7  and  C_8
REMARK    2  A    between atoms: C_12  and  N_13
REMARK                            x       y       z     vdW  Elec       q    Type
REMARK                         _______ _______ _______ _____ _____    ______ ____
ROOT
ATOM      1  C   UNL     1      -4.149  -0.271  -0.197  0.00  0.00    +0.000 C 
ATOM      2  C   UNL     1      -4.165  -1.514   0.903  0.00  0.00    +0.000 C 
ATOM      3  N   UNL     1      -3.446  -2.511  -0.074  0.00  0.00    +0.000 NA
ATOM      4  C   UNL     1      -2.231  -1.948  -0.453  0.00  0.00    +0.000 A 
ATOM      5  C   UNL     1      -1.452  -2.135  -1.628  0.00  0.00    +0.000 A 
ATOM      6  C   UNL     1      -0.259  -1.466  -1.764  0.00  0.00    +0.000 A 
ATOM      7  C   UNL     1       0.182  -0.608  -0.750  0.00  0.00    +0.000 A 
ATOM      8  C   UNL     1      -0.616  -0.473   0.354  0.00  0.00    +0.000 A 
ATOM      9  C   UNL     1      -1.829  -1.132   0.530  0.00  0.00    +0.000 A 
ATOM     10  C   UNL     1      -2.716  -1.053   1.610  0.00  0.00    +0.000 C 
ATOM     11  C   UNL     1      -2.967   0.213   2.305  0.00  0.00    +0.000 C 
ATOM     12  C   UNL     1      -2.578  -2.167   2.632  0.00  0.00    +0.000 C 
ENDROOT
BRANCH   7  13
ATOM     13  C   UNL     1       1.448   0.092  -0.907  0.00  0.00    +0.000 A 
ATOM     14  C   UNL     1       2.438  -0.549  -1.619  0.00  0.00    +0.000 A 
ATOM     15  C   UNL     1       3.675   0.029  -1.827  0.00  0.00    +0.000 A 
ATOM     16  C   UNL     1       3.900   1.265  -1.306  0.00  0.00    +0.000 A 
ATOM     17  C   UNL     1       2.962   1.953  -0.592  0.00  0.00    +0.000 A 
ATOM     18  C   UNL     1       1.727   1.341  -0.402  0.00  0.00    +0.000 A 
BRANCH  17  19
ATOM     19  N   UNL     1       3.225   3.243  -0.062  0.00  0.00    +0.000 N 
ATOM     20  O   UNL     1       2.395   3.886   0.585  0.00  0.00    +0.000 OA
ATOM     21  O   UNL     1       4.459   3.805  -0.274  0.00  0.00    +0.000 OA
ENDBRANCH  17  19
ENDBRANCH   7  13
TORSDOF 2
