REMARK  Name = 
REMARK  3 active torsions:
REMARK  status: ('A' for Active; 'I' for Inactive)
REMARK    1  A    between atoms: C_2  and  C_3
REMARK    2  A    between atoms: C_3  and  C_4
REMARK    3  A    between atoms: C_4  and  N_5
REMARK                            x       y       z     vdW  Elec       q    Type
REMARK                         _______ _______ _______ _____ _____    ______ ____
ROOT
ATOM      1  N   UNL     1       2.601  -0.333   0.473  0.00  0.00    +0.000 NA
ATOM      2  C   UNL     1       1.488  -0.770  -0.300  0.00  0.00    +0.000 A 
ATOM      3  N   UNL     1       1.580  -1.623  -1.316  0.00  0.00    +0.000 NA
ATOM      4  C   UNL     1       0.505  -2.012  -2.023  0.00  0.00    +0.000 A 
ATOM      5  N   UNL     1      -0.716  -1.540  -1.716  0.00  0.00    +0.000 NA
ATOM      6  C   UNL     1      -0.866  -0.681  -0.706  0.00  0.00    +0.000 A 
ATOM      7  C   UNL     1       0.232  -0.281   0.019  0.00  0.00    +0.000 A 
ATOM      8  N   UNL     1      -0.210   0.575   0.963  0.00  0.00    +0.000 NA
ATOM      9  C   UNL     1      -1.543   0.720   0.849  0.00  0.00    +0.000 A 
ATOM     10  C   UNL     1      -2.494   1.460   1.540  0.00  0.00    +0.000 A 
ATOM     11  C   UNL     1      -3.822   1.409   1.188  0.00  0.00    +0.000 A 
ATOM     12  C   UNL     1      -4.273   0.629   0.142  0.00  0.00    +0.000 A 
ATOM     13 CL   UNL     1      -5.981   0.596  -0.270  0.00  0.00    +0.000 Cl
ATOM     14  C   UNL     1      -3.338  -0.110  -0.551  0.00  0.00    +0.000 A 
ATOM     15  C   UNL     1      -2.006  -0.056  -0.195  0.00  0.00    +0.000 A 
ENDROOT
BRANCH   1  16
ATOM     16  C   UNL     1       3.940  -0.805   0.192  0.00  0.00    +0.000 C 
BRANCH  16  17
ATOM     17  C   UNL     1       4.899  -0.169   1.175  0.00  0.00    +0.000 C 
BRANCH  17  19
ATOM     18  C   UNL     1       5.197   1.651  -0.450  0.00  0.00    +0.000 C 
ATOM     19  C   UNL     1       4.807   1.342   0.987  0.00  0.00    +0.000 C 
ENDBRANCH  17  19
ENDBRANCH  16  17
ENDBRANCH   1  16
TORSDOF 3
