REMARK  Name = 
REMARK  3 active torsions:
REMARK  status: ('A' for Active; 'I' for Inactive)
REMARK    1  A    between atoms: C_2  and  C_3
REMARK    2  A    between atoms: C_4  and  N_5
REMARK    3  A    between atoms: C_6  and  C_7
REMARK                            x       y       z     vdW  Elec       q    Type
REMARK                         _______ _______ _______ _____ _____    ______ ____
ROOT
ATOM      1  C   UNL     1      -1.694  -0.740  -0.315  0.00  0.00    +0.000 A 
ATOM      2  C   UNL     1      -0.878   0.233   0.168  0.00  0.00    +0.000 A 
ATOM      3  S   UNL     1      -1.946   1.512   0.526  0.00  0.00    +0.000 S 
ATOM      4  C   UNL     1      -3.405   0.782   0.055  0.00  0.00    +0.000 A 
ATOM      5  C   UNL     1      -3.023  -0.459  -0.378  0.00  0.00    +0.000 A 
ATOM      6  C   UNL     1      -4.104  -1.418  -0.889  0.00  0.00    +0.000 C 
ATOM      7  C   UNL     1      -5.359  -1.042  -0.196  0.00  0.00    +0.000 C 
ATOM      8  C   UNL     1      -5.719   0.371  -0.680  0.00  0.00    +0.000 C 
ATOM      9  C   UNL     1      -4.804   1.297   0.075  0.00  0.00    +0.000 C 
ENDROOT
BRANCH   1  11
ATOM     10  N   UNL     1      -0.589  -3.038  -1.064  0.00  0.00    +0.000 NA
ATOM     11  C   UNL     1      -1.091  -2.022  -0.734  0.00  0.00    +0.000 C 
ENDBRANCH   1  11
BRANCH   2  12
ATOM     12  N   UNL     1       0.563   0.219   0.349  0.00  0.00    +0.000 NA
ATOM     13  C   UNL     1       1.357   0.635  -0.546  0.00  0.00    +0.000 C 
BRANCH  13  14
ATOM     14  C   UNL     1       2.808   0.651  -0.434  0.00  0.00    +0.000 A 
ATOM     15  C   UNL     1       3.619   1.115  -1.443  0.00  0.00    +0.000 A 
ATOM     16  C   UNL     1       5.009   1.124  -1.320  0.00  0.00    +0.000 A 
ATOM     17  C   UNL     1       5.610   0.661  -0.169  0.00  0.00    +0.000 A 
ATOM     18  C   UNL     1       4.799   0.195   0.843  0.00  0.00    +0.000 A 
ATOM     19  O   UNL     1       5.429  -0.267   1.996  0.00  0.00    +0.000 OA
ATOM     20  C   UNL     1       3.420   0.192   0.708  0.00  0.00    +0.000 A 
ENDBRANCH  13  14
ENDBRANCH   2  12
TORSDOF 3
