REMARK  Name = 
REMARK  2 active torsions:
REMARK  status: ('A' for Active; 'I' for Inactive)
REMARK    1  A    between atoms: O_2  and  C_3
REMARK    2  A    between atoms: C_7  and  C_8
REMARK                            x       y       z     vdW  Elec       q    Type
REMARK                         _______ _______ _______ _____ _____    ______ ____
ROOT
ATOM      1  C   UNL     1      -0.402  -0.190   0.060  0.00  0.00    +0.000 A 
ATOM      2  O   UNL     1       0.650  -0.890  -0.256  0.00  0.00    +0.000 OA
ATOM      3  C   UNL     1       1.881  -0.463  -0.117  0.00  0.00    +0.000 A 
ATOM      4  C   UNL     1       2.969  -1.244  -0.468  0.00  0.00    +0.000 A 
ATOM      5  C   UNL     1       2.786  -2.604  -1.017  0.00  0.00    +0.000 C 
ATOM      6  C   UNL     1       4.225  -0.745  -0.301  0.00  0.00    +0.000 A 
ATOM      7  C   UNL     1       4.473   0.525   0.209  0.00  0.00    +0.000 A 
ATOM      8  C   UNL     1       5.877   0.970   0.350  0.00  0.00    +0.000 C 
ATOM      9  C   UNL     1       3.388   1.297   0.556  0.00  0.00    +0.000 A 
ATOM     10  C   UNL     1       2.115   0.798   0.390  0.00  0.00    +0.000 A 
ATOM     11  C   UNL     1       1.035   1.597   0.747  0.00  0.00    +0.000 A 
ATOM     12  O   UNL     1       1.197   2.750   1.212  0.00  0.00    +0.000 OA
ATOM     13  C   UNL     1      -0.215   1.088   0.576  0.00  0.00    +0.000 A 
ATOM     14  O   UNL     1      -1.328   1.866   0.926  0.00  0.00    +0.000 OA
ENDROOT
BRANCH   1  19
ATOM     15  C   UNL     1      -4.154  -0.359   0.101  0.00  0.00    +0.000 A 
ATOM     16  C   UNL     1      -4.305  -1.608  -0.404  0.00  0.00    +0.000 A 
ATOM     17  C   UNL     1      -3.240  -2.406  -0.760  0.00  0.00    +0.000 A 
ATOM     18  C   UNL     1      -1.975  -1.929  -0.603  0.00  0.00    +0.000 A 
ATOM     19  C   UNL     1      -1.764  -0.670  -0.095  0.00  0.00    +0.000 A 
ATOM     20  C   UNL     1      -2.844   0.105   0.252  0.00  0.00    +0.000 A 
BRANCH  15  22
ATOM     21  C   UNL     1      -5.104   1.715   0.975  0.00  0.00    +0.000 C 
ATOM     22  O   UNL     1      -5.263   0.398   0.442  0.00  0.00    +0.000 OA
ENDBRANCH  15  22
ENDBRANCH   1  19
TORSDOF 2
