REMARK  Name = 
REMARK  4 active torsions:
REMARK  status: ('A' for Active; 'I' for Inactive)
REMARK    1  A    between atoms: C_2  and  C_3
REMARK    2  A    between atoms: C_3  and  N_4
REMARK    3  A    between atoms: C_8  and  C_9
REMARK    4  A    between atoms: C_11  and  C_12
REMARK                            x       y       z     vdW  Elec       q    Type
REMARK                         _______ _______ _______ _____ _____    ______ ____
ROOT
ATOM      1  N   UNL     1      -0.167  -0.123   0.133  0.00  0.00    +0.000 NA
ATOM      2  C   UNL     1       0.040  -0.433  -1.204  0.00  0.00    +0.000 C 
ATOM      3  C   UNL     1       0.311  -1.891  -1.237  0.00  0.00    +0.000 C 
ATOM      4  C   UNL     1       0.517  -2.340   0.145  0.00  0.00    +0.000 C 
ATOM      5  C   UNL     1       0.847  -0.968   0.957  0.00  0.00    +0.000 C 
ENDROOT
BRANCH   5   6
ATOM      6  C   UNL     1       2.147  -0.553   0.161  0.00  0.00    +0.000 A 
ATOM      7  N   UNL     1       3.216  -0.224   0.896  0.00  0.00    +0.000 NA
ATOM      8  C   UNL     1       4.211   0.096   0.043  0.00  0.00    +0.000 A 
ATOM      9  N   UNL     1       3.662  -0.065  -1.173  0.00  0.00    +0.000 NA
ATOM     10  O   UNL     1       2.435  -0.451  -1.038  0.00  0.00    +0.000 OA
BRANCH   8  11
ATOM     11  C   UNL     1       5.556   0.518   0.281  0.00  0.00    +0.000 A 
ATOM     12  C   UNL     1       6.025   0.655   1.560  0.00  0.00    +0.000 A 
ATOM     13  C   UNL     1       7.319   1.065   1.801  0.00  0.00    +0.000 A 
ATOM     14  N   UNL     1       8.124   1.332   0.758  0.00  0.00    +0.000 NA
ATOM     15  C   UNL     1       7.723   1.216  -0.504  0.00  0.00    +0.000 A 
ATOM     16  C   UNL     1       6.408   0.800  -0.747  0.00  0.00    +0.000 A 
ENDBRANCH   8  11
ENDBRANCH   5   6
BRANCH   1  17
ATOM     17  C   UNL     1      -1.416  -0.616   0.637  0.00  0.00    +0.000 C 
BRANCH  17  19
ATOM     18  O   UNL     1      -2.464   0.976  -0.774  0.00  0.00    +0.000 OA
ATOM     19  C   UNL     1      -2.595   0.039   0.091  0.00  0.00    +0.000 C 
ATOM     20  N   UNL     1      -3.880  -0.356   0.512  0.00  0.00    +0.000 N 
ATOM     21  C   UNL     1      -4.183  -1.389   1.475  0.00  0.00    +0.000 C 
ATOM     22  C   UNL     1      -5.580  -1.045   1.995  0.00  0.00    +0.000 C 
ATOM     23  C   UNL     1      -6.114  -0.192   0.916  0.00  0.00    +0.000 A 
ATOM     24  C   UNL     1      -7.388   0.240   0.660  0.00  0.00    +0.000 A 
ATOM     25  C   UNL     1      -7.644   1.056  -0.443  0.00  0.00    +0.000 A 
ATOM     26  C   UNL     1      -6.636   1.438  -1.284  0.00  0.00    +0.000 A 
ATOM     27  C   UNL     1      -5.366   1.016  -1.042  0.00  0.00    +0.000 A 
ATOM     28  C   UNL     1      -5.109   0.197   0.065  0.00  0.00    +0.000 A 
ENDBRANCH  17  19
ENDBRANCH   1  17
TORSDOF 4
