REMARK  Name = 
REMARK  5 active torsions:
REMARK  status: ('A' for Active; 'I' for Inactive)
REMARK    1  A    between atoms: C_2  and  N_3
REMARK    2  A    between atoms: C_2  and  N_11
REMARK    3  A    between atoms: N_3  and  C_4
REMARK    4  A    between atoms: C_4  and  C_5
REMARK    5  A    between atoms: N_11  and  C_12
REMARK                            x       y       z     vdW  Elec       q    Type
REMARK                         _______ _______ _______ _____ _____    ______ ____
ROOT
ATOM      1  S   UNL     1       0.192   0.400  -0.667  0.00  0.00    +0.000 S 
ATOM      2  C   UNL     1       0.530  -1.101  -0.147  0.00  0.00    +0.000 C 
ENDROOT
BRANCH   2   3
ATOM      3  N   UNL     1      -0.426  -2.120  -0.295  0.00  0.00    +0.000 NA
BRANCH   3   4
ATOM      4  C   UNL     1      -1.702  -1.848  -0.894  0.00  0.00    +0.000 C 
BRANCH   4   5
ATOM      5  C   UNL     1      -2.532  -0.881  -0.170  0.00  0.00    +0.000 A 
ATOM      6  C   UNL     1      -3.209  -1.288   0.965  0.00  0.00    +0.000 A 
ATOM      7  C   UNL     1      -3.999  -0.405   1.658  0.00  0.00    +0.000 A 
ATOM      8  C   UNL     1      -4.128   0.916   1.224  0.00  0.00    +0.000 A 
ATOM      9  C   UNL     1      -3.426   1.248   0.089  0.00  0.00    +0.000 A 
ATOM     10  N   UNL     1      -2.662   0.383  -0.576  0.00  0.00    +0.000 NA
ENDBRANCH   4   5
ENDBRANCH   3   4
ENDBRANCH   2   3
BRANCH   2  11
ATOM     11  N   UNL     1       1.786  -1.356   0.443  0.00  0.00    +0.000 NA
BRANCH  11  12
ATOM     12  C   UNL     1       2.800  -0.343   0.617  0.00  0.00    +0.000 C 
ATOM     13  C   UNL     1       2.323   0.799   1.480  0.00  0.00    +0.000 C 
ATOM     14  C   UNL     1       2.651   2.121   0.819  0.00  0.00    +0.000 C 
ATOM     15  C   UNL     1       4.072   2.222   0.371  0.00  0.00    +0.000 C 
ATOM     16  C   UNL     1       4.480   1.055  -0.485  0.00  0.00    +0.000 C 
ATOM     17  C   UNL     1       3.251   0.200  -0.730  0.00  0.00    +0.000 C 
ENDBRANCH  11  12
ENDBRANCH   2  11
TORSDOF 5
