REMARK  Name = 
REMARK  2 active torsions:
REMARK  status: ('A' for Active; 'I' for Inactive)
REMARK    1  A    between atoms: N_4  and  N_5
REMARK    2  A    between atoms: C_8  and  C_9
REMARK                            x       y       z     vdW  Elec       q    Type
REMARK                         _______ _______ _______ _____ _____    ______ ____
ROOT
ATOM      1  N   UNL     1       3.477  -1.892  -0.427  0.00  0.00    +0.000 NA
ATOM      2  C   UNL     1       2.034  -1.759  -0.436  0.00  0.00    +0.000 A 
ATOM      3  N   UNL     1       1.324  -0.740   0.005  0.00  0.00    +0.000 NA
ATOM      4  C   UNL     1       0.015  -0.786  -0.083  0.00  0.00    +0.000 A 
ATOM      5  C   UNL     1      -0.529  -1.916  -0.638  0.00  0.00    +0.000 A 
ATOM      6  S   UNL     1       0.851  -2.843  -1.003  0.00  0.00    +0.000 S 
ENDROOT
BRANCH   4   7
ATOM      7  C   UNL     1      -0.850   0.336   0.399  0.00  0.00    +0.000 A 
ATOM      8  C   UNL     1      -0.452   1.522   0.974  0.00  0.00    +0.000 A 
ATOM      9  N   UNL     1      -1.504   2.262   1.267  0.00  0.00    +0.000 NA
ATOM     10  C   UNL     1      -2.597   1.596   0.901  0.00  0.00    +0.000 A 
ATOM     11  C   UNL     1      -3.950   1.923   0.986  0.00  0.00    +0.000 A 
ATOM     12  C   UNL     1      -4.903   1.044   0.528  0.00  0.00    +0.000 A 
ATOM     13  C   UNL     1      -4.513  -0.158  -0.015  0.00  0.00    +0.000 A 
ATOM     14  C   UNL     1      -3.183  -0.505  -0.111  0.00  0.00    +0.000 A 
ATOM     15  C   UNL     1      -2.221   0.394   0.358  0.00  0.00    +0.000 A 
ENDBRANCH   4   7
BRANCH   1  19
ATOM     16  C   UNL     1       5.139   1.378   0.245  0.00  0.00    +0.000 C 
ATOM     17  C   UNL     1       4.266   0.329  -0.313  0.00  0.00    +0.000 C 
ATOM     18  C   UNL     1       3.314   0.712  -1.387  0.00  0.00    +0.000 C 
ATOM     19  N   UNL     1       4.282  -0.897   0.079  0.00  0.00    +0.000 NA
ENDBRANCH   1  19
TORSDOF 2
