REMARK  Name = 
REMARK  6 active torsions:
REMARK  status: ('A' for Active; 'I' for Inactive)
REMARK    1  A    between atoms: C_2  and  C_4
REMARK    2  A    between atoms: C_4  and  C_5
REMARK    3  A    between atoms: C_4  and  C_14
REMARK    4  A    between atoms: C_5  and  O_7
REMARK    5  A    between atoms: O_7  and  C_8
REMARK    6  A    between atoms: C_8  and  C_9
REMARK                            x       y       z     vdW  Elec       q    Type
REMARK                         _______ _______ _______ _____ _____    ______ ____
ROOT
ATOM      1  C   UNL     1      -1.187  -0.821  -1.045  0.00  0.00    +0.000 C 
ENDROOT
BRANCH   1   2
ATOM      2  C   UNL     1      -2.058   0.230  -0.223  0.00  0.00    +0.000 A 
ATOM      3  C   UNL     1      -1.510   1.345   0.272  0.00  0.00    +0.000 A 
ATOM      4  C   UNL     1      -2.302   2.229   0.969  0.00  0.00    +0.000 A 
ATOM      5  C   UNL     1      -3.628   1.927   1.126  0.00  0.00    +0.000 A 
ATOM      6  C   UNL     1      -4.139   0.775   0.600  0.00  0.00    +0.000 A 
ATOM      7  N   UNL     1      -3.341  -0.081  -0.082  0.00  0.00    +0.000 NA
ENDBRANCH   1   2
BRANCH   1   9
ATOM      8  N   UNL     1      -2.786  -2.676  -0.663  0.00  0.00    +0.000 NA
ATOM      9  C   UNL     1      -1.601  -2.083  -0.173  0.00  0.00    +0.000 C 
ATOM     10  S   UNL     1      -0.774  -2.563   1.083  0.00  0.00    +0.000 S 
ENDBRANCH   1   9
BRANCH   1  11
ATOM     11  C   UNL     1       0.232  -0.516  -0.370  0.00  0.00    +0.000 C 
ATOM     12  O   UNL     1       0.881  -1.388   0.163  0.00  0.00    +0.000 OA
BRANCH  11  13
ATOM     13  O   UNL     1       0.566   0.810  -0.492  0.00  0.00    +0.000 OA
BRANCH  13  14
ATOM     14  C   UNL     1       1.751   1.330  -0.000  0.00  0.00    +0.000 C 
BRANCH  14  15
ATOM     15  C   UNL     1       3.014   0.859  -0.578  0.00  0.00    +0.000 C 
ATOM     16  C   UNL     1       4.198   1.550   0.089  0.00  0.00    +0.000 C 
ATOM     17  C   UNL     1       4.885   0.498   0.903  0.00  0.00    +0.000 C 
ATOM     18  C   UNL     1       4.503  -0.839   0.308  0.00  0.00    +0.000 C 
ATOM     19  C   UNL     1       3.296  -0.589  -0.555  0.00  0.00    +0.000 C 
ENDBRANCH  14  15
ENDBRANCH  13  14
ENDBRANCH  11  13
ENDBRANCH   1  11
TORSDOF 6
