REMARK  Name = 
REMARK  3 active torsions:
REMARK  status: ('A' for Active; 'I' for Inactive)
REMARK    1  A    between atoms: C_8  and  N_9
REMARK    2  A    between atoms: C_10  and  C_12
REMARK    3  A    between atoms: C_15  and  N_16
REMARK                            x       y       z     vdW  Elec       q    Type
REMARK                         _______ _______ _______ _____ _____    ______ ____
ROOT
ATOM      1  N   UNL     1       1.181   0.120   0.142  0.00  0.00    +0.000 NA
ATOM      2  C   UNL     1       0.357  -0.637  -0.705  0.00  0.00    +0.000 C 
ATOM      3  O   UNL     1       0.862  -1.383  -1.545  0.00  0.00    +0.000 OA
ENDROOT
BRANCH   1  11
ATOM      4  C   UNL     1       2.481   1.752   1.964  0.00  0.00    +0.000 C 
ATOM      5  C   UNL     1       3.270   0.912   1.021  0.00  0.00    +0.000 A 
ATOM      6  C   UNL     1       4.657   0.959   1.070  0.00  0.00    +0.000 A 
ATOM      7  C   UNL     1       5.409   0.187   0.202  0.00  0.00    +0.000 A 
ATOM      8  F   UNL     1       6.771   0.222   0.237  0.00  0.00    +0.000 F 
ATOM      9  C   UNL     1       4.721  -0.609  -0.688  0.00  0.00    +0.000 A 
ATOM     10  C   UNL     1       3.343  -0.657  -0.738  0.00  0.00    +0.000 A 
ATOM     11  C   UNL     1       2.589   0.111   0.126  0.00  0.00    +0.000 A 
ENDBRANCH   1  11
BRANCH   2  12
ATOM     12  C   UNL     1      -1.098  -0.505  -0.551  0.00  0.00    +0.000 A 
ATOM     13  C   UNL     1      -1.986  -1.199  -1.359  0.00  0.00    +0.000 A 
ATOM     14  C   UNL     1      -3.345  -1.049  -1.183  0.00  0.00    +0.000 A 
ATOM     15  C   UNL     1      -3.881  -0.210  -0.207  0.00  0.00    +0.000 A 
ATOM     16  C   UNL     1      -2.998   0.474   0.588  0.00  0.00    +0.000 A 
ATOM     17  C   UNL     1      -3.533   1.380   1.643  0.00  0.00    +0.000 C 
ATOM     18  C   UNL     1      -1.656   0.312   0.400  0.00  0.00    +0.000 A 
BRANCH  15  19
ATOM     19  N   UNL     1      -5.287  -0.092  -0.068  0.00  0.00    +0.000 N 
ATOM     20  O   UNL     1      -5.743   0.124   1.065  0.00  0.00    +0.000 OA
ATOM     21  O   UNL     1      -6.112  -0.212  -1.151  0.00  0.00    +0.000 OA
ENDBRANCH  15  19
ENDBRANCH   2  12
TORSDOF 3
