REMARK  Name = 
REMARK  6 active torsions:
REMARK  status: ('A' for Active; 'I' for Inactive)
REMARK    1  A    between atoms: C_2  and  O_3
REMARK    2  A    between atoms: O_3  and  C_4
REMARK    3  A    between atoms: C_4  and  C_6
REMARK    4  A    between atoms: C_6  and  C_7
REMARK    5  A    between atoms: C_7  and  C_8
REMARK    6  A    between atoms: C_7  and  N_15
REMARK                            x       y       z     vdW  Elec       q    Type
REMARK                         _______ _______ _______ _____ _____    ______ ____
ROOT
ATOM      1  C   UNL     1       0.374  -0.876   0.941  0.00  0.00    +0.000 C 
ENDROOT
BRANCH   1   2
ATOM      2  C   UNL     1      -0.428   0.430   0.517  0.00  0.00    +0.000 A 
ATOM      3  C   UNL     1      -0.319   1.054  -0.629  0.00  0.00    +0.000 A 
ATOM      4  C   UNL     1      -1.062   2.179  -0.893  0.00  0.00    +0.000 A 
ATOM      5  C   UNL     1      -1.917   2.645   0.046  0.00  0.00    +0.000 A 
ATOM      6  N   UNL     1      -2.715   3.815  -0.181  0.00  0.00    +0.000 NA
ATOM      7  C   UNL     1      -2.054   2.008   1.267  0.00  0.00    +0.000 A 
ATOM      8  C   UNL     1      -1.275   0.857   1.501  0.00  0.00    +0.000 A 
ENDBRANCH   1   2
BRANCH   1   9
ATOM      9  N   UNL     1      -0.612  -1.909   0.259  0.00  0.00    +0.000 N 
ATOM     10  C   UNL     1      -0.797  -2.101  -1.009  0.00  0.00    +0.000 A 
ATOM     11  C   UNL     1      -0.105  -1.389  -2.123  0.00  0.00    +0.000 C 
ATOM     12  C   UNL     1      -1.761  -3.099  -1.116  0.00  0.00    +0.000 A 
ATOM     13  C   UNL     1      -2.111  -3.462   0.168  0.00  0.00    +0.000 A 
ATOM     14  C   UNL     1      -1.373  -2.697   1.044  0.00  0.00    +0.000 A 
ATOM     15  C   UNL     1      -1.388  -2.713   2.534  0.00  0.00    +0.000 C 
ENDBRANCH   1   9
BRANCH   1  16
ATOM     16  C   UNL     1       1.492  -0.900  -0.277  0.00  0.00    +0.000 C 
BRANCH  16  17
ATOM     17  C   UNL     1       2.225   0.385  -0.114  0.00  0.00    +0.000 C 
ATOM     18  O   UNL     1       1.988   1.206   0.812  0.00  0.00    +0.000 OA
BRANCH  17  19
ATOM     19  O   UNL     1       3.219   0.681  -1.037  0.00  0.00    +0.000 OA
BRANCH  19  21
ATOM     20  C   UNL     1       4.678   1.991   0.403  0.00  0.00    +0.000 C 
ATOM     21  C   UNL     1       3.942   1.893  -0.920  0.00  0.00    +0.000 C 
ENDBRANCH  19  21
ENDBRANCH  17  19
ENDBRANCH  16  17
ENDBRANCH   1  16
TORSDOF 6
