REMARK  Name = 
REMARK  5 active torsions:
REMARK  status: ('A' for Active; 'I' for Inactive)
REMARK    1  A    between atoms: C_2  and  C_4
REMARK    2  A    between atoms: C_4  and  C_18
REMARK    3  A    between atoms: N_5  and  N_6
REMARK    4  A    between atoms: C_7  and  C_9
REMARK    5  A    between atoms: C_14  and  N_15
REMARK                            x       y       z     vdW  Elec       q    Type
REMARK                         _______ _______ _______ _____ _____    ______ ____
ROOT
ATOM      1  N   UNL     1       0.413  -0.544  -0.054  0.00  0.00    +0.000 NA
ATOM      2  C   UNL     1      -0.488  -0.675  -1.104  0.00  0.00    +0.000 C 
ATOM      3  O   UNL     1       0.015  -1.188  -2.181  0.00  0.00    +0.000 OA
ENDROOT
BRANCH   2   4
ATOM      4  C   UNL     1      -1.895  -0.317  -1.161  0.00  0.00    +0.000 A 
ATOM      5  C   UNL     1      -2.486  -0.174  -2.445  0.00  0.00    +0.000 A 
ATOM      6  C   UNL     1      -3.788   0.228  -2.540  0.00  0.00    +0.000 A 
ATOM      7  C   UNL     1      -4.569   0.506  -1.436  0.00  0.00    +0.000 A 
ATOM      8  C   UNL     1      -4.009   0.371  -0.201  0.00  0.00    +0.000 A 
ATOM      9  C   UNL     1      -2.657  -0.046  -0.064  0.00  0.00    +0.000 A 
BRANCH   9  10
ATOM     10  N   UNL     1      -2.149  -0.182   1.249  0.00  0.00    +0.000 N 
ATOM     11  O   UNL     1      -2.648   0.598   2.122  0.00  0.00    +0.000 OA
ATOM     12  O   UNL     1      -1.210  -1.024   1.677  0.00  0.00    +0.000 OA
ENDBRANCH   9  10
ENDBRANCH   2   4
BRANCH   1  14
ATOM     13  C   UNL     1       2.621  -0.267   0.560  0.00  0.00    +0.000 C 
ATOM     14  N   UNL     1       1.754  -0.919  -0.107  0.00  0.00    +0.000 NA
BRANCH  13  16
ATOM     15  C   UNL     1       4.917   0.552   0.066  0.00  0.00    +0.000 C 
ATOM     16  C   UNL     1       4.071  -0.589   0.568  0.00  0.00    +0.000 C 
ATOM     17  C   UNL     1       4.362  -1.864  -0.188  0.00  0.00    +0.000 C 
ENDBRANCH  13  16
BRANCH  13  18
ATOM     18  C   UNL     1       2.203   0.890   1.391  0.00  0.00    +0.000 C 
ATOM     19  C   UNL     1       2.599   0.559   2.829  0.00  0.00    +0.000 C 
ATOM     20  C   UNL     1       2.942   2.161   1.020  0.00  0.00    +0.000 C 
ENDBRANCH  13  18
ENDBRANCH   1  14
TORSDOF 5
