REMARK  Name = 
REMARK  6 active torsions:
REMARK  status: ('A' for Active; 'I' for Inactive)
REMARK    1  A    between atoms: O_2  and  C_3
REMARK    2  A    between atoms: C_6  and  C_7
REMARK    3  A    between atoms: C_7  and  N_9
REMARK    4  A    between atoms: C_10  and  C_12
REMARK    5  A    between atoms: C_12  and  N_13
REMARK    6  A    between atoms: C_17  and  C_18
REMARK                            x       y       z     vdW  Elec       q    Type
REMARK                         _______ _______ _______ _____ _____    ______ ____
ROOT
ATOM      1  N   UNL     1       0.531   1.050   1.267  0.00  0.00    +0.000 NA
ATOM      2  C   UNL     1       0.265   0.833  -0.098  0.00  0.00    +0.000 C 
ATOM      3  O   UNL     1       1.069   1.348  -0.917  0.00  0.00    +0.000 OA
ENDROOT
BRANCH   1   4
ATOM      4  C   UNL     1       1.826   1.925   1.537  0.00  0.00    +0.000 C 
ATOM      5  C   UNL     1       2.093   1.207   3.025  0.00  0.00    +0.000 C 
BRANCH   4   9
ATOM      6  C   UNL     1       4.659  -0.477  -0.671  0.00  0.00    +0.000 A 
ATOM      7  C   UNL     1       4.652   0.886  -0.805  0.00  0.00    +0.000 A 
ATOM      8  C   UNL     1       3.702   1.622  -0.057  0.00  0.00    +0.000 A 
ATOM      9  C   UNL     1       2.829   0.989   0.765  0.00  0.00    +0.000 A 
ATOM     10  C   UNL     1       2.829  -0.344   0.901  0.00  0.00    +0.000 A 
ATOM     11  C   UNL     1       3.773  -1.078   0.159  0.00  0.00    +0.000 A 
BRANCH   6  13
ATOM     12  C   UNL     1       6.524  -0.531  -2.283  0.00  0.00    +0.000 C 
ATOM     13  O   UNL     1       5.609  -1.178  -1.422  0.00  0.00    +0.000 OA
ENDBRANCH   6  13
ENDBRANCH   4   9
ENDBRANCH   1   4
BRANCH   2  14
ATOM     14  C   UNL     1      -0.875   0.056  -0.628  0.00  0.00    +0.000 C 
BRANCH  14  15
ATOM     15  N   UNL     1      -1.730  -0.488   0.409  0.00  0.00    +0.000 NA
ATOM     16  C   UNL     1      -0.923  -1.505   1.082  0.00  0.00    +0.000 C 
ATOM     17  C   UNL     1      -1.863  -2.617   1.440  0.00  0.00    +0.000 C 
ATOM     18  C   UNL     1      -3.200  -2.267   0.839  0.00  0.00    +0.000 C 
ATOM     19  C   UNL     1      -2.589  -1.492  -0.525  0.00  0.00    +0.000 C 
BRANCH  19  20
ATOM     20  C   UNL     1      -3.836  -0.479  -0.668  0.00  0.00    +0.000 A 
ATOM     21  C   UNL     1      -4.335  -0.338  -1.930  0.00  0.00    +0.000 A 
ATOM     22  C   UNL     1      -5.413   0.532  -2.088  0.00  0.00    +0.000 A 
ATOM     23  C   UNL     1      -5.897   1.181  -0.987  0.00  0.00    +0.000 A 
ATOM     24  N   UNL     1      -5.365   0.997   0.209  0.00  0.00    +0.000 NA
ATOM     25  C   UNL     1      -4.335   0.168   0.368  0.00  0.00    +0.000 A 
ENDBRANCH  19  20
ENDBRANCH  14  15
ENDBRANCH   2  14
TORSDOF 6
