REMARK  Name = 
REMARK  2 active torsions:
REMARK  status: ('A' for Active; 'I' for Inactive)
REMARK    1  A    between atoms: C_4  and  C_5
REMARK    2  A    between atoms: C_5  and  C_6
REMARK                            x       y       z     vdW  Elec       q    Type
REMARK                         _______ _______ _______ _____ _____    ______ ____
ROOT
ATOM      1  C   UNL     1       0.221  -1.235   0.206  0.00  0.00    +0.000 C 
ATOM      2  C   UNL     1       0.512  -2.311   1.250  0.00  0.00    +0.000 C 
ATOM      3  C   UNL     1      -0.559  -3.326   0.869  0.00  0.00    +0.000 C 
ATOM      4  C   UNL     1      -0.514  -3.315  -0.656  0.00  0.00    +0.000 C 
ATOM      5  C   UNL     1       0.195  -2.066  -1.053  0.00  0.00    +0.000 C 
ENDROOT
BRANCH   1   9
ATOM      6  C   UNL     1       4.450   1.012   1.790  0.00  0.00    +0.000 C 
ATOM      7  C   UNL     1       3.293   0.856   0.879  0.00  0.00    +0.000 A 
ATOM      8  C   UNL     1       2.339  -0.110   1.001  0.00  0.00    +0.000 A 
ATOM      9  C   UNL     1       1.288  -0.227   0.147  0.00  0.00    +0.000 A 
ATOM     10  C   UNL     1       1.201   0.696  -0.898  0.00  0.00    +0.000 A 
ATOM     11  C   UNL     1       2.124   1.697  -1.085  0.00  0.00    +0.000 A 
ATOM     12  C   UNL     1       3.180   1.759  -0.170  0.00  0.00    +0.000 A 
ATOM     13  O   UNL     1       4.125   2.764  -0.342  0.00  0.00    +0.000 OA
ENDBRANCH   1   9
BRANCH   1  14
ATOM     14  C   UNL     1      -1.123  -0.624   0.413  0.00  0.00    +0.000 A 
ATOM     15  C   UNL     1      -2.246  -1.391   0.642  0.00  0.00    +0.000 A 
ATOM     16  C   UNL     1      -3.479  -0.792   0.834  0.00  0.00    +0.000 A 
ATOM     17  C   UNL     1      -3.622   0.577   0.801  0.00  0.00    +0.000 A 
ATOM     18  O   UNL     1      -4.878   1.096   1.000  0.00  0.00    +0.000 OA
ATOM     19  C   UNL     1      -2.489   1.369   0.569  0.00  0.00    +0.000 A 
ATOM     20  C   UNL     1      -2.717   2.827   0.547  0.00  0.00    +0.000 C 
ATOM     21  C   UNL     1      -1.301   0.743   0.387  0.00  0.00    +0.000 A 
ENDBRANCH   1  14
TORSDOF 2
