REMARK  Name = 
REMARK  0 active torsions:
REMARK  status: ('A' for Active; 'I' for Inactive)
REMARK                            x       y       z     vdW  Elec       q    Type
REMARK                         _______ _______ _______ _____ _____    ______ ____
ROOT
ATOM      1  C   UNL     1      -2.556   0.525  -1.445  0.00  0.00    +0.000 C 
ATOM      2  C   UNL     1      -2.908   0.409  -0.061  0.00  0.00    +0.000 C 
ATOM      3  C   UNL     1      -2.579   1.394   0.929  0.00  0.00    +0.000 C 
ATOM      4  C   UNL     1      -1.088   1.626   0.733  0.00  0.00    +0.000 C 
ATOM      5  C   UNL     1      -0.322   0.305   1.258  0.00  0.00    +0.000 C 
ATOM      6  C   UNL     1       1.083   0.632   0.599  0.00  0.00    +0.000 A 
ATOM      7  C   UNL     1       1.515   1.855   0.351  0.00  0.00    +0.000 A 
ATOM      8  C   UNL     1       2.754   2.032  -0.223  0.00  0.00    +0.000 A 
ATOM      9  C   UNL     1       3.523   0.925  -0.527  0.00  0.00    +0.000 A 
ATOM     10  N   UNL     1       4.767   0.823  -1.091  0.00  0.00    +0.000 NA
ATOM     11  C   UNL     1       5.112  -0.471  -1.195  0.00  0.00    +0.000 A 
ATOM     12  C   UNL     1       4.062  -1.204  -0.684  0.00  0.00    +0.000 A 
ATOM     13  C   UNL     1       3.055  -0.346  -0.261  0.00  0.00    +0.000 A 
ATOM     14  C   UNL     1       1.822  -0.496   0.309  0.00  0.00    +0.000 A 
ATOM     15  C   UNL     1       1.339  -1.852   0.589  0.00  0.00    +0.000 C 
ATOM     16  C   UNL     1      -0.144  -1.996   0.596  0.00  0.00    +0.000 C 
ATOM     17  C   UNL     1      -0.770  -0.654  -0.048  0.00  0.00    +0.000 C 
ATOM     18  C   UNL     1      -2.298  -0.970   0.558  0.00  0.00    +0.000 C 
ATOM     19  C   UNL     1      -2.783  -1.768  -0.748  0.00  0.00    +0.000 C 
ATOM     20  C   UNL     1      -4.174  -1.378  -0.940  0.00  0.00    +0.000 C 
ATOM     21  C   UNL     1      -4.419  -0.153   0.118  0.00  0.00    +0.000 C 
ATOM     22  O   UNL     1      -4.992   0.762  -0.947  0.00  0.00    +0.000 OA
ENDROOT
TORSDOF 0
