REMARK  Name = 
REMARK  3 active torsions:
REMARK  status: ('A' for Active; 'I' for Inactive)
REMARK    1  A    between atoms: C_2  and  C_3
REMARK    2  A    between atoms: C_3  and  N_5
REMARK    3  A    between atoms: C_16  and  O_17
REMARK                            x       y       z     vdW  Elec       q    Type
REMARK                         _______ _______ _______ _____ _____    ______ ____
ROOT
ATOM      1  N   UNL     1       2.869  -0.085   0.612  0.00  0.00    +0.000 NA
ATOM      2  C   UNL     1       1.869  -0.532  -0.225  0.00  0.00    +0.000 A 
ATOM      3  N   UNL     1       2.079  -1.394  -1.228  0.00  0.00    +0.000 NA
ATOM      4  C   UNL     1       1.092  -1.824  -2.040  0.00  0.00    +0.000 A 
ATOM      5  N   UNL     1      -0.157  -1.377  -1.845  0.00  0.00    +0.000 NA
ATOM      6  C   UNL     1      -0.462  -0.514  -0.867  0.00  0.00    +0.000 A 
ATOM      7  C   UNL     1       0.581  -0.086  -0.042  0.00  0.00    +0.000 A 
ATOM      8  N   UNL     1       0.010   0.759   0.838  0.00  0.00    +0.000 NA
ATOM      9  C   UNL     1      -1.301   0.882   0.616  0.00  0.00    +0.000 A 
ATOM     10  C   UNL     1      -2.257   1.620   1.253  0.00  0.00    +0.000 A 
ATOM     11  C   UNL     1      -3.566   1.548   0.791  0.00  0.00    +0.000 A 
ATOM     12  C   UNL     1      -3.913   0.758  -0.281  0.00  0.00    +0.000 A 
ATOM     13  C   UNL     1      -2.924   0.037  -0.889  0.00  0.00    +0.000 A 
ATOM     14  C   UNL     1      -1.624   0.090  -0.453  0.00  0.00    +0.000 A 
ENDROOT
BRANCH   1  15
ATOM     15  C   UNL     1       4.335  -0.561   0.441  0.00  0.00    +0.000 C 
ATOM     16  C   UNL     1       4.113  -1.888   1.377  0.00  0.00    +0.000 C 
BRANCH  15  18
ATOM     17  C   UNL     1       5.181   1.647   0.991  0.00  0.00    +0.000 C 
ATOM     18  C   UNL     1       4.913   0.332   1.707  0.00  0.00    +0.000 C 
ENDBRANCH  15  18
ENDBRANCH   1  15
BRANCH  12  19
ATOM     19  O   UNL     1      -5.220   0.687  -0.742  0.00  0.00    +0.000 OA
ATOM     20  C   UNL     1      -5.619  -0.101  -1.826  0.00  0.00    +0.000 C 
ENDBRANCH  12  19
TORSDOF 3
