REMARK  Name = 
REMARK  3 active torsions:
REMARK  status: ('A' for Active; 'I' for Inactive)
REMARK    1  A    between atoms: C_2  and  C_4
REMARK    2  A    between atoms: C_4  and  C_5
REMARK    3  A    between atoms: C_5  and  C_7
REMARK                            x       y       z     vdW  Elec       q    Type
REMARK                         _______ _______ _______ _____ _____    ______ ____
ROOT
ATOM      1  C   UNL     1       0.425   1.011  -0.504  0.00  0.00    +0.000 A 
ATOM      2  C   UNL     1       0.309   2.351  -0.551  0.00  0.00    +0.000 A 
ATOM      3  C   UNL     1      -0.905   2.962  -0.387  0.00  0.00    +0.000 A 
ATOM      4  N   UNL     1      -0.913   4.390  -0.455  0.00  0.00    +0.000 NA
ATOM      5  N   UNL     1      -1.995   2.238  -0.177  0.00  0.00    +0.000 NA
ATOM      6  C   UNL     1      -1.891   0.907  -0.129  0.00  0.00    +0.000 A 
ATOM      7  N   UNL     1      -2.857  -0.000   0.069  0.00  0.00    +0.000 NA
ATOM      8  C   UNL     1      -2.319  -1.213   0.041  0.00  0.00    +0.000 A 
ATOM      9  C   UNL     1      -2.897  -2.461   0.192  0.00  0.00    +0.000 A 
ATOM     10  C   UNL     1      -2.060  -3.553   0.110  0.00  0.00    +0.000 A 
ATOM     11  C   UNL     1      -0.703  -3.365  -0.116  0.00  0.00    +0.000 A 
ATOM     12  C   UNL     1      -0.141  -2.125  -0.264  0.00  0.00    +0.000 A 
ATOM     13  C   UNL     1      -0.970  -1.026  -0.183  0.00  0.00    +0.000 A 
ATOM     14  N   UNL     1      -0.677   0.283  -0.292  0.00  0.00    +0.000 N 
ENDROOT
BRANCH   1  15
ATOM     15  C   UNL     1       1.778   0.248  -0.686  0.00  0.00    +0.000 C 
ATOM     16  C   UNL     1       2.778   1.488  -0.302  0.00  0.00    +0.000 C 
BRANCH  15  17
ATOM     17  C   UNL     1       1.819  -0.347   0.867  0.00  0.00    +0.000 C 
BRANCH  17  19
ATOM     18  C   UNL     1       3.861  -1.660   0.215  0.00  0.00    +0.000 C 
ATOM     19  C   UNL     1       3.248  -0.655   1.134  0.00  0.00    +0.000 C 
ATOM     20  C   UNL     1       4.112   0.526   1.419  0.00  0.00    +0.000 C 
ENDBRANCH  17  19
ENDBRANCH  15  17
ENDBRANCH   1  15
TORSDOF 3
