REMARK  Name = 
REMARK  4 active torsions:
REMARK  status: ('A' for Active; 'I' for Inactive)
REMARK    1  A    between atoms: O_2  and  C_3
REMARK    2  A    between atoms: C_3  and  C_5
REMARK    3  A    between atoms: C_11  and  C_12
REMARK    4  A    between atoms: C_15  and  C_16
REMARK                            x       y       z     vdW  Elec       q    Type
REMARK                         _______ _______ _______ _____ _____    ______ ____
ROOT
ATOM      1  C   UNL     1      -0.258  -1.177   0.622  0.00  0.00    +0.000 C 
ATOM      2  C   UNL     1       0.632  -2.058   0.276  0.00  0.00    +0.000 C 
ATOM      3  N   UNL     1       0.300  -3.436   0.092  0.00  0.00    +0.000 NA
ATOM      4  O   UNL     1       1.954  -1.708   0.063  0.00  0.00    +0.000 OA
ATOM      5  C   UNL     1       2.284  -0.385   0.232  0.00  0.00    +0.000 C 
ATOM      6  C   UNL     1       3.731   0.037   0.004  0.00  0.00    +0.000 C 
ATOM      7  C   UNL     1       1.469   0.542   0.571  0.00  0.00    +0.000 C 
ATOM      8  C   UNL     1      -0.015   0.285   0.868  0.00  0.00    +0.000 C 
ENDROOT
BRANCH   8   9
ATOM      9  C   UNL     1      -0.740   0.909  -0.376  0.00  0.00    +0.000 A 
ATOM     10  S   UNL     1      -2.154   1.901  -0.264  0.00  0.00    +0.000 S 
ATOM     11  C   UNL     1      -2.351   2.187  -1.953  0.00  0.00    +0.000 A 
ATOM     12  C   UNL     1      -1.330   1.509  -2.479  0.00  0.00    +0.000 A 
ATOM     13  C   UNL     1      -0.491   0.845  -1.671  0.00  0.00    +0.000 A 
ATOM     14  C   UNL     1       0.660   0.083  -2.243  0.00  0.00    +0.000 C 
ENDBRANCH   8   9
BRANCH   7  15
ATOM     15  C   UNL     1       1.942   1.944   0.721  0.00  0.00    +0.000 C 
ATOM     16  C   UNL     1       3.359   2.221   0.469  0.00  0.00    +0.000 C 
ATOM     17  O   UNL     1       1.200   2.891   1.048  0.00  0.00    +0.000 OA
ENDBRANCH   7  15
BRANCH   1  18
ATOM     18  C   UNL     1      -1.631  -1.654   0.816  0.00  0.00    +0.000 C 
ATOM     19  O   UNL     1      -1.884  -2.850   0.647  0.00  0.00    +0.000 OA
BRANCH  18  21
ATOM     20  C   UNL     1      -4.002  -1.270   1.375  0.00  0.00    +0.000 C 
ATOM     21  O   UNL     1      -2.673  -0.815   1.185  0.00  0.00    +0.000 OA
ENDBRANCH  18  21
ENDBRANCH   1  18
TORSDOF 4
