REMARK  Name = 
REMARK  2 active torsions:
REMARK  status: ('A' for Active; 'I' for Inactive)
REMARK    1  A    between atoms: C_2  and  C_4
REMARK    2  A    between atoms: C_12  and  C_13
REMARK                            x       y       z     vdW  Elec       q    Type
REMARK                         _______ _______ _______ _____ _____    ______ ____
ROOT
ATOM      1  C   UNL     1      -1.093   1.303   0.034  0.00  0.00    +0.000 A 
ATOM      2  N   UNL     1      -2.376   1.035   0.329  0.00  0.00    +0.000 NA
ATOM      3  N   UNL     1      -2.540  -0.256   0.488  0.00  0.00    +0.000 N 
ATOM      4  C   UNL     1      -3.602  -1.051   0.787  0.00  0.00    +0.000 A 
ATOM      5  C   UNL     1      -3.527  -2.420   0.902  0.00  0.00    +0.000 A 
ATOM      6  C   UNL     1      -2.322  -3.014   0.706  0.00  0.00    +0.000 A 
ATOM      7  C   UNL     1      -1.252  -2.212   0.405  0.00  0.00    +0.000 A 
ATOM      8  C   UNL     1      -1.343  -0.817   0.290  0.00  0.00    +0.000 A 
ATOM      9  C   UNL     1      -0.373   0.132  -0.004  0.00  0.00    +0.000 A 
ENDROOT
BRANCH   9  10
ATOM     10  C   UNL     1       1.035  -0.110  -0.256  0.00  0.00    +0.000 C 
ATOM     11  N   UNL     1       1.425  -1.297  -0.242  0.00  0.00    +0.000 NA
ATOM     12  N   UNL     1       2.706  -1.831  -0.448  0.00  0.00    +0.000 NA
ATOM     13  C   UNL     1       3.695  -0.840  -0.710  0.00  0.00    +0.000 C 
ATOM     14  O   UNL     1       4.688  -0.917  -1.431  0.00  0.00    +0.000 OA
ATOM     15  C   UNL     1       3.412   0.397   0.012  0.00  0.00    +0.000 C 
ATOM     16  C   UNL     1       2.029   1.029  -0.538  0.00  0.00    +0.000 C 
ATOM     17  C   UNL     1       1.826   1.809   0.926  0.00  0.00    +0.000 C 
ENDBRANCH   9  10
BRANCH   1  19
ATOM     18  C   UNL     1      -1.637   3.703  -0.009  0.00  0.00    +0.000 C 
ATOM     19  C   UNL     1      -0.596   2.653  -0.221  0.00  0.00    +0.000 C 
ATOM     20  C   UNL     1      -0.155   2.703  -1.670  0.00  0.00    +0.000 C 
ENDBRANCH   1  19
TORSDOF 2
