REMARK  Name = 
REMARK  3 active torsions:
REMARK  status: ('A' for Active; 'I' for Inactive)
REMARK    1  A    between atoms: C_10  and  N_11
REMARK    2  A    between atoms: C_12  and  C_14
REMARK    3  A    between atoms: C_18  and  N_19
REMARK                            x       y       z     vdW  Elec       q    Type
REMARK                         _______ _______ _______ _____ _____    ______ ____
ROOT
ATOM      1  N   UNL     1      -0.972  -0.133  -0.225  0.00  0.00    +0.000 NA
ATOM      2  C   UNL     1       0.301   0.458  -0.020  0.00  0.00    +0.000 C 
ATOM      3  O   UNL     1       0.396   1.651   0.338  0.00  0.00    +0.000 OA
ENDROOT
BRANCH   1  13
ATOM      4  C   UNL     1      -3.160   1.660  -2.129  0.00  0.00    +0.000 C 
ATOM      5  C   UNL     1      -3.056   0.458  -1.275  0.00  0.00    +0.000 C 
ATOM      6  C   UNL     1      -2.674  -0.799  -1.846  0.00  0.00    +0.000 C 
ATOM      7  C   UNL     1      -4.515   0.267  -0.553  0.00  0.00    +0.000 C 
ATOM      8  C   UNL     1      -4.372   1.482   0.544  0.00  0.00    +0.000 C 
ATOM      9  C   UNL     1      -3.911   0.819   1.758  0.00  0.00    +0.000 C 
ATOM     10  C   UNL     1      -2.932  -0.154   1.099  0.00  0.00    +0.000 C 
ATOM     11  C   UNL     1      -1.943  -0.675   2.016  0.00  0.00    +0.000 C 
ATOM     12  C   UNL     1      -3.863  -0.911   0.385  0.00  0.00    +0.000 C 
ATOM     13  C   UNL     1      -2.176   0.867   0.044  0.00  0.00    +0.000 C 
ENDBRANCH   1  13
BRANCH   2  14
ATOM     14  C   UNL     1       1.532  -0.296  -0.215  0.00  0.00    +0.000 A 
ATOM     15  C   UNL     1       1.424  -1.613  -0.608  0.00  0.00    +0.000 A 
ATOM     16  C   UNL     1       2.582  -2.330  -0.794  0.00  0.00    +0.000 A 
ATOM     17  C   UNL     1       3.812  -1.737  -0.591  0.00  0.00    +0.000 A 
ATOM     18  C   UNL     1       3.944  -0.419  -0.198  0.00  0.00    +0.000 A 
ATOM     19  C   UNL     1       2.765   0.275  -0.019  0.00  0.00    +0.000 A 
BRANCH  18  20
ATOM     20  N   UNL     1       5.219   0.176   0.007  0.00  0.00    +0.000 N 
ATOM     21  O   UNL     1       6.237  -0.516  -0.175  0.00  0.00    +0.000 OA
ATOM     22  O   UNL     1       5.364   1.470   0.392  0.00  0.00    +0.000 OA
ENDBRANCH  18  20
ENDBRANCH   2  14
TORSDOF 3
