REMARK  Name = 
REMARK  4 active torsions:
REMARK  status: ('A' for Active; 'I' for Inactive)
REMARK    1  A    between atoms: C_5  and  C_6
REMARK    2  A    between atoms: C_6  and  C_7
REMARK    3  A    between atoms: C_6  and  C_11
REMARK    4  A    between atoms: C_7  and  N_8
REMARK                            x       y       z     vdW  Elec       q    Type
REMARK                         _______ _______ _______ _____ _____    ______ ____
ROOT
ATOM      1  C   UNL     1      -0.841   0.968  -0.952  0.00  0.00    +0.000 C 
ENDROOT
BRANCH   1   2
ATOM      2  C   UNL     1       0.568   0.289  -1.315  0.00  0.00    +0.000 A 
ATOM      3  C   UNL     1       0.863  -0.114  -2.589  0.00  0.00    +0.000 A 
ATOM      4  N   UNL     1       2.103  -0.631  -2.513  0.00  0.00    +0.000 NA
ATOM      5  C   UNL     1       2.575  -0.562  -1.251  0.00  0.00    +0.000 A 
ATOM      6  C   UNL     1       3.733  -0.919  -0.600  0.00  0.00    +0.000 A 
ATOM      7  C   UNL     1       3.902  -0.700   0.748  0.00  0.00    +0.000 A 
ATOM      8  C   UNL     1       2.886  -0.101   1.497  0.00  0.00    +0.000 A 
ATOM      9  C   UNL     1       1.720   0.264   0.864  0.00  0.00    +0.000 A 
ATOM     10  C   UNL     1       1.586   0.029  -0.489  0.00  0.00    +0.000 A 
ENDBRANCH   1   2
BRANCH   1  15
ATOM     11  C   UNL     1      -3.707  -2.986   0.094  0.00  0.00    +0.000 C 
ATOM     12  C   UNL     1      -2.753  -1.853   0.318  0.00  0.00    +0.000 A 
ATOM     13  C   UNL     1      -2.198  -1.540   1.542  0.00  0.00    +0.000 A 
ATOM     14  C   UNL     1      -1.392  -0.430   1.252  0.00  0.00    +0.000 A 
ATOM     15  C   UNL     1      -1.486  -0.141  -0.030  0.00  0.00    +0.000 A 
ATOM     16  O   UNL     1      -2.299  -0.990  -0.590  0.00  0.00    +0.000 OA
ENDBRANCH   1  15
BRANCH   1  17
ATOM     17  C   UNL     1      -0.244   1.913   0.243  0.00  0.00    +0.000 C 
BRANCH  17  18
ATOM     18  N   UNL     1      -1.325   2.349   1.045  0.00  0.00    +0.000 N 
ATOM     19  O   UNL     1      -1.346   2.109   2.252  0.00  0.00    +0.000 OA
ATOM     20  O   UNL     1      -2.344   3.047   0.475  0.00  0.00    +0.000 OA
ENDBRANCH  17  18
ENDBRANCH   1  17
TORSDOF 4
