REMARK  Name = 
REMARK  3 active torsions:
REMARK  status: ('A' for Active; 'I' for Inactive)
REMARK    1  A    between atoms: C_5  and  C_6
REMARK    2  A    between atoms: N_8  and  C_9
REMARK    3  A    between atoms: C_9  and  C_10
REMARK                            x       y       z     vdW  Elec       q    Type
REMARK                         _______ _______ _______ _____ _____    ______ ____
ROOT
ATOM      1  C   UNL     1       0.065   0.184   0.077  0.00  0.00    +0.000 A 
ATOM      2  N   UNL     1       1.055   0.990  -0.334  0.00  0.00    +0.000 NA
ATOM      3  N   UNL     1       2.275   0.502  -0.581  0.00  0.00    +0.000 N 
ATOM      4  C   UNL     1       2.540  -0.809  -0.422  0.00  0.00    +0.000 A 
ATOM      5  O   UNL     1       3.676  -1.296  -0.646  0.00  0.00    +0.000 OA
ATOM      6  C   UNL     1       1.564  -1.700   0.001  0.00  0.00    +0.000 A 
ATOM      7  C   UNL     1       1.785  -3.034   0.175  0.00  0.00    +0.000 A 
ATOM      8  C   UNL     1       0.776  -3.876   0.598  0.00  0.00    +0.000 A 
ATOM      9  C   UNL     1      -0.465  -3.326   0.839  0.00  0.00    +0.000 A 
ATOM     10  C   UNL     1      -0.717  -1.980   0.670  0.00  0.00    +0.000 A 
ATOM     11  C   UNL     1       0.311  -1.165   0.247  0.00  0.00    +0.000 A 
ENDROOT
BRANCH   1  16
ATOM     12  C   UNL     1      -5.166   2.288   1.198  0.00  0.00    +0.000 C 
ATOM     13  C   UNL     1      -3.830   1.726   0.896  0.00  0.00    +0.000 A 
ATOM     14  C   UNL     1      -2.694   2.350   1.333  0.00  0.00    +0.000 A 
ATOM     15  C   UNL     1      -1.444   1.864   1.076  0.00  0.00    +0.000 A 
ATOM     16  C   UNL     1      -1.291   0.708   0.354  0.00  0.00    +0.000 A 
ATOM     17  C   UNL     1      -2.400   0.052  -0.102  0.00  0.00    +0.000 A 
ATOM     18  C   UNL     1      -3.659   0.552   0.164  0.00  0.00    +0.000 A 
ATOM     19  C   UNL     1      -4.907  -0.119  -0.306  0.00  0.00    +0.000 C 
ENDBRANCH   1  16
BRANCH   3  20
ATOM     20  C   UNL     1       3.339   1.382  -1.025  0.00  0.00    +0.000 C 
BRANCH  20  21
ATOM     21  C   UNL     1       4.094   1.940   0.161  0.00  0.00    +0.000 C 
ATOM     22  O   UNL     1       5.091   2.767  -0.301  0.00  0.00    +0.000 OA
ENDBRANCH  20  21
ENDBRANCH   3  20
TORSDOF 3
