REMARK  Name = 
REMARK  6 active torsions:
REMARK  status: ('A' for Active; 'I' for Inactive)
REMARK    1  A    between atoms: C_2  and  C_3
REMARK    2  A    between atoms: C_3  and  C_4
REMARK    3  A    between atoms: C_4  and  N_5
REMARK    4  A    between atoms: N_5  and  C_6
REMARK    5  A    between atoms: C_6  and  N_8
REMARK    6  A    between atoms: N_8  and  C_9
REMARK                            x       y       z     vdW  Elec       q    Type
REMARK                         _______ _______ _______ _____ _____    ______ ____
ROOT
ATOM      1  C   UNL     1      -0.859  -0.098   0.174  0.00  0.00    +0.000 A 
ATOM      2  C   UNL     1      -0.653  -1.410   0.505  0.00  0.00    +0.000 A 
ATOM      3  C   UNL     1      -1.674  -2.207   0.957  0.00  0.00    +0.000 A 
ATOM      4  C   UNL     1      -2.950  -1.665   1.080  0.00  0.00    +0.000 A 
ATOM      5  C   UNL     1      -3.141  -0.336   0.741  0.00  0.00    +0.000 A 
ATOM      6  N   UNL     1      -4.388   0.189   0.863  0.00  0.00    +0.000 NA
ATOM      7  C   UNL     1      -4.645   1.455   0.556  0.00  0.00    +0.000 A 
ATOM      8  C   UNL     1      -3.659   2.304   0.097  0.00  0.00    +0.000 A 
ATOM      9  C   UNL     1      -2.387   1.767  -0.027  0.00  0.00    +0.000 A 
ATOM     10  C   UNL     1      -2.109   0.448   0.291  0.00  0.00    +0.000 A 
ENDROOT
BRANCH   1  11
ATOM     11  N   UNL     1       0.221   0.680  -0.284  0.00  0.00    +0.000 NA
BRANCH  11  12
ATOM     12  C   UNL     1       1.518   0.117  -0.407  0.00  0.00    +0.000 C 
ATOM     13  S   UNL     1       1.813  -1.449  -0.026  0.00  0.00    +0.000 S 
BRANCH  12  14
ATOM     14  N   UNL     1       2.539   0.988  -0.878  0.00  0.00    +0.000 NA
BRANCH  14  15
ATOM     15  C   UNL     1       3.908   0.557  -1.056  0.00  0.00    +0.000 C 
BRANCH  15  16
ATOM     16  C   UNL     1       4.531   0.272   0.303  0.00  0.00    +0.000 C 
BRANCH  16  18
ATOM     17  C   UNL     1       5.963  -1.434  -0.722  0.00  0.00    +0.000 C 
ATOM     18  C   UNL     1       5.972  -0.178   0.122  0.00  0.00    +0.000 C 
ENDBRANCH  16  18
ENDBRANCH  15  16
ENDBRANCH  14  15
ENDBRANCH  12  14
ENDBRANCH  11  12
ENDBRANCH   1  11
TORSDOF 6
