REMARK  Name = 
REMARK  3 active torsions:
REMARK  status: ('A' for Active; 'I' for Inactive)
REMARK    1  A    between atoms: C_2  and  O_3
REMARK    2  A    between atoms: C_2  and  C_15
REMARK    3  A    between atoms: O_3  and  C_4
REMARK                            x       y       z     vdW  Elec       q    Type
REMARK                         _______ _______ _______ _____ _____    ______ ____
ROOT
ATOM      1  C   UNL     1       0.023  -0.325  -0.558  0.00  0.00    +0.000 A 
ATOM      2  C   UNL     1      -0.451  -0.746  -1.779  0.00  0.00    +0.000 A 
ATOM      3  C   UNL     1      -1.802  -0.957  -1.959  0.00  0.00    +0.000 A 
ATOM      4  C   UNL     1      -2.692  -0.750  -0.927  0.00  0.00    +0.000 A 
ATOM      5  C   UNL     1      -4.052  -0.961  -1.105  0.00  0.00    +0.000 A 
ATOM      6  C   UNL     1      -4.915  -0.745  -0.051  0.00  0.00    +0.000 A 
ATOM      7  C   UNL     1      -4.492  -0.323   1.195  0.00  0.00    +0.000 A 
ATOM      8  O   UNL     1      -5.415  -0.120   2.229  0.00  0.00    +0.000 OA
ATOM      9  C   UNL     1      -3.138  -0.114   1.369  0.00  0.00    +0.000 A 
ATOM     10  C   UNL     1      -2.252  -0.329   0.310  0.00  0.00    +0.000 A 
ATOM     11  C   UNL     1      -0.895  -0.129   0.453  0.00  0.00    +0.000 A 
ENDROOT
BRANCH   1  12
ATOM     12  O   UNL     1       1.399  -0.104  -0.349  0.00  0.00    +0.000 OA
BRANCH  12  14
ATOM     13  O   UNL     1       1.173   2.048  -0.990  0.00  0.00    +0.000 OA
ATOM     14  C   UNL     1       1.956   1.143  -0.585  0.00  0.00    +0.000 C 
BRANCH  14  15
ATOM     15  C   UNL     1       3.370   1.480  -0.401  0.00  0.00    +0.000 C 
ATOM     16  C   UNL     1       3.850   1.286   1.000  0.00  0.00    +0.000 C 
ATOM     17  C   UNL     1       4.273  -0.137   1.204  0.00  0.00    +0.000 C 
ATOM     18  C   UNL     1       5.255  -0.615   0.153  0.00  0.00    +0.000 C 
ATOM     19  C   UNL     1       4.524  -0.537  -1.194  0.00  0.00    +0.000 C 
ATOM     20  C   UNL     1       4.282   0.935  -1.450  0.00  0.00    +0.000 C 
ENDBRANCH  14  15
ENDBRANCH  12  14
ENDBRANCH   1  12
TORSDOF 3
