REMARK  Name = 
REMARK  3 active torsions:
REMARK  status: ('A' for Active; 'I' for Inactive)
REMARK    1  A    between atoms: S_2  and  C_3
REMARK    2  A    between atoms: C_8  and  S_9
REMARK    3  A    between atoms: C_11  and  C_12
REMARK                            x       y       z     vdW  Elec       q    Type
REMARK                         _______ _______ _______ _____ _____    ______ ____
ROOT
ATOM      1  C   UNL     1      -0.883  -1.313  -0.104  0.00  0.00    +0.000 A 
ATOM      2  N   UNL     1      -2.235  -1.431  -0.150  0.00  0.00    +0.000 NA
ATOM      3  C   UNL     1      -3.075  -0.402  -0.294  0.00  0.00    +0.000 A 
ATOM      4  N   UNL     1      -4.504  -0.576  -0.353  0.00  0.00    +0.000 NA
ATOM      5  N   UNL     1      -2.563   0.828  -0.402  0.00  0.00    +0.000 NA
ATOM      6  C   UNL     1      -1.197   1.019  -0.360  0.00  0.00    +0.000 A 
ATOM      7  C   UNL     1      -0.358  -0.051  -0.211  0.00  0.00    +0.000 A 
ENDROOT
BRANCH   7   8
ATOM      8  C   UNL     1       1.101   0.123  -0.154  0.00  0.00    +0.000 A 
ATOM      9  C   UNL     1       1.739   0.680   0.937  0.00  0.00    +0.000 A 
ATOM     10  C   UNL     1       3.119   0.827   0.972  0.00  0.00    +0.000 A 
ATOM     11  C   UNL     1       3.876   0.403  -0.121  0.00  0.00    +0.000 A 
ATOM     12  C   UNL     1       3.242  -0.153  -1.221  0.00  0.00    +0.000 A 
ATOM     13  C   UNL     1       1.889  -0.277  -1.205  0.00  0.00    +0.000 A 
ENDBRANCH   7   8
BRANCH   1  15
ATOM     14  C   UNL     1       0.511  -2.975   1.868  0.00  0.00    +0.000 C 
ATOM     15  S   UNL     1       0.215  -2.683   0.085  0.00  0.00    +0.000 S 
ENDBRANCH   1  15
BRANCH   6  16
ATOM     16  S   UNL     1      -0.492   2.662  -0.495  0.00  0.00    +0.000 S 
ATOM     17  C   UNL     1      -0.384   3.317   1.210  0.00  0.00    +0.000 C 
ENDBRANCH   6  16
TORSDOF 3
