REMARK  Name = 
REMARK  3 active torsions:
REMARK  status: ('A' for Active; 'I' for Inactive)
REMARK    1  A    between atoms: C_8  and  N_9
REMARK    2  A    between atoms: C_10  and  C_12
REMARK    3  A    between atoms: C_16  and  N_17
REMARK                            x       y       z     vdW  Elec       q    Type
REMARK                         _______ _______ _______ _____ _____    ______ ____
ROOT
ATOM      1  N   UNL     1      -1.039  -0.433  -0.058  0.00  0.00    +0.000 NA
ATOM      2  C   UNL     1      -0.048  -0.259   0.900  0.00  0.00    +0.000 C 
ATOM      3  O   UNL     1      -0.386   0.133   2.045  0.00  0.00    +0.000 OA
ENDROOT
BRANCH   1  11
ATOM      4  C   UNL     1      -2.774  -0.999  -2.133  0.00  0.00    +0.000 C 
ATOM      5  C   UNL     1      -3.315  -0.483  -0.861  0.00  0.00    +0.000 A 
ATOM      6  C   UNL     1      -4.684  -0.269  -0.687  0.00  0.00    +0.000 A 
ATOM      7  C   UNL     1      -5.130   0.223   0.509  0.00  0.00    +0.000 A 
ATOM      8  C   UNL     1      -4.284   0.516   1.549  0.00  0.00    +0.000 A 
ATOM      9  F   UNL     1      -4.745   1.015   2.744  0.00  0.00    +0.000 F 
ATOM     10  C   UNL     1      -2.915   0.304   1.383  0.00  0.00    +0.000 A 
ATOM     11  C   UNL     1      -2.444  -0.198   0.171  0.00  0.00    +0.000 A 
ENDBRANCH   1  11
BRANCH   2  12
ATOM     12  C   UNL     1       1.356  -0.508   0.641  0.00  0.00    +0.000 A 
ATOM     13  C   UNL     1       1.966  -1.686   1.101  0.00  0.00    +0.000 A 
ATOM     14  C   UNL     1       3.277  -1.993   0.834  0.00  0.00    +0.000 A 
ATOM     15  C   UNL     1       4.026  -1.093   0.074  0.00  0.00    +0.000 A 
ATOM     16  C   UNL     1       3.479   0.095  -0.410  0.00  0.00    +0.000 A 
ATOM     17  C   UNL     1       2.162   0.345  -0.109  0.00  0.00    +0.000 A 
ATOM     18  C   UNL     1       1.555   1.611  -0.604  0.00  0.00    +0.000 C 
BRANCH  16  19
ATOM     19  N   UNL     1       4.323   0.956  -1.159  0.00  0.00    +0.000 N 
ATOM     20  O   UNL     1       3.929   1.698  -2.075  0.00  0.00    +0.000 OA
ATOM     21  O   UNL     1       5.690   1.025  -0.894  0.00  0.00    +0.000 OA
ENDBRANCH  16  19
ENDBRANCH   2  12
TORSDOF 3
