REMARK  Name = 
REMARK  2 active torsions:
REMARK  status: ('A' for Active; 'I' for Inactive)
REMARK    1  A    between atoms: C_6  and  C_7
REMARK    2  A    between atoms: C_7  and  C_8
REMARK                            x       y       z     vdW  Elec       q    Type
REMARK                         _______ _______ _______ _____ _____    ______ ____
ROOT
ATOM      1  C   UNL     1      -4.919   1.177  -1.644  0.00  0.00    +0.000 C 
ATOM      2  C   UNL     1      -3.843   0.531  -0.821  0.00  0.00    +0.000 A 
ATOM      3  C   UNL     1      -2.610   1.119  -0.655  0.00  0.00    +0.000 A 
ATOM      4  C   UNL     1      -1.633   0.497   0.113  0.00  0.00    +0.000 A 
ATOM      5  N   UNL     1      -0.445   1.104   0.251  0.00  0.00    +0.000 NA
ATOM      6  C   UNL     1       0.495   0.485   1.003  0.00  0.00    +0.000 A 
ATOM      7  C   UNL     1       0.269  -0.731   1.623  0.00  0.00    +0.000 A 
ATOM      8  O   UNL     1       1.230  -1.202   2.297  0.00  0.00    +0.000 OA
ATOM      9  N   UNL     1      -0.910  -1.320   1.478  0.00  0.00    +0.000 NA
ATOM     10  C   UNL     1      -1.874  -0.727   0.731  0.00  0.00    +0.000 A 
ATOM     11  C   UNL     1      -3.122  -1.284   0.541  0.00  0.00    +0.000 A 
ATOM     12  C   UNL     1      -4.101  -0.682  -0.217  0.00  0.00    +0.000 A 
ATOM     13  C   UNL     1      -5.451  -1.301  -0.414  0.00  0.00    +0.000 C 
ENDROOT
BRANCH   6  14
ATOM     14  C   UNL     1       1.798   1.181   1.139  0.00  0.00    +0.000 C 
BRANCH  14  15
ATOM     15  C   UNL     1       2.850   0.549   0.294  0.00  0.00    +0.000 A 
ATOM     16  C   UNL     1       3.814  -0.256   0.899  0.00  0.00    +0.000 A 
ATOM     17  C   UNL     1       4.791  -0.842   0.123  0.00  0.00    +0.000 A 
ATOM     18  C   UNL     1       4.864  -0.667  -1.252  0.00  0.00    +0.000 A 
ATOM     19  C   UNL     1       3.905   0.131  -1.834  0.00  0.00    +0.000 A 
ATOM     20  C   UNL     1       2.921   0.725  -1.075  0.00  0.00    +0.000 A 
ATOM     21  F   UNL     1       1.973   1.514  -1.649  0.00  0.00    +0.000 F 
ENDBRANCH  14  15
ENDBRANCH   6  14
TORSDOF 2
