REMARK  Name = 
REMARK  7 active torsions:
REMARK  status: ('A' for Active; 'I' for Inactive)
REMARK    1  A    between atoms: C_5  and  N_6
REMARK    2  A    between atoms: C_8  and  C_9
REMARK    3  A    between atoms: C_9  and  O_11
REMARK    4  A    between atoms: O_11  and  C_12
REMARK    5  A    between atoms: C_12  and  C_13
REMARK    6  A    between atoms: C_13  and  O_15
REMARK    7  A    between atoms: O_15  and  C_16
REMARK                            x       y       z     vdW  Elec       q    Type
REMARK                         _______ _______ _______ _____ _____    ______ ____
ROOT
ATOM      1  N   UNL     1      -1.995   0.615   0.019  0.00  0.00    +0.000 N 
ATOM      2  C   UNL     1      -1.058   0.746  -0.995  0.00  0.00    +0.000 C 
ATOM      3  C   UNL     1      -0.135   2.014  -0.651  0.00  0.00    +0.000 C 
ATOM      4  C   UNL     1      -0.827   2.411   0.747  0.00  0.00    +0.000 C 
ATOM      5  C   UNL     1      -1.494   1.197   1.182  0.00  0.00    +0.000 C 
ATOM      6  O   UNL     1      -1.574   0.798   2.381  0.00  0.00    +0.000 OA
ENDROOT
BRANCH   1  11
ATOM      7  C   UNL     1      -6.820  -2.326  -0.799  0.00  0.00    +0.000 C 
ATOM      8  C   UNL     1      -5.560  -1.565  -0.587  0.00  0.00    +0.000 A 
ATOM      9  C   UNL     1      -4.316  -2.109  -0.810  0.00  0.00    +0.000 A 
ATOM     10  C   UNL     1      -3.166  -1.372  -0.603  0.00  0.00    +0.000 A 
ATOM     11  C   UNL     1      -3.248  -0.051  -0.159  0.00  0.00    +0.000 A 
ATOM     12  C   UNL     1      -4.488   0.452   0.050  0.00  0.00    +0.000 A 
ATOM     13  C   UNL     1      -5.645  -0.271  -0.152  0.00  0.00    +0.000 A 
ATOM     14  C   UNL     1      -6.999   0.335   0.096  0.00  0.00    +0.000 C 
ENDBRANCH   1  11
BRANCH   3  15
ATOM     15  C   UNL     1       1.068   1.195  -0.063  0.00  0.00    +0.000 C 
ATOM     16  O   UNL     1       1.492   1.328   1.073  0.00  0.00    +0.000 OA
BRANCH  15  17
ATOM     17  O   UNL     1       1.688   0.281  -0.844  0.00  0.00    +0.000 OA
BRANCH  17  18
ATOM     18  C   UNL     1       2.720  -0.557  -0.641  0.00  0.00    +0.000 C 
BRANCH  18  19
ATOM     19  C   UNL     1       4.039  -0.116  -0.297  0.00  0.00    +0.000 C 
ATOM     20  O   UNL     1       4.466   1.046  -0.130  0.00  0.00    +0.000 OA
BRANCH  19  21
ATOM     21  O   UNL     1       5.013  -1.096  -0.113  0.00  0.00    +0.000 OA
BRANCH  21  22
ATOM     22  C   UNL     1       6.351  -0.784   0.230  0.00  0.00    +0.000 C 
ATOM     23  C   UNL     1       7.081  -2.117   0.334  0.00  0.00    +0.000 C 
ATOM     24  C   UNL     1       7.002   0.119  -0.795  0.00  0.00    +0.000 C 
ATOM     25  C   UNL     1       6.404  -0.173   1.626  0.00  0.00    +0.000 C 
ENDBRANCH  21  22
ENDBRANCH  19  21
ENDBRANCH  18  19
ENDBRANCH  17  18
ENDBRANCH  15  17
ENDBRANCH   3  15
TORSDOF 7
