REMARK  Name = 
REMARK  2 active torsions:
REMARK  status: ('A' for Active; 'I' for Inactive)
REMARK    1  A    between atoms: C_8  and  C_9
REMARK    2  A    between atoms: C_12  and  C_13
REMARK                            x       y       z     vdW  Elec       q    Type
REMARK                         _______ _______ _______ _____ _____    ______ ____
ROOT
ATOM      1  C   UNL     1       6.218   1.202   1.307  0.00  0.00    +0.000 C 
ATOM      2  C   UNL     1       4.981   0.522   0.774  0.00  0.00    +0.000 A 
ATOM      3  C   UNL     1       5.024  -0.687   0.127  0.00  0.00    +0.000 A 
ATOM      4  C   UNL     1       3.858  -1.274  -0.339  0.00  0.00    +0.000 A 
ATOM      5  N   UNL     1       3.967  -2.521  -1.010  0.00  0.00    +0.000 NA
ATOM      6  N   UNL     1       2.664  -0.683  -0.174  0.00  0.00    +0.000 N 
ATOM      7  N   UNL     1       1.418  -1.047  -0.528  0.00  0.00    +0.000 NA
ATOM      8  C   UNL     1       0.541  -0.123  -0.142  0.00  0.00    +0.000 A 
ATOM      9  C   UNL     1       1.290   0.867   0.488  0.00  0.00    +0.000 A 
ATOM     10  C   UNL     1       2.621   0.515   0.463  0.00  0.00    +0.000 A 
ATOM     11  N   UNL     1       3.757   1.079   0.913  0.00  0.00    +0.000 NA
ENDROOT
BRANCH   8  12
ATOM     12  C   UNL     1      -0.923  -0.061  -0.292  0.00  0.00    +0.000 A 
ATOM     13  C   UNL     1      -1.613   1.046   0.220  0.00  0.00    +0.000 A 
ATOM     14  C   UNL     1      -2.978   1.174   0.111  0.00  0.00    +0.000 A 
ATOM     15  C   UNL     1      -3.722   0.196  -0.516  0.00  0.00    +0.000 A 
ATOM     16  C   UNL     1      -3.027  -0.881  -1.009  0.00  0.00    +0.000 A 
ATOM     17  C   UNL     1      -1.653  -1.018  -0.909  0.00  0.00    +0.000 A 
BRANCH  15  18
ATOM     18  C   UNL     1      -5.212   0.344  -0.632  0.00  0.00    +0.000 C 
ATOM     19  C   UNL     1      -5.939  -0.687   0.205  0.00  0.00    +0.000 C 
ATOM     20  C   UNL     1      -5.594   1.711  -0.057  0.00  0.00    +0.000 C 
ATOM     21  C   UNL     1      -5.678   0.327  -2.060  0.00  0.00    +0.000 C 
ENDBRANCH  15  18
ENDBRANCH   8  12
TORSDOF 2
