REMARK  Name = 
REMARK  3 active torsions:
REMARK  status: ('A' for Active; 'I' for Inactive)
REMARK    1  A    between atoms: C_2  and  C_3
REMARK    2  A    between atoms: C_6  and  N_7
REMARK    3  A    between atoms: N_7  and  C_8
REMARK                            x       y       z     vdW  Elec       q    Type
REMARK                         _______ _______ _______ _____ _____    ______ ____
ROOT
ATOM      1  C   UNL     1       2.483   1.782   2.117  0.00  0.00    +0.000 A 
ATOM      2  C   UNL     1       1.418   1.411   1.385  0.00  0.00    +0.000 A 
ATOM      3  C   UNL     1       1.390   0.195   0.825  0.00  0.00    +0.000 A 
ATOM      4  C   UNL     1       0.368  -0.342   0.042  0.00  0.00    +0.000 A 
ATOM      5  N   UNL     1       0.512  -1.578  -0.436  0.00  0.00    +0.000 NA
ATOM      6  C   UNL     1       1.565  -2.375  -0.235  0.00  0.00    +0.000 A 
ATOM      7  N   UNL     1       2.567  -1.869   0.524  0.00  0.00    +0.000 NA
ATOM      8  C   UNL     1       2.484  -0.606   1.046  0.00  0.00    +0.000 A 
ATOM      9  S   UNL     1       3.478   0.386   2.019  0.00  0.00    +0.000 S 
ENDROOT
BRANCH   1  11
ATOM     10  C   UNL     1       4.112   2.959   3.509  0.00  0.00    +0.000 C 
ATOM     11  C   UNL     1       2.748   3.079   2.839  0.00  0.00    +0.000 C 
ENDBRANCH   1  11
BRANCH   4  12
ATOM     12  N   UNL     1      -0.819   0.434  -0.240  0.00  0.00    +0.000 NA
BRANCH  12  13
ATOM     13  C   UNL     1      -1.866  -0.103  -1.036  0.00  0.00    +0.000 A 
ATOM     14  C   UNL     1      -1.732  -1.381  -1.538  0.00  0.00    +0.000 A 
ATOM     15  C   UNL     1      -2.688  -1.967  -2.308  0.00  0.00    +0.000 A 
ATOM     16  C   UNL     1      -3.839  -1.276  -2.610  0.00  0.00    +0.000 A 
ATOM     17  C   UNL     1      -3.996   0.012  -2.116  0.00  0.00    +0.000 A 
ATOM     18  O   UNL     1      -5.174   0.658  -2.451  0.00  0.00    +0.000 OA
ATOM     19  C   UNL     1      -3.012   0.581  -1.338  0.00  0.00    +0.000 A 
ENDBRANCH  12  13
ENDBRANCH   4  12
TORSDOF 3
