REMARK  Name = 
REMARK  3 active torsions:
REMARK  status: ('A' for Active; 'I' for Inactive)
REMARK    1  A    between atoms: C_8  and  C_10
REMARK    2  A    between atoms: C_10  and  C_11
REMARK    3  A    between atoms: C_11  and  C_13
REMARK                            x       y       z     vdW  Elec       q    Type
REMARK                         _______ _______ _______ _____ _____    ______ ____
ROOT
ATOM      1  C   UNL     1      -5.325   0.488  -2.056  0.00  0.00    +0.000 C 
ATOM      2  C   UNL     1      -4.271   0.685  -1.045  0.00  0.00    +0.000 A 
ATOM      3  C   UNL     1      -4.339   1.707  -0.124  0.00  0.00    +0.000 A 
ATOM      4  C   UNL     1      -3.358   1.892   0.819  0.00  0.00    +0.000 A 
ATOM      5  C   UNL     1      -2.241   1.049   0.888  0.00  0.00    +0.000 A 
ATOM      6  C   UNL     1      -2.163   0.034  -0.020  0.00  0.00    +0.000 A 
ATOM      7  C   UNL     1      -3.179  -0.141  -0.980  0.00  0.00    +0.000 A 
ATOM      8  C   UNL     1      -0.915  -0.714   0.231  0.00  0.00    +0.000 C 
ATOM      9  O   UNL     1      -1.163  -2.069   0.465  0.00  0.00    +0.000 OA
ATOM     10  C   UNL     1      -0.295  -0.051   1.385  0.00  0.00    +0.000 C 
ATOM     11  O   UNL     1       0.814  -0.413   1.942  0.00  0.00    +0.000 OA
ATOM     12  N   UNL     1      -1.117   1.028   1.761  0.00  0.00    +0.000 NA
ENDROOT
BRANCH   8  13
ATOM     13  C   UNL     1       0.035  -0.541  -0.952  0.00  0.00    +0.000 C 
BRANCH  13  14
ATOM     14  C   UNL     1       1.303  -1.276  -0.741  0.00  0.00    +0.000 C 
ATOM     15  O   UNL     1       1.276  -2.528  -0.802  0.00  0.00    +0.000 OA
BRANCH  14  16
ATOM     16  C   UNL     1       2.556  -0.571  -0.468  0.00  0.00    +0.000 A 
ATOM     17  C   UNL     1       2.788   0.771  -0.364  0.00  0.00    +0.000 A 
ATOM     18  C   UNL     1       4.020   1.180  -0.108  0.00  0.00    +0.000 A 
ATOM     19  C   UNL     1       4.997   0.233   0.037  0.00  0.00    +0.000 A 
ATOM     20  C   UNL     1       6.461   0.446   0.328  0.00  0.00    +0.000 C 
ATOM     21  S   UNL     1       4.116  -1.208  -0.196  0.00  0.00    +0.000 S 
ENDBRANCH  14  16
ENDBRANCH  13  14
ENDBRANCH   8  13
TORSDOF 3
