REMARK  Name = 
REMARK  4 active torsions:
REMARK  status: ('A' for Active; 'I' for Inactive)
REMARK    1  A    between atoms: C_2  and  N_3
REMARK    2  A    between atoms: C_2  and  C_14
REMARK    3  A    between atoms: N_3  and  N_4
REMARK    4  A    between atoms: C_5  and  C_7
REMARK                            x       y       z     vdW  Elec       q    Type
REMARK                         _______ _______ _______ _____ _____    ______ ____
ROOT
ATOM      1  N   UNL     1      -0.497  -1.703  -0.798  0.00  0.00    +0.000 NA
ENDROOT
BRANCH   1   2
ATOM      2  N   UNL     1       0.737  -1.348  -0.261  0.00  0.00    +0.000 NA
ATOM      3  C   UNL     1       1.306  -0.143  -0.744  0.00  0.00    +0.000 C 
ATOM      4  O   UNL     1       0.715   0.534  -1.599  0.00  0.00    +0.000 OA
BRANCH   3   5
ATOM      5  C   UNL     1       2.606   0.331  -0.247  0.00  0.00    +0.000 A 
ATOM      6  C   UNL     1       3.152   1.512  -0.700  0.00  0.00    +0.000 A 
ATOM      7  C   UNL     1       4.355   2.003  -0.250  0.00  0.00    +0.000 A 
ATOM      8  C   UNL     1       5.069   1.306   0.700  0.00  0.00    +0.000 A 
ATOM      9  C   UNL     1       4.543   0.124   1.168  0.00  0.00    +0.000 A 
ATOM     10  C   UNL     1       3.325  -0.361   0.701  0.00  0.00    +0.000 A 
ATOM     11  O   UNL     1       2.802  -1.564   1.184  0.00  0.00    +0.000 OA
ENDBRANCH   3   5
ENDBRANCH   1   2
BRANCH   1  13
ATOM     12  C   UNL     1      -2.094  -2.776   0.558  0.00  0.00    +0.000 C 
ATOM     13  C   UNL     1      -1.726  -1.663  -0.079  0.00  0.00    +0.000 C 
BRANCH  13  14
ATOM     14  C   UNL     1      -2.562  -0.471  -0.019  0.00  0.00    +0.000 A 
ATOM     15  C   UNL     1      -2.361   0.745  -0.622  0.00  0.00    +0.000 A 
ATOM     16  C   UNL     1      -3.417   1.535  -0.254  0.00  0.00    +0.000 A 
ATOM     17  C   UNL     1      -3.684   2.968  -0.638  0.00  0.00    +0.000 C 
ATOM     18  O   UNL     1      -4.187   0.826   0.516  0.00  0.00    +0.000 OA
ATOM     19  C   UNL     1      -3.733  -0.372   0.694  0.00  0.00    +0.000 A 
ATOM     20  C   UNL     1      -4.348  -1.482   1.521  0.00  0.00    +0.000 C 
ENDBRANCH  13  14
ENDBRANCH   1  13
TORSDOF 4
