REMARK  Name = 
REMARK  4 active torsions:
REMARK  status: ('A' for Active; 'I' for Inactive)
REMARK    1  A    between atoms: C_4  and  C_5
REMARK    2  A    between atoms: C_10  and  O_11
REMARK    3  A    between atoms: O_11  and  C_12
REMARK    4  A    between atoms: C_12  and  C_13
REMARK                            x       y       z     vdW  Elec       q    Type
REMARK                         _______ _______ _______ _____ _____    ______ ____
ROOT
ATOM      1  O   UNL     1       0.048   0.458  -0.654  0.00  0.00    +0.000 OA
ENDROOT
BRANCH   1   9
ATOM      2  C   UNL     1       2.502   1.192  -1.804  0.00  0.00    +0.000 C 
ATOM      3  C   UNL     1       2.054   1.777  -0.512  0.00  0.00    +0.000 A 
ATOM      4  C   UNL     1       2.786   2.691   0.192  0.00  0.00    +0.000 A 
ATOM      5  C   UNL     1       2.351   3.217   1.382  0.00  0.00    +0.000 A 
ATOM      6  C   UNL     1       1.139   2.798   1.865  0.00  0.00    +0.000 A 
ATOM      7  C   UNL     1       0.346   1.877   1.208  0.00  0.00    +0.000 A 
ATOM      8  C   UNL     1      -0.966   1.433   1.744  0.00  0.00    +0.000 C 
ATOM      9  C   UNL     1       0.835   1.379   0.009  0.00  0.00    +0.000 A 
BRANCH   5  10
ATOM     10  C   UNL     1       3.168   4.184   2.088  0.00  0.00    +0.000 C 
ATOM     11  N   UNL     1       3.818   4.951   2.668  0.00  0.00    +0.000 NA
ENDBRANCH   5  10
ENDBRANCH   1   9
BRANCH   1  12
ATOM     12  C   UNL     1       0.148  -0.940  -0.436  0.00  0.00    +0.000 C 
BRANCH  12  13
ATOM     13  C   UNL     1      -1.006  -1.475  -1.479  0.00  0.00    +0.000 C 
ATOM     14  C   UNL     1      -2.214  -0.654  -0.747  0.00  0.00    +0.000 C 
ATOM     15  C   UNL     1      -3.521  -1.210  -0.945  0.00  0.00    +0.000 C 
ATOM     16  C   UNL     1      -3.460  -2.537  -1.636  0.00  0.00    +0.000 C 
ATOM     17  C   UNL     1      -2.533  -3.364  -0.880  0.00  0.00    +0.000 A 
ATOM     18  N   UNL     1      -2.508  -4.510  -0.228  0.00  0.00    +0.000 NA
ATOM     19  C   UNL     1      -1.262  -4.733   0.278  0.00  0.00    +0.000 A 
ATOM     20  N   UNL     1      -0.479  -3.671  -0.080  0.00  0.00    +0.000 NA
ATOM     21  C   UNL     1      -1.245  -2.863  -0.767  0.00  0.00    +0.000 A 
ENDBRANCH  12  13
ENDBRANCH   1  12
TORSDOF 4
