REMARK  Name = 
REMARK  2 active torsions:
REMARK  status: ('A' for Active; 'I' for Inactive)
REMARK    1  A    between atoms: C_6  and  C_7
REMARK    2  A    between atoms: N_11  and  C_12
REMARK                            x       y       z     vdW  Elec       q    Type
REMARK                         _______ _______ _______ _____ _____    ______ ____
ROOT
ATOM      1  C   UNL     1      -1.703   0.659  -3.513  0.00  0.00    +0.000 C 
ATOM      2  C   UNL     1      -1.792   0.341  -2.047  0.00  0.00    +0.000 A 
ATOM      3  C   UNL     1      -3.006   0.141  -1.425  0.00  0.00    +0.000 A 
ATOM      4  C   UNL     1      -3.124  -0.152  -0.086  0.00  0.00    +0.000 A 
ATOM      5  C   UNL     1      -4.423  -0.368   0.596  0.00  0.00    +0.000 C 
ATOM      6  C   UNL     1      -1.960  -0.246   0.648  0.00  0.00    +0.000 A 
ATOM      7  C   UNL     1      -0.740  -0.043   0.011  0.00  0.00    +0.000 A 
ATOM      8  N   UNL     1       0.440  -0.146   0.794  0.00  0.00    +0.000 NA
ATOM      9  N   UNL     1      -0.671   0.244  -1.310  0.00  0.00    +0.000 NA
ENDROOT
BRANCH   8  10
ATOM     10  C   UNL     1       1.692   0.055   0.175  0.00  0.00    +0.000 A 
ATOM     11  C   UNL     1       1.733   0.344  -1.167  0.00  0.00    +0.000 A 
ATOM     12  C   UNL     1       2.955   0.535  -1.746  0.00  0.00    +0.000 A 
ATOM     13  C   UNL     1       4.116   0.443  -1.020  0.00  0.00    +0.000 A 
ATOM     14  C   UNL     1       4.090   0.151   0.334  0.00  0.00    +0.000 A 
ATOM     15 CL   UNL     1       5.583   0.035   1.258  0.00  0.00    +0.000 Cl
ATOM     16  C   UNL     1       2.867  -0.041   0.920  0.00  0.00    +0.000 A 
ENDBRANCH   8  10
BRANCH   6  17
ATOM     17  C   UNL     1      -1.961  -0.551   2.073  0.00  0.00    +0.000 C 
ATOM     18  N   UNL     1      -3.192  -0.764   2.757  0.00  0.00    +0.000 NA
ATOM     19  O   UNL     1      -0.905  -0.638   2.747  0.00  0.00    +0.000 OA
ENDBRANCH   6  17
TORSDOF 2
