REMARK  Name = 
REMARK  3 active torsions:
REMARK  status: ('A' for Active; 'I' for Inactive)
REMARK    1  A    between atoms: C_2  and  C_4
REMARK    2  A    between atoms: C_8  and  C_9
REMARK    3  A    between atoms: N_11  and  C_12
REMARK                            x       y       z     vdW  Elec       q    Type
REMARK                         _______ _______ _______ _____ _____    ______ ____
ROOT
ATOM      1  C   UNL     1      -3.401  -0.285   0.111  0.00  0.00    +0.000 A 
ATOM      2  C   UNL     1      -3.016  -0.110   1.403  0.00  0.00    +0.000 A 
ATOM      3  C   UNL     1      -3.883  -0.049   2.612  0.00  0.00    +0.000 C 
ATOM      4  N   UNL     1      -1.686   0.008   1.457  0.00  0.00    +0.000 NA
ATOM      5  C   UNL     1      -1.163  -0.085   0.222  0.00  0.00    +0.000 A 
ATOM      6  C   UNL     1      -2.224  -0.269  -0.637  0.00  0.00    +0.000 A 
ATOM      7  C   UNL     1      -2.225  -0.432  -2.113  0.00  0.00    +0.000 C 
ENDROOT
BRANCH   1   9
ATOM      8  C   UNL     1      -5.554   0.764  -0.732  0.00  0.00    +0.000 C 
ATOM      9  C   UNL     1      -4.771  -0.452  -0.358  0.00  0.00    +0.000 C 
ATOM     10  O   UNL     1      -5.333  -1.567  -0.466  0.00  0.00    +0.000 OA
ENDBRANCH   1   9
BRANCH   5  11
ATOM     11  C   UNL     1       0.244  -0.010  -0.175  0.00  0.00    +0.000 C 
ATOM     12  O   UNL     1       0.564  -0.117  -1.383  0.00  0.00    +0.000 OA
ATOM     13  N   UNL     1       1.295   0.181   0.762  0.00  0.00    +0.000 NA
BRANCH  13  14
ATOM     14  C   UNL     1       2.652   0.249   0.337  0.00  0.00    +0.000 A 
ATOM     15  C   UNL     1       3.644   0.436   1.278  0.00  0.00    +0.000 A 
ATOM     16  C   UNL     1       4.988   0.509   0.916  0.00  0.00    +0.000 A 
ATOM     17  C   UNL     1       5.378   0.396  -0.401  0.00  0.00    +0.000 A 
ATOM     18 CL   UNL     1       7.073   0.486  -0.873  0.00  0.00    +0.000 Cl
ATOM     19  C   UNL     1       4.378   0.209  -1.332  0.00  0.00    +0.000 A 
ATOM     20  C   UNL     1       3.041   0.136  -0.982  0.00  0.00    +0.000 A 
ENDBRANCH  13  14
ENDBRANCH   5  11
TORSDOF 3
