REMARK  Name = 
REMARK  4 active torsions:
REMARK  status: ('A' for Active; 'I' for Inactive)
REMARK    1  A    between atoms: C_2  and  N_3
REMARK    2  A    between atoms: C_6  and  C_7
REMARK    3  A    between atoms: C_12  and  O_13
REMARK    4  A    between atoms: C_15  and  O_16
REMARK                            x       y       z     vdW  Elec       q    Type
REMARK                         _______ _______ _______ _____ _____    ______ ____
ROOT
ATOM      1  C   UNL     1      -0.044  -1.788   0.251  0.00  0.00    +0.000 A 
ATOM      2  C   UNL     1      -0.858  -2.873   0.471  0.00  0.00    +0.000 A 
ATOM      3  N   UNL     1      -2.067  -2.420   0.889  0.00  0.00    +0.000 NA
ATOM      4  C   UNL     1      -2.045  -1.077   0.943  0.00  0.00    +0.000 A 
ATOM      5  C   UNL     1      -3.001  -0.143   1.300  0.00  0.00    +0.000 A 
ATOM      6  C   UNL     1      -2.674   1.189   1.252  0.00  0.00    +0.000 A 
ATOM      7  C   UNL     1      -1.424   1.625   0.860  0.00  0.00    +0.000 A 
ATOM      8  C   UNL     1      -0.479   0.685   0.506  0.00  0.00    +0.000 A 
ATOM      9  C   UNL     1      -0.790  -0.672   0.547  0.00  0.00    +0.000 A 
ENDROOT
BRANCH   1  13
ATOM     10  N   UNL     1       4.228   0.301  -1.062  0.00  0.00    +0.000 NA
ATOM     11  C   UNL     1       3.304  -0.784  -0.806  0.00  0.00    +0.000 A 
ATOM     12  N   UNL     1       2.053  -0.721  -0.391  0.00  0.00    +0.000 NA
ATOM     13  C   UNL     1       1.375  -1.820  -0.217  0.00  0.00    +0.000 A 
ATOM     14  C   UNL     1       2.030  -3.003  -0.486  0.00  0.00    +0.000 A 
ATOM     15  S   UNL     1       3.569  -2.458  -0.969  0.00  0.00    +0.000 S 
BRANCH  10  17
ATOM     16  C   UNL     1       2.553   1.971  -1.709  0.00  0.00    +0.000 C 
ATOM     17  C   UNL     1       3.745   1.639  -0.842  0.00  0.00    +0.000 C 
ENDBRANCH  10  17
ENDBRANCH   1  13
BRANCH   6  18
ATOM     18  O   UNL     1      -3.605   2.176   1.603  0.00  0.00    +0.000 OA
ATOM     19  C   UNL     1      -4.910   1.790   2.016  0.00  0.00    +0.000 C 
ENDBRANCH   6  18
BRANCH   7  20
ATOM     20  O   UNL     1      -1.125   2.990   0.823  0.00  0.00    +0.000 OA
ATOM     21  C   UNL     1       0.166   3.393   0.416  0.00  0.00    +0.000 C 
ENDBRANCH   7  20
TORSDOF 4
