REMARK  Name = 
REMARK  2 active torsions:
REMARK  status: ('A' for Active; 'I' for Inactive)
REMARK    1  A    between atoms: C_2  and  C_3
REMARK    2  A    between atoms: C_3  and  C_4
REMARK                            x       y       z     vdW  Elec       q    Type
REMARK                         _______ _______ _______ _____ _____    ______ ____
ROOT
ATOM      1  O   UNL     1       0.915   0.541   0.482  0.00  0.00    +0.000 OA
ATOM      2  C   UNL     1       1.132  -0.663   0.192  0.00  0.00    +0.000 C 
ATOM      3  N   UNL     1       0.030  -1.447  -0.241  0.00  0.00    +0.000 NA
ATOM      4  C   UNL     1      -1.268  -0.821  -0.324  0.00  0.00    +0.000 A 
ATOM      5  N   UNL     1      -2.420  -1.314  -0.687  0.00  0.00    +0.000 NA
ATOM      6  C   UNL     1      -3.491  -0.579  -0.695  0.00  0.00    +0.000 A 
ATOM      7  C   UNL     1      -4.782  -0.991  -1.062  0.00  0.00    +0.000 A 
ATOM      8  C   UNL     1      -5.827  -0.135  -1.032  0.00  0.00    +0.000 A 
ATOM      9  C   UNL     1      -5.727   1.173  -0.651  0.00  0.00    +0.000 A 
ATOM     10  C   UNL     1      -4.456   1.607  -0.281  0.00  0.00    +0.000 A 
ATOM     11  C   UNL     1      -3.363   0.729  -0.308  0.00  0.00    +0.000 A 
ATOM     12  S   UNL     1      -1.685   0.810   0.045  0.00  0.00    +0.000 S 
ENDROOT
BRANCH   2  13
ATOM     13  C   UNL     1       2.487  -1.269   0.292  0.00  0.00    +0.000 C 
BRANCH  13  14
ATOM     14  C   UNL     1       3.500  -0.281   0.764  0.00  0.00    +0.000 C 
ATOM     15  C   UNL     1       3.584   0.899  -0.203  0.00  0.00    +0.000 C 
ATOM     16  C   UNL     1       4.995   1.429  -0.308  0.00  0.00    +0.000 C 
ATOM     17  C   UNL     1       5.617   1.355   1.086  0.00  0.00    +0.000 C 
ATOM     18  C   UNL     1       5.910  -0.096   1.448  0.00  0.00    +0.000 C 
ATOM     19  C   UNL     1       4.850  -0.947   0.805  0.00  0.00    +0.000 C 
ENDBRANCH  13  14
ENDBRANCH   2  13
TORSDOF 2
