REMARK  Name = 
REMARK  2 active torsions:
REMARK  status: ('A' for Active; 'I' for Inactive)
REMARK    1  A    between atoms: C_9  and  N_10
REMARK    2  A    between atoms: N_10  and  C_11
REMARK                            x       y       z     vdW  Elec       q    Type
REMARK                         _______ _______ _______ _____ _____    ______ ____
ROOT
ATOM      1  C   UNL     1      -2.534  -4.251   0.521  0.00  0.00    +0.000 C 
ATOM      2  C   UNL     1      -2.665  -2.792   0.343  0.00  0.00    +0.000 A 
ATOM      3  C   UNL     1      -3.891  -2.209   0.240  0.00  0.00    +0.000 A 
ATOM      4  C   UNL     1      -4.027  -0.832   0.072  0.00  0.00    +0.000 A 
ATOM      5  C   UNL     1      -2.869  -0.082   0.014  0.00  0.00    +0.000 A 
ATOM      6  N   UNL     1      -2.986   1.252  -0.149  0.00  0.00    +0.000 NA
ATOM      7  C   UNL     1      -1.908   2.047  -0.214  0.00  0.00    +0.000 A 
ATOM      8  C   UNL     1      -0.650   1.492  -0.114  0.00  0.00    +0.000 A 
ATOM      9  C   UNL     1      -0.438   0.140   0.053  0.00  0.00    +0.000 A 
ATOM     10  C   UNL     1      -1.617  -0.631   0.113  0.00  0.00    +0.000 A 
ATOM     11  C   UNL     1      -1.526  -1.994   0.279  0.00  0.00    +0.000 A 
ATOM     12  C   UNL     1       0.309   2.612  -0.228  0.00  0.00    +0.000 C 
ATOM     13  C   UNL     1      -0.480   3.780   0.319  0.00  0.00    +0.000 C 
ATOM     14  C   UNL     1      -1.823   3.529  -0.383  0.00  0.00    +0.000 C 
ENDROOT
BRANCH   9  15
ATOM     15  N   UNL     1       0.763  -0.517   0.164  0.00  0.00    +0.000 NA
BRANCH  15  16
ATOM     16  C   UNL     1       2.089  -0.162   0.159  0.00  0.00    +0.000 A 
ATOM     17  C   UNL     1       2.639   1.091   0.026  0.00  0.00    +0.000 A 
ATOM     18  C   UNL     1       3.985   1.359   0.031  0.00  0.00    +0.000 A 
ATOM     19  C   UNL     1       4.878   0.322   0.178  0.00  0.00    +0.000 A 
ATOM     20  C   UNL     1       4.392  -0.957   0.316  0.00  0.00    +0.000 A 
ATOM     21  O   UNL     1       5.320  -2.005   0.466  0.00  0.00    +0.000 OA
ATOM     22  C   UNL     1       3.040  -1.193   0.307  0.00  0.00    +0.000 A 
ENDBRANCH  15  16
ENDBRANCH   9  15
TORSDOF 2
