REMARK  Name = 
REMARK  2 active torsions:
REMARK  status: ('A' for Active; 'I' for Inactive)
REMARK    1  A    between atoms: C_10  and  C_11
REMARK    2  A    between atoms: N_13  and  C_14
REMARK                            x       y       z     vdW  Elec       q    Type
REMARK                         _______ _______ _______ _____ _____    ______ ____
ROOT
ATOM      1  C   UNL     1      -4.805   1.709  -0.491  0.00  0.00    +0.000 C 
ATOM      2  C   UNL     1      -4.106   0.310  -1.047  0.00  0.00    +0.000 C 
ATOM      3  C   UNL     1      -2.621   0.972  -1.120  0.00  0.00    +0.000 C 
ATOM      4  C   UNL     1      -1.918   0.873   0.167  0.00  0.00    +0.000 C 
ATOM      5  C   UNL     1      -1.659  -0.597   0.328  0.00  0.00    +0.000 A 
ATOM      6  C   UNL     1      -2.853  -1.252   0.478  0.00  0.00    +0.000 A 
ATOM      7  S   UNL     1      -2.381  -2.878   0.642  0.00  0.00    +0.000 S 
ATOM      8  C   UNL     1      -0.690  -2.688   0.517  0.00  0.00    +0.000 A 
ATOM      9  N   UNL     1       0.316  -3.700   0.577  0.00  0.00    +0.000 NA
ATOM     10  C   UNL     1      -0.545  -1.332   0.348  0.00  0.00    +0.000 A 
ATOM     11  C   UNL     1      -4.037  -0.355   0.445  0.00  0.00    +0.000 C 
ENDROOT
BRANCH  10  12
ATOM     12  C   UNL     1       0.812  -0.742   0.197  0.00  0.00    +0.000 C 
ATOM     13  O   UNL     1       1.850  -1.441   0.217  0.00  0.00    +0.000 OA
ATOM     14  N   UNL     1       1.006   0.655   0.020  0.00  0.00    +0.000 NA
BRANCH  14  15
ATOM     15  C   UNL     1       2.314   1.206  -0.124  0.00  0.00    +0.000 A 
ATOM     16  C   UNL     1       3.437   0.410  -0.098  0.00  0.00    +0.000 A 
ATOM     17  C   UNL     1       4.703   0.930  -0.235  0.00  0.00    +0.000 A 
ATOM     18  C   UNL     1       4.900   2.285  -0.407  0.00  0.00    +0.000 A 
ATOM     19  C   UNL     1       3.772   3.078  -0.433  0.00  0.00    +0.000 A 
ATOM     20  C   UNL     1       2.505   2.557  -0.295  0.00  0.00    +0.000 A 
ENDBRANCH  14  15
ENDBRANCH  10  12
TORSDOF 2
