REMARK  Name = 
REMARK  4 active torsions:
REMARK  status: ('A' for Active; 'I' for Inactive)
REMARK    1  A    between atoms: C_2  and  C_3
REMARK    2  A    between atoms: C_7  and  N_8
REMARK    3  A    between atoms: C_9  and  C_11
REMARK    4  A    between atoms: C_18  and  C_19
REMARK                            x       y       z     vdW  Elec       q    Type
REMARK                         _______ _______ _______ _____ _____    ______ ____
ROOT
ATOM      1  C   UNL     1      -3.049  -0.924  -0.188  0.00  0.00    +0.000 A 
ATOM      2  C   UNL     1      -3.148  -1.007   1.160  0.00  0.00    +0.000 A 
ATOM      3  C   UNL     1      -4.384  -1.391   1.956  0.00  0.00    +0.000 C 
ATOM      4  S   UNL     1      -1.626  -0.598   1.703  0.00  0.00    +0.000 S 
ATOM      5  C   UNL     1      -0.826  -0.307   0.140  0.00  0.00    +0.000 A 
ATOM      6  C   UNL     1      -1.850  -0.562  -0.724  0.00  0.00    +0.000 A 
ENDROOT
BRANCH   5   7
ATOM      7  N   UNL     1       0.489   0.066   0.120  0.00  0.00    +0.000 NA
ATOM      8  C   UNL     1       1.593   0.409  -0.509  0.00  0.00    +0.000 C 
ATOM      9  O   UNL     1       1.579   0.465  -1.756  0.00  0.00    +0.000 OA
BRANCH   8  10
ATOM     10  C   UNL     1       2.866   0.734   0.214  0.00  0.00    +0.000 A 
ATOM     11  C   UNL     1       3.956   1.085  -0.546  0.00  0.00    +0.000 A 
ATOM     12  C   UNL     1       5.129   1.383   0.140  0.00  0.00    +0.000 A 
ATOM     13  C   UNL     1       5.208   1.333   1.520  0.00  0.00    +0.000 A 
ATOM     14  C   UNL     1       4.099   0.979   2.259  0.00  0.00    +0.000 A 
ATOM     15  C   UNL     1       2.945   0.685   1.584  0.00  0.00    +0.000 A 
ATOM     16  F   UNL     1       1.796   0.324   2.235  0.00  0.00    +0.000 F 
ENDBRANCH   8  10
ENDBRANCH   5   7
BRANCH   6  17
ATOM     17  C   UNL     1      -1.699  -0.465  -2.209  0.00  0.00    +0.000 C 
ATOM     18  N   UNL     1      -2.844  -0.750  -3.056  0.00  0.00    +0.000 NA
ATOM     19  O   UNL     1      -0.689  -0.164  -2.813  0.00  0.00    +0.000 OA
ENDBRANCH   6  17
BRANCH   1  21
ATOM     20  C   UNL     1      -5.238  -0.048  -0.920  0.00  0.00    +0.000 C 
ATOM     21  C   UNL     1      -4.306  -1.245  -1.024  0.00  0.00    +0.000 C 
ENDBRANCH   1  21
TORSDOF 4
