REMARK  Name = 
REMARK  3 active torsions:
REMARK  status: ('A' for Active; 'I' for Inactive)
REMARK    1  A    between atoms: C_2  and  O_5
REMARK    2  A    between atoms: O_5  and  C_6
REMARK    3  A    between atoms: C_12  and  C_13
REMARK                            x       y       z     vdW  Elec       q    Type
REMARK                         _______ _______ _______ _____ _____    ______ ____
ROOT
ATOM      1  C   UNL     1       1.398  -0.360   0.797  0.00  0.00    +0.000 C 
ATOM      2  O   UNL     1       2.113   0.155   1.728  0.00  0.00    +0.000 OA
ATOM      3  N   UNL     1       0.707  -1.526   0.958  0.00  0.00    +0.000 N 
ATOM      4  C   UNL     1       0.601  -2.383   2.063  0.00  0.00    +0.000 C 
ATOM      5  C   UNL     1      -0.274  -3.549   1.627  0.00  0.00    +0.000 C 
ATOM      6  C   UNL     1      -1.277  -2.828   0.783  0.00  0.00    +0.000 C 
ATOM      7  C   UNL     1      -0.142  -2.109  -0.203  0.00  0.00    +0.000 C 
ENDROOT
BRANCH   7   8
ATOM      8  C   UNL     1      -1.033  -0.781  -0.458  0.00  0.00    +0.000 A 
ATOM      9  C   UNL     1      -1.205  -0.410  -1.763  0.00  0.00    +0.000 A 
ATOM     10  C   UNL     1      -1.972   0.734  -1.965  0.00  0.00    +0.000 A 
ATOM     11  C   UNL     1      -2.512   1.430  -0.906  0.00  0.00    +0.000 A 
ATOM     12  N   UNL     1      -3.303   2.615  -1.169  0.00  0.00    +0.000 NA
ATOM     13  C   UNL     1      -2.297   0.999   0.381  0.00  0.00    +0.000 A 
ATOM     14  C   UNL     1      -1.541  -0.131   0.590  0.00  0.00    +0.000 A 
ENDBRANCH   7   8
BRANCH   1  15
ATOM     15  O   UNL     1       1.405   0.391  -0.380  0.00  0.00    +0.000 OA
BRANCH  15  17
ATOM     16  C   UNL     1       1.978   2.211  -1.870  0.00  0.00    +0.000 C 
ATOM     17  C   UNL     1       2.134   1.594  -0.509  0.00  0.00    +0.000 C 
ATOM     18  C   UNL     1       1.605   2.552   0.561  0.00  0.00    +0.000 C 
ATOM     19  C   UNL     1       3.615   1.394  -0.265  0.00  0.00    +0.000 C 
ENDBRANCH  15  17
ENDBRANCH   1  15
TORSDOF 3
