REMARK  Name = 
REMARK  3 active torsions:
REMARK  status: ('A' for Active; 'I' for Inactive)
REMARK    1  A    between atoms: C_2  and  C_13
REMARK    2  A    between atoms: N_3  and  N_4
REMARK    3  A    between atoms: C_5  and  C_6
REMARK                            x       y       z     vdW  Elec       q    Type
REMARK                         _______ _______ _______ _____ _____    ______ ____
ROOT
ATOM      1  O   UNL     1       1.176   1.123  -1.315  0.00  0.00    +0.000 OA
ATOM      2  C   UNL     1       1.811   0.350  -0.566  0.00  0.00    +0.000 C 
ATOM      3  N   UNL     1       1.128  -0.373   0.442  0.00  0.00    +0.000 NA
ENDROOT
BRANCH   2   4
ATOM      4  C   UNL     1       3.270   0.190  -0.730  0.00  0.00    +0.000 C 
ATOM      5  C   UNL     1       3.960   0.604   0.567  0.00  0.00    +0.000 C 
ATOM      6  C   UNL     1       5.451   0.381   0.459  0.00  0.00    +0.000 C 
ATOM      7  C   UNL     1       5.800  -1.023   0.068  0.00  0.00    +0.000 C 
ATOM      8  C   UNL     1       5.048  -1.530  -1.119  0.00  0.00    +0.000 C 
ATOM      9  C   UNL     1       3.562  -1.258  -1.028  0.00  0.00    +0.000 C 
ENDBRANCH   2   4
BRANCH   3  10
ATOM     10  N   UNL     1      -0.251  -0.257   0.637  0.00  0.00    +0.000 NA
ATOM     11  C   UNL     1      -1.082   0.047  -0.300  0.00  0.00    +0.000 C 
BRANCH  11  12
ATOM     12  C   UNL     1      -2.510   0.138   0.038  0.00  0.00    +0.000 A 
ATOM     13  C   UNL     1      -2.954  -0.095   1.323  0.00  0.00    +0.000 A 
ATOM     14  C   UNL     1      -4.296  -0.009   1.638  0.00  0.00    +0.000 A 
ATOM     15  C   UNL     1      -5.250   0.312   0.685  0.00  0.00    +0.000 A 
ATOM     16  O   UNL     1      -6.589   0.398   0.997  0.00  0.00    +0.000 OA
ATOM     17  C   UNL     1      -4.809   0.547  -0.606  0.00  0.00    +0.000 A 
ATOM     18  C   UNL     1      -3.464   0.457  -0.904  0.00  0.00    +0.000 A 
ENDBRANCH  11  12
ENDBRANCH   3  10
TORSDOF 3
