REMARK  Name = 
REMARK  4 active torsions:
REMARK  status: ('A' for Active; 'I' for Inactive)
REMARK    1  A    between atoms: C_2  and  O_3
REMARK    2  A    between atoms: O_3  and  C_4
REMARK    3  A    between atoms: C_4  and  C_6
REMARK    4  A    between atoms: C_7  and  C_8
REMARK                            x       y       z     vdW  Elec       q    Type
REMARK                         _______ _______ _______ _____ _____    ______ ____
ROOT
ATOM      1  C   UNL     1      -1.879  -0.696  -0.006  0.00  0.00    +0.000 A 
ATOM      2  C   UNL     1      -0.785  -1.492  -0.129  0.00  0.00    +0.000 A 
ATOM      3  C   UNL     1      -0.877  -2.740   0.330  0.00  0.00    +0.000 A 
ATOM      4  S   UNL     1      -2.472  -2.874   0.950  0.00  0.00    +0.000 S 
ATOM      5  C   UNL     1      -2.964  -1.292   0.588  0.00  0.00    +0.000 A 
ATOM      6  N   UNL     1      -4.265  -0.723   0.863  0.00  0.00    +0.000 NA
ENDROOT
BRANCH   2   7
ATOM      7  C   UNL     1       0.540  -0.848  -0.828  0.00  0.00    +0.000 C 
ATOM      8  C   UNL     1       1.548  -2.157  -0.644  0.00  0.00    +0.000 C 
ATOM      9  O   UNL     1       2.828  -1.610  -0.852  0.00  0.00    +0.000 OA
ATOM     10  C   UNL     1       3.237  -0.405  -0.332  0.00  0.00    +0.000 A 
ATOM     11  C   UNL     1       4.491   0.127  -0.472  0.00  0.00    +0.000 A 
ATOM     12  C   UNL     1       4.812   1.353   0.090  0.00  0.00    +0.000 A 
ATOM     13  C   UNL     1       3.893   2.090   0.811  0.00  0.00    +0.000 A 
ATOM     14  C   UNL     1       2.616   1.538   0.949  0.00  0.00    +0.000 A 
ATOM     15  C   UNL     1       2.316   0.328   0.389  0.00  0.00    +0.000 A 
ATOM     16  O   UNL     1       1.035  -0.214   0.534  0.00  0.00    +0.000 OA
ENDBRANCH   2   7
BRANCH   1  17
ATOM     17  C   UNL     1      -1.981   0.718  -0.449  0.00  0.00    +0.000 C 
ATOM     18  O   UNL     1      -1.043   1.339  -0.999  0.00  0.00    +0.000 OA
BRANCH  17  19
ATOM     19  O   UNL     1      -3.138   1.465  -0.285  0.00  0.00    +0.000 OA
BRANCH  19  21
ATOM     20  C   UNL     1      -4.666   3.280  -0.351  0.00  0.00    +0.000 C 
ATOM     21  C   UNL     1      -3.247   2.813  -0.704  0.00  0.00    +0.000 C 
ENDBRANCH  19  21
ENDBRANCH  17  19
ENDBRANCH   1  17
TORSDOF 4
