REMARK  Name = 
REMARK  4 active torsions:
REMARK  status: ('A' for Active; 'I' for Inactive)
REMARK    1  A    between atoms: C_5  and  S_6
REMARK    2  A    between atoms: S_6  and  C_7
REMARK    3  A    between atoms: C_7  and  C_8
REMARK    4  A    between atoms: N_10  and  C_11
REMARK                            x       y       z     vdW  Elec       q    Type
REMARK                         _______ _______ _______ _____ _____    ______ ____
ROOT
ATOM      1  C   UNL     1       0.465  -2.171  -0.395  0.00  0.00    +0.000 C 
ATOM      2  O   UNL     1       1.563  -2.765  -0.177  0.00  0.00    +0.000 OA
ATOM      3  N   UNL     1       0.499  -0.777  -0.595  0.00  0.00    +0.000 NA
ENDROOT
BRANCH   3   4
ATOM      4  C   UNL     1       1.727  -0.044  -0.559  0.00  0.00    +0.000 A 
ATOM      5  C   UNL     1       2.947  -0.641  -0.357  0.00  0.00    +0.000 A 
ATOM      6  C   UNL     1       4.106   0.098  -0.335  0.00  0.00    +0.000 A 
ATOM      7  C   UNL     1       5.464  -0.451  -0.130  0.00  0.00    +0.000 C 
ATOM      8  C   UNL     1       4.014   1.478  -0.524  0.00  0.00    +0.000 A 
ATOM      9  C   UNL     1       2.790   2.065  -0.725  0.00  0.00    +0.000 A 
ATOM     10  C   UNL     1       1.647   1.312  -0.744  0.00  0.00    +0.000 A 
ATOM     11  O   UNL     1       0.429   1.937  -0.950  0.00  0.00    +0.000 OA
ENDBRANCH   3   4
BRANCH   1  12
ATOM     12  C   UNL     1      -0.766  -3.009  -0.419  0.00  0.00    +0.000 C 
BRANCH  12  13
ATOM     13  S   UNL     1      -1.893  -2.497   0.910  0.00  0.00    +0.000 S 
BRANCH  13  18
ATOM     14  C   UNL     1      -4.271   3.027   0.049  0.00  0.00    +0.000 C 
ATOM     15  C   UNL     1      -3.696   1.675   0.280  0.00  0.00    +0.000 A 
ATOM     16  C   UNL     1      -3.989   0.926   1.385  0.00  0.00    +0.000 A 
ATOM     17  C   UNL     1      -3.411  -0.332   1.530  0.00  0.00    +0.000 A 
ATOM     18  C   UNL     1      -2.549  -0.865   0.605  0.00  0.00    +0.000 A 
ATOM     19  C   UNL     1      -2.252  -0.109  -0.510  0.00  0.00    +0.000 A 
ATOM     20  C   UNL     1      -2.825   1.143  -0.658  0.00  0.00    +0.000 A 
ENDBRANCH  13  18
ENDBRANCH  12  13
ENDBRANCH   1  12
TORSDOF 4
