REMARK  Name = 
REMARK  6 active torsions:
REMARK  status: ('A' for Active; 'I' for Inactive)
REMARK    1  A    between atoms: C_2  and  C_3
REMARK    2  A    between atoms: C_3  and  C_4
REMARK    3  A    between atoms: C_4  and  C_5
REMARK    4  A    between atoms: C_5  and  C_6
REMARK    5  A    between atoms: C_6  and  C_7
REMARK    6  A    between atoms: C_11  and  C_12
REMARK                            x       y       z     vdW  Elec       q    Type
REMARK                         _______ _______ _______ _____ _____    ______ ____
ROOT
ATOM      1  C   UNL     1       0.735  -0.636  -1.714  0.00  0.00    +0.000 A 
ATOM      2  C   UNL     1       1.372  -1.701  -2.251  0.00  0.00    +0.000 A 
ATOM      3  C   UNL     1       0.905  -2.938  -1.987  0.00  0.00    +0.000 A 
ATOM      4  S   UNL     1      -0.429  -2.615  -0.985  0.00  0.00    +0.000 S 
ATOM      5  C   UNL     1      -0.344  -0.879  -0.941  0.00  0.00    +0.000 A 
ENDROOT
BRANCH   5   6
ATOM      6  C   UNL     1      -1.296  -0.066  -0.196  0.00  0.00    +0.000 A 
ATOM      7  C   UNL     1      -2.134  -0.670   0.739  0.00  0.00    +0.000 A 
ATOM      8  N   UNL     1      -3.066  -0.008   1.419  0.00  0.00    +0.000 NA
ATOM      9  C   UNL     1      -3.240   1.310   1.224  0.00  0.00    +0.000 A 
ATOM     10  O   UNL     1      -4.119   1.961   1.859  0.00  0.00    +0.000 OA
ATOM     11  N   UNL     1      -2.451   1.907   0.336  0.00  0.00    +0.000 NA
ATOM     12  C   UNL     1      -1.494   1.273  -0.375  0.00  0.00    +0.000 A 
ATOM     13  O   UNL     1      -0.839   1.956  -1.169  0.00  0.00    +0.000 OA
ENDBRANCH   5   6
BRANCH   1  14
ATOM     14  C   UNL     1       1.340   0.740  -1.922  0.00  0.00    +0.000 C 
BRANCH  14  15
ATOM     15  C   UNL     1       2.328   1.081  -0.842  0.00  0.00    +0.000 C 
BRANCH  15  16
ATOM     16  C   UNL     1       1.699   1.040   0.495  0.00  0.00    +0.000 C 
BRANCH  16  17
ATOM     17  C   UNL     1       2.612   1.368   1.628  0.00  0.00    +0.000 C 
BRANCH  17  19
ATOM     18  C   UNL     1       4.633   0.889   2.935  0.00  0.00    +0.000 C 
ATOM     19  C   UNL     1       3.790   0.444   1.747  0.00  0.00    +0.000 C 
ENDBRANCH  17  19
ENDBRANCH  16  17
ENDBRANCH  15  16
ENDBRANCH  14  15
ENDBRANCH   1  14
TORSDOF 6
