REMARK  Name = 
REMARK  2 active torsions:
REMARK  status: ('A' for Active; 'I' for Inactive)
REMARK    1  A    between atoms: C_13  and  C_14
REMARK    2  A    between atoms: C_14  and  N_15
REMARK                            x       y       z     vdW  Elec       q    Type
REMARK                         _______ _______ _______ _____ _____    ______ ____
ROOT
ATOM      1  C   UNL     1      -2.870   0.164  -2.932  0.00  0.00    +0.000 C 
ATOM      2  N   UNL     1      -2.484   0.144  -1.537  0.00  0.00    +0.000 N 
ATOM      3  C   UNL     1      -1.237   0.002  -1.115  0.00  0.00    +0.000 A 
ATOM      4  C   UNL     1      -1.236   0.029   0.260  0.00  0.00    +0.000 A 
ATOM      5  C   UNL     1      -2.562   0.197   0.663  0.00  0.00    +0.000 A 
ATOM      6  C   UNL     1      -3.053   0.279   1.933  0.00  0.00    +0.000 A 
ATOM      7  C   UNL     1      -4.431   0.446   2.085  0.00  0.00    +0.000 A 
ATOM      8  C   UNL     1      -5.226   0.520   0.950  0.00  0.00    +0.000 A 
ATOM      9  C   UNL     1      -4.697   0.433  -0.340  0.00  0.00    +0.000 A 
ATOM     10  C   UNL     1      -3.312   0.265  -0.483  0.00  0.00    +0.000 A 
ATOM     11  C   UNL     1       0.008  -0.110   0.934  0.00  0.00    +0.000 C 
ATOM     12  O   UNL     1       0.055  -0.778   1.994  0.00  0.00    +0.000 OA
ATOM     13  C   UNL     1       1.344   0.508   0.469  0.00  0.00    +0.000 C 
ATOM     14  C   UNL     1       1.188   0.531  -1.117  0.00  0.00    +0.000 C 
ATOM     15  C   UNL     1       0.112  -0.178  -1.683  0.00  0.00    +0.000 C 
ENDROOT
BRANCH  13  16
ATOM     16  C   UNL     1       2.199  -0.875   0.497  0.00  0.00    +0.000 C 
BRANCH  16  17
ATOM     17  N   UNL     1       3.522  -0.477   0.078  0.00  0.00    +0.000 N 
ATOM     18  C   UNL     1       4.490  -0.057   0.925  0.00  0.00    +0.000 A 
ATOM     19  C   UNL     1       5.591   0.234   0.173  0.00  0.00    +0.000 A 
ATOM     20  N   UNL     1       5.299  -0.005  -1.111  0.00  0.00    +0.000 NA
ATOM     21  C   UNL     1       4.009  -0.448  -1.171  0.00  0.00    +0.000 A 
ATOM     22  N   UNL     1       3.292  -0.823  -2.345  0.00  0.00    +0.000 NA
ENDBRANCH  16  17
ENDBRANCH  13  16
TORSDOF 2
