REMARK  Name = 
REMARK  1 active torsions:
REMARK  status: ('A' for Active; 'I' for Inactive)
REMARK    1  A    between atoms: N_10  and  C_11
REMARK                            x       y       z     vdW  Elec       q    Type
REMARK                         _______ _______ _______ _____ _____    ______ ____
ROOT
ATOM      1  C   UNL     1      -3.253  -2.442  -0.865  0.00  0.00    +0.000 C 
ATOM      2  C   UNL     1      -3.120  -1.017  -0.505  0.00  0.00    +0.000 A 
ATOM      3  N   UNL     1      -4.215  -0.257  -0.401  0.00  0.00    +0.000 NA
ATOM      4  N   UNL     1      -4.107   1.022  -0.080  0.00  0.00    +0.000 NA
ATOM      5  C   UNL     1      -2.896   1.594   0.151  0.00  0.00    +0.000 A 
ATOM      6  C   UNL     1      -2.793   3.013   0.507  0.00  0.00    +0.000 C 
ATOM      7  C   UNL     1      -1.736   0.856   0.058  0.00  0.00    +0.000 A 
ATOM      8  C   UNL     1      -0.399   1.101   0.218  0.00  0.00    +0.000 A 
ATOM      9  C   UNL     1       0.208   2.394   0.581  0.00  0.00    +0.000 C 
ATOM     10  N   UNL     1       0.315  -0.031  -0.005  0.00  0.00    +0.000 N 
ATOM     11  C   UNL     1      -0.588  -0.980  -0.306  0.00  0.00    +0.000 A 
ATOM     12  C   UNL     1      -0.254  -2.397  -0.628  0.00  0.00    +0.000 C 
ATOM     13  C   UNL     1      -1.877  -0.484  -0.281  0.00  0.00    +0.000 A 
ENDROOT
BRANCH  10  14
ATOM     14  C   UNL     1       1.731  -0.165   0.068  0.00  0.00    +0.000 A 
ATOM     15  C   UNL     1       2.350  -0.300   1.311  0.00  0.00    +0.000 A 
ATOM     16  C   UNL     1       3.714  -0.430   1.403  0.00  0.00    +0.000 A 
ATOM     17  C   UNL     1       4.525  -0.434   0.290  0.00  0.00    +0.000 A 
ATOM     18  N   UNL     1       5.927  -0.573   0.460  0.00  0.00    +0.000 NA
ATOM     19  C   UNL     1       3.926  -0.301  -0.953  0.00  0.00    +0.000 A 
ATOM     20  C   UNL     1       2.544  -0.170  -1.025  0.00  0.00    +0.000 A 
ENDBRANCH  10  14
TORSDOF 1
