REMARK  Name = 
REMARK  3 active torsions:
REMARK  status: ('A' for Active; 'I' for Inactive)
REMARK    1  A    between atoms: O_2  and  C_3
REMARK    2  A    between atoms: C_7  and  C_8
REMARK    3  A    between atoms: C_8  and  N_9
REMARK                            x       y       z     vdW  Elec       q    Type
REMARK                         _______ _______ _______ _____ _____    ______ ____
ROOT
ATOM      1  N   UNL     1      -0.120  -0.635  -0.544  0.00  0.00    +0.000 NA
ATOM      2  C   UNL     1       1.198  -0.359  -0.369  0.00  0.00    +0.000 A 
ATOM      3  N   UNL     1       1.771   0.893  -0.496  0.00  0.00    +0.000 NA
ATOM      4  C   UNL     1       3.057   0.862  -0.210  0.00  0.00    +0.000 A 
ATOM      5  C   UNL     1       4.071   1.866  -0.172  0.00  0.00    +0.000 A 
ATOM      6  C   UNL     1       5.308   1.490   0.181  0.00  0.00    +0.000 A 
ATOM      7  C   UNL     1       5.620   0.204   0.503  0.00  0.00    +0.000 A 
ATOM      8  C   UNL     1       4.651  -0.797   0.472  0.00  0.00    +0.000 A 
ATOM      9  C   UNL     1       3.348  -0.445   0.105  0.00  0.00    +0.000 A 
ATOM     10  N   UNL     1       2.193  -1.156  -0.003  0.00  0.00    +0.000 N 
ATOM     11  C   UNL     1       2.131  -2.607   0.261  0.00  0.00    +0.000 C 
ENDROOT
BRANCH   1  12
ATOM     12  C   UNL     1      -1.000  -1.706  -0.311  0.00  0.00    +0.000 C 
BRANCH  12  17
ATOM     13  C   UNL     1      -3.796   0.702   0.537  0.00  0.00    +0.000 A 
ATOM     14  C   UNL     1      -4.765   0.336  -0.343  0.00  0.00    +0.000 A 
ATOM     15  C   UNL     1      -4.599  -0.678  -1.272  0.00  0.00    +0.000 A 
ATOM     16  C   UNL     1      -3.366  -1.370  -1.302  0.00  0.00    +0.000 A 
ATOM     17  C   UNL     1      -2.384  -1.041  -0.454  0.00  0.00    +0.000 A 
ATOM     18  C   UNL     1      -2.610   0.007   0.468  0.00  0.00    +0.000 A 
ATOM     19  O   UNL     1      -1.536   0.293   1.311  0.00  0.00    +0.000 OA
BRANCH  13  21
ATOM     20  C   UNL     1      -5.192   2.419   1.490  0.00  0.00    +0.000 C 
ATOM     21  O   UNL     1      -3.980   1.723   1.462  0.00  0.00    +0.000 OA
ENDBRANCH  13  21
ENDBRANCH  12  17
ENDBRANCH   1  12
TORSDOF 3
