REMARK  Name = 
REMARK  3 active torsions:
REMARK  status: ('A' for Active; 'I' for Inactive)
REMARK    1  A    between atoms: O_2  and  C_3
REMARK    2  A    between atoms: C_7  and  N_8
REMARK    3  A    between atoms: C_16  and  C_17
REMARK                            x       y       z     vdW  Elec       q    Type
REMARK                         _______ _______ _______ _____ _____    ______ ____
ROOT
ATOM      1  N   UNL     1      -0.107   0.630  -1.176  0.00  0.00    +0.000 NA
ATOM      2  C   UNL     1      -0.841   0.194  -0.039  0.00  0.00    +0.000 A 
ATOM      3  N   UNL     1      -0.221  -0.449   0.957  0.00  0.00    +0.000 NA
ATOM      4  C   UNL     1      -0.865  -0.886   2.060  0.00  0.00    +0.000 A 
ATOM      5  C   UNL     1      -0.094  -1.589   3.111  0.00  0.00    +0.000 C 
ATOM      6  C   UNL     1      -2.215  -0.641   2.127  0.00  0.00    +0.000 A 
ATOM      7  C   UNL     1      -2.905   0.017   1.132  0.00  0.00    +0.000 A 
ATOM      8  C   UNL     1      -4.378   0.247   1.277  0.00  0.00    +0.000 C 
ATOM      9  C   UNL     1      -2.203   0.438   0.036  0.00  0.00    +0.000 A 
ENDROOT
BRANCH   1  14
ATOM     10  C   UNL     1       3.318  -0.538  -0.289  0.00  0.00    +0.000 A 
ATOM     11  C   UNL     1       4.016  -0.101  -1.414  0.00  0.00    +0.000 A 
ATOM     12  C   UNL     1       3.388   0.556  -2.433  0.00  0.00    +0.000 A 
ATOM     13  C   UNL     1       2.014   0.801  -2.357  0.00  0.00    +0.000 A 
ATOM     14  C   UNL     1       1.292   0.384  -1.261  0.00  0.00    +0.000 A 
ATOM     15  C   UNL     1       1.969  -0.275  -0.257  0.00  0.00    +0.000 A 
BRANCH  10  17
ATOM     16  C   UNL     1       3.208  -1.619   1.845  0.00  0.00    +0.000 C 
ATOM     17  O   UNL     1       3.987  -1.208   0.738  0.00  0.00    +0.000 OA
ENDBRANCH  10  17
ENDBRANCH   1  14
BRANCH   9  18
ATOM     18  C   UNL     1      -2.875   1.134  -1.041  0.00  0.00    +0.000 C 
ATOM     19  N   UNL     1      -4.282   1.383  -0.957  0.00  0.00    +0.000 NA
ATOM     20  O   UNL     1      -2.206   1.522  -2.058  0.00  0.00    +0.000 OA
ENDBRANCH   9  18
TORSDOF 3
