REMARK  Name = 
REMARK  2 active torsions:
REMARK  status: ('A' for Active; 'I' for Inactive)
REMARK    1  A    between atoms: C_5  and  C_6
REMARK    2  A    between atoms: C_6  and  C_8
REMARK                            x       y       z     vdW  Elec       q    Type
REMARK                         _______ _______ _______ _____ _____    ______ ____
ROOT
ATOM      1  C   UNL     1       0.066   0.285  -0.397  0.00  0.00    +0.000 A 
ATOM      2  N   UNL     1      -0.186  -0.596   0.584  0.00  0.00    +0.000 NA
ATOM      3  N   UNL     1      -1.380  -0.940   1.008  0.00  0.00    +0.000 NA
ATOM      4  C   UNL     1      -2.456  -0.379   0.432  0.00  0.00    +0.000 A 
ATOM      5  C   UNL     1      -3.711  -0.741   0.882  0.00  0.00    +0.000 A 
ATOM      6  C   UNL     1      -3.871  -1.734   1.981  0.00  0.00    +0.000 C 
ATOM      7  C   UNL     1      -4.793  -0.145   0.271  0.00  0.00    +0.000 A 
ATOM      8  C   UNL     1      -4.635   0.788  -0.763  0.00  0.00    +0.000 A 
ATOM      9  C   UNL     1      -3.367   1.121  -1.182  0.00  0.00    +0.000 A 
ATOM     10  C   UNL     1      -3.144   2.118  -2.287  0.00  0.00    +0.000 C 
ATOM     11  C   UNL     1      -2.272   0.533  -0.579  0.00  0.00    +0.000 A 
ATOM     12  C   UNL     1      -1.001   0.883  -1.013  0.00  0.00    +0.000 A 
ATOM     13  N   UNL     1      -0.772   1.823  -2.058  0.00  0.00    +0.000 NA
ENDROOT
BRANCH   1  14
ATOM     14  C   UNL     1       1.420   0.583  -0.773  0.00  0.00    +0.000 C 
ATOM     15  O   UNL     1       1.627   1.432  -1.710  0.00  0.00    +0.000 OA
BRANCH  14  20
ATOM     16  C   UNL     1       6.071  -1.714   1.688  0.00  0.00    +0.000 C 
ATOM     17  C   UNL     1       4.861  -1.118   1.050  0.00  0.00    +0.000 A 
ATOM     18  C   UNL     1       4.917  -0.636  -0.235  0.00  0.00    +0.000 A 
ATOM     19  C   UNL     1       3.811  -0.074  -0.861  0.00  0.00    +0.000 A 
ATOM     20  C   UNL     1       2.611   0.010  -0.188  0.00  0.00    +0.000 A 
ATOM     21  C   UNL     1       2.549  -0.472   1.101  0.00  0.00    +0.000 A 
ATOM     22  C   UNL     1       3.653  -1.030   1.720  0.00  0.00    +0.000 A 
ENDBRANCH  14  20
ENDBRANCH   1  14
TORSDOF 2
