REMARK  Name = 
REMARK  3 active torsions:
REMARK  status: ('A' for Active; 'I' for Inactive)
REMARK    1  A    between atoms: O_2  and  C_3
REMARK    2  A    between atoms: N_13  and  N_14
REMARK    3  A    between atoms: C_15  and  S_17
REMARK                            x       y       z     vdW  Elec       q    Type
REMARK                         _______ _______ _______ _____ _____    ______ ____
ROOT
ATOM      1  C   UNL     1      -3.444   0.587  -0.109  0.00  0.00    +0.000 A 
ATOM      2  C   UNL     1      -2.520   1.580  -0.388  0.00  0.00    +0.000 A 
ATOM      3  C   UNL     1      -1.166   1.286  -0.364  0.00  0.00    +0.000 A 
ATOM      4  C   UNL     1      -0.783  -0.004  -0.059  0.00  0.00    +0.000 A 
ATOM      5  C   UNL     1      -1.685  -1.007   0.222  0.00  0.00    +0.000 A 
ATOM      6  C   UNL     1      -3.043  -0.699   0.195  0.00  0.00    +0.000 A 
ATOM      7  C   UNL     1      -1.166  -2.342   0.534  0.00  0.00    +0.000 C 
ATOM      8  C   UNL     1       0.008  -2.747  -0.315  0.00  0.00    +0.000 C 
ATOM      9  C   UNL     1       1.095  -1.703  -0.346  0.00  0.00    +0.000 C 
ATOM     10  C   UNL     1       0.631  -0.356  -0.023  0.00  0.00    +0.000 C 
ATOM     11  N   UNL     1       1.518   0.527   0.298  0.00  0.00    +0.000 NA
ENDROOT
BRANCH  11  12
ATOM     12  N   UNL     1       2.889   0.196   0.335  0.00  0.00    +0.000 NA
ATOM     13  C   UNL     1       3.696   1.152  -0.024  0.00  0.00    +0.000 C 
ATOM     14  N   UNL     1       3.198   2.433  -0.421  0.00  0.00    +0.000 NA
BRANCH  13  15
ATOM     15  S   UNL     1       5.470   0.938  -0.046  0.00  0.00    +0.000 S 
ATOM     16  C   UNL     1       5.897  -0.754   0.491  0.00  0.00    +0.000 C 
ENDBRANCH  13  15
ENDBRANCH  11  12
BRANCH   1  18
ATOM     17  C   UNL     1      -5.823   0.013   0.119  0.00  0.00    +0.000 C 
ATOM     18  O   UNL     1      -4.774   0.902  -0.139  0.00  0.00    +0.000 OA
ENDBRANCH   1  18
TORSDOF 3
