REMARK  Name = 
REMARK  4 active torsions:
REMARK  status: ('A' for Active; 'I' for Inactive)
REMARK    1  A    between atoms: C_2  and  C_3
REMARK    2  A    between atoms: C_3  and  C_5
REMARK    3  A    between atoms: C_8  and  C_9
REMARK    4  A    between atoms: C_15  and  C_16
REMARK                            x       y       z     vdW  Elec       q    Type
REMARK                         _______ _______ _______ _____ _____    ______ ____
ROOT
ATOM      1  C   UNL     1       2.481  -0.693  -0.372  0.00  0.00    +0.000 A 
ATOM      2  C   UNL     1       1.719  -0.931   0.712  0.00  0.00    +0.000 A 
ATOM      3  C   UNL     1       0.412  -0.491   0.752  0.00  0.00    +0.000 A 
ATOM      4  C   UNL     1      -0.096   0.187  -0.323  0.00  0.00    +0.000 A 
ATOM      5  C   UNL     1       0.674   0.444  -1.449  0.00  0.00    +0.000 A 
ATOM      6  C   UNL     1       1.986  -0.014  -1.453  0.00  0.00    +0.000 A 
ENDROOT
BRANCH   4   7
ATOM      7  C   UNL     1      -1.516   0.617  -0.250  0.00  0.00    +0.000 A 
ATOM      8  C   UNL     1      -1.788   1.934   0.005  0.00  0.00    +0.000 A 
ATOM      9  C   UNL     1      -0.847   3.087   0.234  0.00  0.00    +0.000 C 
ATOM     10  S   UNL     1      -3.484   1.980   0.014  0.00  0.00    +0.000 S 
ATOM     11  C   UNL     1      -3.814   0.336  -0.305  0.00  0.00    +0.000 A 
ATOM     12  N   UNL     1      -5.082  -0.343  -0.435  0.00  0.00    +0.000 NA
ATOM     13  C   UNL     1      -2.561  -0.211  -0.410  0.00  0.00    +0.000 A 
BRANCH  13  14
ATOM     14  C   UNL     1      -2.403  -1.646  -0.678  0.00  0.00    +0.000 C 
ATOM     15  N   UNL     1      -2.276  -2.797  -0.898  0.00  0.00    +0.000 NA
ENDBRANCH  13  14
ENDBRANCH   4   7
BRANCH   1  16
ATOM     16  C   UNL     1       3.979  -1.191  -0.458  0.00  0.00    +0.000 C 
ATOM     17  C   UNL     1       4.141  -1.623   1.111  0.00  0.00    +0.000 C 
BRANCH  16  19
ATOM     18  C   UNL     1       3.826   1.050   0.732  0.00  0.00    +0.000 C 
ATOM     19  C   UNL     1       4.650   0.306  -0.245  0.00  0.00    +0.000 C 
ENDBRANCH  16  19
ENDBRANCH   1  16
TORSDOF 4
