REMARK  Name = 
REMARK  4 active torsions:
REMARK  status: ('A' for Active; 'I' for Inactive)
REMARK    1  A    between atoms: C_2  and  O_3
REMARK    2  A    between atoms: O_3  and  C_4
REMARK    3  A    between atoms: C_7  and  C_8
REMARK    4  A    between atoms: C_15  and  C_16
REMARK                            x       y       z     vdW  Elec       q    Type
REMARK                         _______ _______ _______ _____ _____    ______ ____
ROOT
ATOM      1  C   UNL     1      -1.869   0.749  -0.124  0.00  0.00    +0.000 A 
ATOM      2  C   UNL     1      -1.003   1.799  -0.337  0.00  0.00    +0.000 A 
ATOM      3  C   UNL     1       0.366   1.622  -0.354  0.00  0.00    +0.000 A 
ATOM      4  C   UNL     1       0.946   0.383  -0.158  0.00  0.00    +0.000 A 
ATOM      5  C   UNL     1       0.065  -0.658   0.053  0.00  0.00    +0.000 A 
ATOM      6  C   UNL     1      -1.306  -0.497   0.073  0.00  0.00    +0.000 A 
ENDROOT
BRANCH   4   7
ATOM      7  C   UNL     1       2.391   0.186  -0.174  0.00  0.00    +0.000 A 
ATOM      8  C   UNL     1       3.032  -1.014   0.012  0.00  0.00    +0.000 A 
ATOM      9  C   UNL     1       4.379  -0.760  -0.079  0.00  0.00    +0.000 A 
ATOM     10  N   UNL     1       5.455  -1.694   0.046  0.00  0.00    +0.000 NA
ATOM     11  O   UNL     1       4.543   0.509  -0.305  0.00  0.00    +0.000 OA
ATOM     12  N   UNL     1       3.381   1.063  -0.361  0.00  0.00    +0.000 NA
ENDBRANCH   4   7
BRANCH   6  13
ATOM     13  C   UNL     1      -2.215  -1.660   0.306  0.00  0.00    +0.000 C 
ATOM     14  C   UNL     1      -1.347  -2.887   0.489  0.00  0.00    +0.000 C 
ATOM     15  C   UNL     1      -3.048  -1.881  -0.938  0.00  0.00    +0.000 C 
ATOM     16  C   UNL     1      -3.077  -1.397   1.516  0.00  0.00    +0.000 C 
ENDBRANCH   6  13
BRANCH   1  17
ATOM     17  O   UNL     1      -3.251   0.886  -0.100  0.00  0.00    +0.000 OA
BRANCH  17  19
ATOM     18  C   UNL     1      -3.541   3.150   0.724  0.00  0.00    +0.000 C 
ATOM     19  C   UNL     1      -3.902   2.101  -0.289  0.00  0.00    +0.000 C 
ENDBRANCH  17  19
ENDBRANCH   1  17
TORSDOF 4
