REMARK  Name = 
REMARK  2 active torsions:
REMARK  status: ('A' for Active; 'I' for Inactive)
REMARK    1  A    between atoms: C_2  and  C_3
REMARK    2  A    between atoms: C_3  and  C_4
REMARK                            x       y       z     vdW  Elec       q    Type
REMARK                         _______ _______ _______ _____ _____    ______ ____
ROOT
ATOM      1  C   UNL     1       2.582  -0.120   0.378  0.00  0.00    +0.000 A 
ATOM      2  C   UNL     1       2.268   1.213   0.255  0.00  0.00    +0.000 A 
ATOM      3  O   UNL     1       3.208   2.193   0.475  0.00  0.00    +0.000 OA
ATOM      4  C   UNL     1       0.984   1.620  -0.094  0.00  0.00    +0.000 A 
ATOM      5  C   UNL     1       0.020   0.672  -0.318  0.00  0.00    +0.000 A 
ATOM      6  C   UNL     1       0.294  -0.672  -0.206  0.00  0.00    +0.000 A 
ATOM      7  C   UNL     1       1.573  -1.037   0.140  0.00  0.00    +0.000 A 
ATOM      8  O   UNL     1       1.906  -2.391   0.267  0.00  0.00    +0.000 OA
ATOM      9  C   UNL     1      -0.599  -1.837  -0.412  0.00  0.00    +0.000 C 
ATOM     10  C   UNL     1      -1.846  -1.814   0.396  0.00  0.00    +0.000 C 
ATOM     11  C   UNL     1      -2.741  -0.663   0.155  0.00  0.00    +0.000 A 
ATOM     12  C   UNL     1      -4.036  -1.024   0.463  0.00  0.00    +0.000 A 
ATOM     13  C   UNL     1      -5.105  -0.147   0.335  0.00  0.00    +0.000 A 
ATOM     14  C   UNL     1      -4.854   1.145  -0.122  0.00  0.00    +0.000 A 
ATOM     15  C   UNL     1      -3.548   1.487  -0.425  0.00  0.00    +0.000 A 
ATOM     16  C   UNL     1      -2.496   0.616  -0.297  0.00  0.00    +0.000 A 
ATOM     17  O   UNL     1      -1.246   1.181  -0.666  0.00  0.00    +0.000 OA
ENDROOT
BRANCH   1  18
ATOM     18  C   UNL     1       3.969  -0.597   0.721  0.00  0.00    +0.000 C 
BRANCH  18  20
ATOM     19  C   UNL     1       4.868   0.783  -1.090  0.00  0.00    +0.000 C 
ATOM     20  C   UNL     1       4.797  -0.606  -0.510  0.00  0.00    +0.000 C 
ENDBRANCH  18  20
ENDBRANCH   1  18
TORSDOF 2
