REMARK  Name = 
REMARK  3 active torsions:
REMARK  status: ('A' for Active; 'I' for Inactive)
REMARK    1  A    between atoms: O_2  and  C_3
REMARK    2  A    between atoms: C_6  and  C_7
REMARK    3  A    between atoms: C_7  and  C_9
REMARK                            x       y       z     vdW  Elec       q    Type
REMARK                         _______ _______ _______ _____ _____    ______ ____
ROOT
ATOM      1  C   UNL     1      -1.168  -1.340  -0.183  0.00  0.00    +0.000 A 
ATOM      2  C   UNL     1      -2.161  -2.288  -0.388  0.00  0.00    +0.000 A 
ATOM      3  N   UNL     1      -2.069  -3.679  -0.726  0.00  0.00    +0.000 NA
ATOM      4  S   UNL     1      -3.622  -1.456  -0.160  0.00  0.00    +0.000 S 
ATOM      5  C   UNL     1      -2.987   0.068   0.191  0.00  0.00    +0.000 A 
ATOM      6  C   UNL     1      -1.639  -0.108   0.121  0.00  0.00    +0.000 A 
ATOM      7  C   UNL     1      -0.832   1.115   0.429  0.00  0.00    +0.000 C 
ATOM      8  C   UNL     1      -1.566   2.357   0.480  0.00  0.00    +0.000 C 
ATOM      9  C   UNL     1      -2.836   2.318  -0.553  0.00  0.00    +0.000 C 
ATOM     10  C   UNL     1      -3.510   3.697   0.061  0.00  0.00    +0.000 C 
ATOM     11  C   UNL     1      -3.691   1.355   0.510  0.00  0.00    +0.000 C 
ENDROOT
BRANCH   1  12
ATOM     12  C   UNL     1       0.212  -1.809  -0.288  0.00  0.00    +0.000 C 
ATOM     13  O   UNL     1       0.435  -3.063  -0.477  0.00  0.00    +0.000 OA
BRANCH  12  17
ATOM     14  C   UNL     1       3.762   0.573   0.101  0.00  0.00    +0.000 A 
ATOM     15  C   UNL     1       2.588   1.147  -0.367  0.00  0.00    +0.000 A 
ATOM     16  C   UNL     1       1.454   0.389  -0.492  0.00  0.00    +0.000 A 
ATOM     17  C   UNL     1       1.358  -0.932  -0.191  0.00  0.00    +0.000 A 
ATOM     18  C   UNL     1       2.559  -1.519   0.289  0.00  0.00    +0.000 A 
ATOM     19  C   UNL     1       3.700  -0.766   0.417  0.00  0.00    +0.000 A 
BRANCH  14  21
ATOM     20  C   UNL     1       5.073   2.646  -0.052  0.00  0.00    +0.000 C 
ATOM     21  O   UNL     1       4.941   1.294   0.248  0.00  0.00    +0.000 OA
ENDBRANCH  14  21
ENDBRANCH  12  17
ENDBRANCH   1  12
TORSDOF 3
