REMARK  Name = 
REMARK  4 active torsions:
REMARK  status: ('A' for Active; 'I' for Inactive)
REMARK    1  A    between atoms: C_2  and  C_3
REMARK    2  A    between atoms: C_3  and  N_4
REMARK    3  A    between atoms: N_4  and  C_5
REMARK    4  A    between atoms: C_11  and  C_12
REMARK                            x       y       z     vdW  Elec       q    Type
REMARK                         _______ _______ _______ _____ _____    ______ ____
ROOT
ATOM      1  C   UNL     1       2.098  -0.005   0.145  0.00  0.00    +0.000 A 
ATOM      2  C   UNL     1       2.198   0.091  -1.222  0.00  0.00    +0.000 A 
ATOM      3  C   UNL     1       1.107   0.076  -2.056  0.00  0.00    +0.000 A 
ATOM      4  C   UNL     1       1.263   0.182  -3.537  0.00  0.00    +0.000 C 
ATOM      5  N   UNL     1      -0.117  -0.037  -1.504  0.00  0.00    +0.000 NA
ATOM      6  C   UNL     1      -0.243  -0.132  -0.178  0.00  0.00    +0.000 A 
ATOM      7  C   UNL     1      -1.389  -0.255   0.593  0.00  0.00    +0.000 A 
ATOM      8  N   UNL     1      -0.963  -0.310   1.859  0.00  0.00    +0.000 NA
ATOM      9  N   UNL     1       0.349  -0.232   1.938  0.00  0.00    +0.000 NA
ATOM     10  C   UNL     1       0.828  -0.120   0.686  0.00  0.00    +0.000 A 
ENDROOT
BRANCH   7  11
ATOM     11  C   UNL     1      -2.765  -0.311   0.114  0.00  0.00    +0.000 A 
ATOM     12  C   UNL     1      -3.230   0.558  -0.853  0.00  0.00    +0.000 A 
ATOM     13  C   UNL     1      -4.539   0.507  -1.311  0.00  0.00    +0.000 A 
ATOM     14  C   UNL     1      -5.429  -0.420  -0.812  0.00  0.00    +0.000 A 
ATOM     15  C   UNL     1      -4.971  -1.291   0.155  0.00  0.00    +0.000 A 
ATOM     16  C   UNL     1      -3.668  -1.235   0.606  0.00  0.00    +0.000 A 
ENDBRANCH   7  11
BRANCH   1  17
ATOM     17  N   UNL     1       3.186   0.006   1.036  0.00  0.00    +0.000 NA
BRANCH  17  18
ATOM     18  C   UNL     1       4.567   0.124   0.574  0.00  0.00    +0.000 C 
BRANCH  18  20
ATOM     19  C   UNL     1       6.252   1.174   1.993  0.00  0.00    +0.000 C 
ATOM     20  C   UNL     1       5.466   0.102   1.777  0.00  0.00    +0.000 C 
ENDBRANCH  18  20
ENDBRANCH  17  18
ENDBRANCH   1  17
TORSDOF 4
