REMARK  Name = 
REMARK  3 active torsions:
REMARK  status: ('A' for Active; 'I' for Inactive)
REMARK    1  A    between atoms: C_5  and  C_6
REMARK    2  A    between atoms: C_6  and  C_8
REMARK    3  A    between atoms: C_9  and  N_10
REMARK                            x       y       z     vdW  Elec       q    Type
REMARK                         _______ _______ _______ _____ _____    ______ ____
ROOT
ATOM      1  C   UNL     1       1.206   0.473   1.363  0.00  0.00    +0.000 C 
ATOM      2  O   UNL     1       1.848   1.282   1.995  0.00  0.00    +0.000 OA
ENDROOT
BRANCH   1   7
ATOM      3  C   UNL     1       4.989   0.483  -2.090  0.00  0.00    +0.000 C 
ATOM      4  C   UNL     1       3.967   0.022  -1.106  0.00  0.00    +0.000 C 
ATOM      5  C   UNL     1       2.729  -0.273  -1.437  0.00  0.00    +0.000 C 
ATOM      6  C   UNL     1       1.642  -0.712  -0.686  0.00  0.00    +0.000 C 
ATOM      7  C   UNL     1       1.857  -0.924   0.893  0.00  0.00    +0.000 C 
ATOM      8  C   UNL     1       3.378  -0.530   1.122  0.00  0.00    +0.000 C 
ATOM      9  C   UNL     1       3.752  -0.683   2.621  0.00  0.00    +0.000 C 
ATOM     10  C   UNL     1       4.214  -0.148   0.285  0.00  0.00    +0.000 C 
ENDBRANCH   1   7
BRANCH   1  11
ATOM     11  C   UNL     1      -0.186   0.662   0.965  0.00  0.00    +0.000 C 
ATOM     12  C   UNL     1      -0.891  -0.188   0.290  0.00  0.00    +0.000 C 
BRANCH  12  13
ATOM     13  N   UNL     1      -2.226  -0.055  -0.115  0.00  0.00    +0.000 N 
ATOM     14  C   UNL     1      -2.989   1.040   0.164  0.00  0.00    +0.000 A 
ATOM     15  C   UNL     1      -4.301   1.135  -0.252  0.00  0.00    +0.000 A 
ATOM     16 CL   UNL     1      -5.217   2.583   0.150  0.00  0.00    +0.000 Cl
ATOM     17  C   UNL     1      -4.870   0.096  -0.974  0.00  0.00    +0.000 A 
ATOM     18  C   UNL     1      -4.111  -1.009  -1.260  0.00  0.00    +0.000 A 
ATOM     19  C   UNL     1      -2.790  -1.053  -0.815  0.00  0.00    +0.000 A 
ATOM     20  N   UNL     1      -2.001  -2.203  -1.113  0.00  0.00    +0.000 NA
ENDBRANCH  12  13
ENDBRANCH   1  11
TORSDOF 3
