REMARK  Name = 
REMARK  4 active torsions:
REMARK  status: ('A' for Active; 'I' for Inactive)
REMARK    1  A    between atoms: C_2  and  C_3
REMARK    2  A    between atoms: C_7  and  N_8
REMARK    3  A    between atoms: C_9  and  C_11
REMARK    4  A    between atoms: C_18  and  C_19
REMARK                            x       y       z     vdW  Elec       q    Type
REMARK                         _______ _______ _______ _____ _____    ______ ____
ROOT
ATOM      1  C   UNL     1      -3.249   0.247   0.063  0.00  0.00    +0.000 A 
ATOM      2  C   UNL     1      -3.195   1.567  -0.217  0.00  0.00    +0.000 A 
ATOM      3  C   UNL     1      -4.329   2.551  -0.358  0.00  0.00    +0.000 C 
ATOM      4  S   UNL     1      -1.533   1.873  -0.375  0.00  0.00    +0.000 S 
ATOM      5  C   UNL     1      -0.941   0.300  -0.079  0.00  0.00    +0.000 A 
ATOM      6  C   UNL     1      -2.076  -0.438   0.140  0.00  0.00    +0.000 A 
ENDROOT
BRANCH   5   7
ATOM      7  N   UNL     1       0.440  -0.153  -0.060  0.00  0.00    +0.000 NA
ATOM      8  C   UNL     1       1.476   0.755  -0.311  0.00  0.00    +0.000 C 
ATOM      9  O   UNL     1       1.144   1.958  -0.547  0.00  0.00    +0.000 OA
BRANCH   8  10
ATOM     10  C   UNL     1       2.892   0.433  -0.322  0.00  0.00    +0.000 A 
ATOM     11  C   UNL     1       3.852   1.390  -0.612  0.00  0.00    +0.000 A 
ATOM     12  C   UNL     1       5.196   1.104  -0.630  0.00  0.00    +0.000 A 
ATOM     13  C   UNL     1       5.636  -0.151  -0.358  0.00  0.00    +0.000 A 
ATOM     14  C   UNL     1       4.694  -1.131  -0.064  0.00  0.00    +0.000 A 
ATOM     15  C   UNL     1       3.343  -0.844  -0.046  0.00  0.00    +0.000 A 
ATOM     16  C   UNL     1       2.352  -1.907   0.273  0.00  0.00    +0.000 C 
ENDBRANCH   8  10
ENDBRANCH   5   7
BRANCH   6  17
ATOM     17  C   UNL     1      -1.965  -1.898   0.439  0.00  0.00    +0.000 C 
ATOM     18  N   UNL     1      -3.120  -2.696   0.673  0.00  0.00    +0.000 NA
ATOM     19  O   UNL     1      -0.869  -2.443   0.489  0.00  0.00    +0.000 OA
ENDBRANCH   6  17
BRANCH   1  21
ATOM     20  C   UNL     1      -5.155  -0.095   1.623  0.00  0.00    +0.000 C 
ATOM     21  C   UNL     1      -4.592  -0.422   0.280  0.00  0.00    +0.000 C 
ENDBRANCH   1  21
TORSDOF 4
