REMARK  Name = 
REMARK  2 active torsions:
REMARK  status: ('A' for Active; 'I' for Inactive)
REMARK    1  A    between atoms: N_11  and  C_12
REMARK    2  A    between atoms: C_12  and  C_13
REMARK                            x       y       z     vdW  Elec       q    Type
REMARK                         _______ _______ _______ _____ _____    ______ ____
ROOT
ATOM      1  C   UNL     1       4.003   1.671  -1.448  0.00  0.00    +0.000 C 
ATOM      2  C   UNL     1       4.223   0.822  -0.248  0.00  0.00    +0.000 C 
ATOM      3  C   UNL     1       3.659   1.319   1.016  0.00  0.00    +0.000 C 
ATOM      4  C   UNL     1       2.361   0.742   1.438  0.00  0.00    +0.000 C 
ATOM      5  C   UNL     1       1.912  -0.336   0.494  0.00  0.00    +0.000 C 
ATOM      6  C   UNL     1       3.085  -1.320   0.393  0.00  0.00    +0.000 C 
ATOM      7  C   UNL     1       4.114  -0.648  -0.486  0.00  0.00    +0.000 C 
ATOM      8  N   UNL     1       1.692   0.164  -0.843  0.00  0.00    +0.000 NA
ATOM      9  C   UNL     1       0.367  -0.163  -1.203  0.00  0.00    +0.000 C 
ATOM     10  O   UNL     1      -0.202   0.129  -2.311  0.00  0.00    +0.000 OA
ATOM     11  N   UNL     1      -0.266  -0.870  -0.156  0.00  0.00    +0.000 N 
ATOM     12  C   UNL     1       0.676  -0.999   0.897  0.00  0.00    +0.000 C 
ATOM     13  O   UNL     1       0.504  -1.579   1.998  0.00  0.00    +0.000 OA
ENDROOT
BRANCH  11  14
ATOM     14  C   UNL     1      -1.649  -1.386  -0.144  0.00  0.00    +0.000 C 
BRANCH  14  15
ATOM     15  C   UNL     1      -2.555  -0.339   0.411  0.00  0.00    +0.000 A 
ATOM     16  C   UNL     1      -2.022   0.870   0.805  0.00  0.00    +0.000 A 
ATOM     17  C   UNL     1      -2.776   1.897   1.328  0.00  0.00    +0.000 A 
ATOM     18  C   UNL     1      -4.131   1.719   1.470  0.00  0.00    +0.000 A 
ATOM     19  C   UNL     1      -4.667   0.512   1.078  0.00  0.00    +0.000 A 
ATOM     20  C   UNL     1      -3.897  -0.512   0.553  0.00  0.00    +0.000 A 
ATOM     21  F   UNL     1      -4.432  -1.694   0.170  0.00  0.00    +0.000 F 
ENDBRANCH  14  15
ENDBRANCH  11  14
TORSDOF 2
