REMARK  Name = 
REMARK  3 active torsions:
REMARK  status: ('A' for Active; 'I' for Inactive)
REMARK    1  A    between atoms: N_12  and  C_13
REMARK    2  A    between atoms: C_13  and  N_14
REMARK    3  A    between atoms: N_14  and  C_15
REMARK                            x       y       z     vdW  Elec       q    Type
REMARK                         _______ _______ _______ _____ _____    ______ ____
ROOT
ATOM      1  O   UNL     1       0.501   2.502   1.430  0.00  0.00    +0.000 OA
ATOM      2  C   UNL     1      -0.364   1.577   1.302  0.00  0.00    +0.000 C 
ATOM      3  C   UNL     1      -1.607   1.785   0.368  0.00  0.00    +0.000 C 
ATOM      4  C   UNL     1      -1.095   0.690  -0.847  0.00  0.00    +0.000 C 
ATOM      5  C   UNL     1      -2.263   1.159  -1.792  0.00  0.00    +0.000 C 
ATOM      6  C   UNL     1      -3.345   0.771  -1.344  0.00  0.00    +0.000 C 
ATOM      7  C   UNL     1      -3.273  -0.064  -0.019  0.00  0.00    +0.000 C 
ATOM      8  C   UNL     1      -1.785  -0.639  -0.357  0.00  0.00    +0.000 C 
ATOM      9  C   UNL     1      -2.689   0.914   1.148  0.00  0.00    +0.000 C 
ATOM     10  C   UNL     1      -1.772  -0.044   1.987  0.00  0.00    +0.000 C 
ATOM     11  O   UNL     1      -2.353  -0.954   2.612  0.00  0.00    +0.000 OA
ATOM     12  N   UNL     1      -0.441   0.327   1.861  0.00  0.00    +0.000 N 
ENDROOT
BRANCH  12  13
ATOM     13  C   UNL     1       0.666  -0.500   2.273  0.00  0.00    +0.000 C 
BRANCH  13  14
ATOM     14  N   UNL     1       1.159  -1.382   1.274  0.00  0.00    +0.000 NA
BRANCH  14  15
ATOM     15  C   UNL     1       1.817  -0.963   0.096  0.00  0.00    +0.000 A 
ATOM     16  C   UNL     1       2.118  -1.965  -0.837  0.00  0.00    +0.000 A 
ATOM     17  C   UNL     1       2.768  -1.580  -1.977  0.00  0.00    +0.000 A 
ATOM     18  C   UNL     1       3.139  -0.285  -2.257  0.00  0.00    +0.000 A 
ATOM     19  O   UNL     1       3.795   0.102  -3.409  0.00  0.00    +0.000 OA
ATOM     20  C   UNL     1       2.836   0.687  -1.329  0.00  0.00    +0.000 A 
ATOM     21  C   UNL     1       2.187   0.328  -0.183  0.00  0.00    +0.000 A 
ENDBRANCH  14  15
ENDBRANCH  13  14
ENDBRANCH  12  13
TORSDOF 3
