REMARK  Name = 
REMARK  4 active torsions:
REMARK  status: ('A' for Active; 'I' for Inactive)
REMARK    1  A    between atoms: O_2  and  C_3
REMARK    2  A    between atoms: C_6  and  C_7
REMARK    3  A    between atoms: C_7  and  C_8
REMARK    4  A    between atoms: C_14  and  C_15
REMARK                            x       y       z     vdW  Elec       q    Type
REMARK                         _______ _______ _______ _____ _____    ______ ____
ROOT
ATOM      1  C   UNL     1      -0.000  -0.401   1.387  0.00  0.00    +0.000 C 
ATOM      2  C   UNL     1       0.948  -1.528   2.040  0.00  0.00    +0.000 C 
ATOM      3  C   UNL     1       1.581  -2.370   0.970  0.00  0.00    +0.000 C 
ATOM      4  C   UNL     1       2.565  -1.450   0.344  0.00  0.00    +0.000 A 
ATOM      5  N   UNL     1       3.867  -1.508   0.312  0.00  0.00    +0.000 NA
ATOM      6  C   UNL     1       4.581  -0.534  -0.325  0.00  0.00    +0.000 A 
ATOM      7  C   UNL     1       4.012   0.546  -0.962  0.00  0.00    +0.000 A 
ATOM      8  C   UNL     1       2.632   0.609  -0.929  0.00  0.00    +0.000 A 
ATOM      9  C   UNL     1       1.919  -0.379  -0.283  0.00  0.00    +0.000 A 
ATOM     10  C   UNL     1       0.462  -0.473  -0.157  0.00  0.00    +0.000 C 
ENDROOT
BRANCH   7  11
ATOM     11  C   UNL     1       4.836   1.586  -1.646  0.00  0.00    +0.000 C 
ATOM     12  O   UNL     1       5.172   2.621  -0.767  0.00  0.00    +0.000 OA
ENDBRANCH   7  11
BRANCH   1  13
ATOM     13  C   UNL     1      -1.273  -1.428   1.170  0.00  0.00    +0.000 C 
BRANCH  13  17
ATOM     14  C   UNL     1      -4.409   0.963  -0.486  0.00  0.00    +0.000 A 
ATOM     15  C   UNL     1      -4.251   0.811   0.871  0.00  0.00    +0.000 A 
ATOM     16  C   UNL     1      -3.223   0.029   1.367  0.00  0.00    +0.000 A 
ATOM     17  C   UNL     1      -2.328  -0.622   0.560  0.00  0.00    +0.000 A 
ATOM     18  C   UNL     1      -2.478  -0.476  -0.802  0.00  0.00    +0.000 A 
ATOM     19  C   UNL     1      -3.512   0.311  -1.306  0.00  0.00    +0.000 A 
BRANCH  14  21
ATOM     20  C   UNL     1      -5.652   1.940  -2.372  0.00  0.00    +0.000 C 
ATOM     21  O   UNL     1      -5.447   1.753  -0.984  0.00  0.00    +0.000 OA
ENDBRANCH  14  21
ENDBRANCH  13  17
ENDBRANCH   1  13
TORSDOF 4
