REMARK  Name = 
REMARK  1 active torsions:
REMARK  status: ('A' for Active; 'I' for Inactive)
REMARK    1  A    between atoms: C_7  and  C_8
REMARK                            x       y       z     vdW  Elec       q    Type
REMARK                         _______ _______ _______ _____ _____    ______ ____
ROOT
ATOM      1  C   UNL     1      -0.131  -0.506   0.025  0.00  0.00    +0.000 A 
ATOM      2  N   UNL     1      -0.885  -1.599   0.231  0.00  0.00    +0.000 NA
ATOM      3  N   UNL     1      -2.201  -1.542   0.393  0.00  0.00    +0.000 N 
ATOM      4  C   UNL     1      -2.976  -2.773   0.624  0.00  0.00    +0.000 C 
ATOM      5  C   UNL     1      -2.861  -0.377   0.358  0.00  0.00    +0.000 A 
ATOM      6  O   UNL     1      -4.121  -0.311   0.512  0.00  0.00    +0.000 OA
ATOM      7  C   UNL     1      -2.155   0.801   0.148  0.00  0.00    +0.000 A 
ATOM      8  C   UNL     1      -2.844   2.024   0.097  0.00  0.00    +0.000 A 
ATOM      9  C   UNL     1      -2.050   3.130  -0.126  0.00  0.00    +0.000 A 
ATOM     10  C   UNL     1      -0.683   3.061  -0.290  0.00  0.00    +0.000 A 
ATOM     11  C   UNL     1      -0.029   1.848  -0.239  0.00  0.00    +0.000 A 
ATOM     12  C   UNL     1      -0.797   0.719  -0.017  0.00  0.00    +0.000 A 
ENDROOT
BRANCH   1  19
ATOM     13  C   UNL     1       4.250   0.886   1.719  0.00  0.00    +0.000 C 
ATOM     14  C   UNL     1       3.480   0.128   0.692  0.00  0.00    +0.000 A 
ATOM     15  C   UNL     1       4.092  -0.584  -0.306  0.00  0.00    +0.000 A 
ATOM     16  C   UNL     1       3.325  -1.278  -1.225  0.00  0.00    +0.000 A 
ATOM     17  C   UNL     1       1.938  -1.249  -1.130  0.00  0.00    +0.000 A 
ATOM     18  O   UNL     1       1.233  -1.964  -2.082  0.00  0.00    +0.000 OA
ATOM     19  C   UNL     1       1.308  -0.550  -0.148  0.00  0.00    +0.000 A 
ATOM     20  C   UNL     1       2.106   0.139   0.763  0.00  0.00    +0.000 A 
ENDBRANCH   1  19
TORSDOF 1
