REMARK  Name = 
REMARK  1 active torsions:
REMARK  status: ('A' for Active; 'I' for Inactive)
REMARK    1  A    between atoms: C_4  and  N_5
REMARK                            x       y       z     vdW  Elec       q    Type
REMARK                         _______ _______ _______ _____ _____    ______ ____
ROOT
ATOM      1  N   UNL     1       0.081  -0.126  -0.040  0.00  0.00    +0.000 N 
ATOM      2  C   UNL     1      -0.705  -0.719   0.878  0.00  0.00    +0.000 A 
ATOM      3  C   UNL     1      -0.238  -1.558   2.008  0.00  0.00    +0.000 C 
ATOM      4  C   UNL     1      -2.033  -0.428   0.615  0.00  0.00    +0.000 A 
ATOM      5  C   UNL     1      -3.220  -0.774   1.232  0.00  0.00    +0.000 A 
ATOM      6  C   UNL     1      -3.205  -1.638   2.445  0.00  0.00    +0.000 C 
ATOM      7  N   UNL     1      -4.380  -0.318   0.716  0.00  0.00    +0.000 NA
ATOM      8  N   UNL     1      -4.378   0.448  -0.361  0.00  0.00    +0.000 NA
ATOM      9  C   UNL     1      -3.271   0.825  -1.012  0.00  0.00    +0.000 A 
ATOM     10  C   UNL     1      -3.284   1.684  -2.219  0.00  0.00    +0.000 C 
ATOM     11  C   UNL     1      -2.059   0.366  -0.499  0.00  0.00    +0.000 A 
ATOM     12  C   UNL     1      -0.731   0.535  -0.882  0.00  0.00    +0.000 A 
ATOM     13  C   UNL     1      -0.350   1.349  -2.069  0.00  0.00    +0.000 C 
ENDROOT
BRANCH   1  17
ATOM     14  C   UNL     1       4.513   1.922   0.799  0.00  0.00    +0.000 C 
ATOM     15  C   UNL     1       3.670   0.814   0.278  0.00  0.00    +0.000 A 
ATOM     16  C   UNL     1       2.285   0.854   0.358  0.00  0.00    +0.000 A 
ATOM     17  C   UNL     1       1.508  -0.175  -0.127  0.00  0.00    +0.000 A 
ATOM     18  C   UNL     1       2.164  -1.247  -0.695  0.00  0.00    +0.000 A 
ATOM     19  C   UNL     1       3.551  -1.283  -0.774  0.00  0.00    +0.000 A 
ATOM     20  C   UNL     1       4.331  -0.256  -0.290  0.00  0.00    +0.000 A 
ATOM     21  N   UNL     1       5.752  -0.275  -0.361  0.00  0.00    +0.000 NA
ENDBRANCH   1  17
TORSDOF 1
