REMARK  Name = 
REMARK  4 active torsions:
REMARK  status: ('A' for Active; 'I' for Inactive)
REMARK    1  A    between atoms: C_4  and  O_5
REMARK    2  A    between atoms: O_5  and  C_6
REMARK    3  A    between atoms: C_6  and  C_8
REMARK    4  A    between atoms: C_8  and  C_10
REMARK                            x       y       z     vdW  Elec       q    Type
REMARK                         _______ _______ _______ _____ _____    ______ ____
ROOT
ATOM      1  O   UNL     1       0.250   1.147   0.654  0.00  0.00    +0.000 OA
ENDROOT
BRANCH   1   5
ATOM      2  C   UNL     1       3.881   2.266  -0.302  0.00  0.00    +0.000 C 
ATOM      3  C   UNL     1       3.968   0.756   0.394  0.00  0.00    +0.000 C 
ATOM      4  C   UNL     1       2.466   0.654   0.999  0.00  0.00    +0.000 C 
ATOM      5  C   UNL     1       1.508   1.240  -0.257  0.00  0.00    +0.000 C 
ATOM      6  C   UNL     1       1.209  -0.314  -0.889  0.00  0.00    +0.000 C 
ATOM      7  C   UNL     1       2.549  -0.980  -0.825  0.00  0.00    +0.000 C 
ATOM      8  C   UNL     1       2.700  -1.857   0.411  0.00  0.00    +0.000 C 
ATOM      9  C   UNL     1       2.565  -1.907  -1.997  0.00  0.00    +0.000 C 
ATOM     10  C   UNL     1       3.678  -0.030  -1.004  0.00  0.00    +0.000 C 
ENDBRANCH   1   5
BRANCH   1  11
ATOM     11  C   UNL     1      -0.906   1.540   0.078  0.00  0.00    +0.000 C 
ATOM     12  O   UNL     1      -1.014   1.954  -1.093  0.00  0.00    +0.000 OA
BRANCH  11  13
ATOM     13  C   UNL     1      -2.276   1.488   0.923  0.00  0.00    +0.000 C 
ATOM     14  O   UNL     1      -1.655   0.943   2.219  0.00  0.00    +0.000 OA
BRANCH  13  15
ATOM     15  C   UNL     1      -2.749   0.043   0.381  0.00  0.00    +0.000 A 
ATOM     16  C   UNL     1      -2.543  -0.249  -0.905  0.00  0.00    +0.000 A 
ATOM     17  C   UNL     1      -2.956  -1.487  -1.397  0.00  0.00    +0.000 A 
ATOM     18  C   UNL     1      -3.567  -2.375  -0.535  0.00  0.00    +0.000 A 
ATOM     19  C   UNL     1      -3.761  -2.033   0.788  0.00  0.00    +0.000 A 
ATOM     20  C   UNL     1      -3.345  -0.801   1.257  0.00  0.00    +0.000 A 
ENDBRANCH  13  15
ENDBRANCH  11  13
ENDBRANCH   1  11
TORSDOF 4
