REMARK  Name = 
REMARK  5 active torsions:
REMARK  status: ('A' for Active; 'I' for Inactive)
REMARK    1  A    between atoms: C_2  and  O_3
REMARK    2  A    between atoms: O_3  and  C_4
REMARK    3  A    between atoms: C_4  and  C_6
REMARK    4  A    between atoms: C_6  and  N_7
REMARK    5  A    between atoms: C_9  and  C_10
REMARK                            x       y       z     vdW  Elec       q    Type
REMARK                         _______ _______ _______ _____ _____    ______ ____
ROOT
ATOM      1  N   UNL     1      -1.256  -1.063   0.824  0.00  0.00    +0.000 N 
ATOM      2  N   UNL     1      -0.245  -0.224   0.916  0.00  0.00    +0.000 NA
ATOM      3  C   UNL     1       0.718  -0.551   0.039  0.00  0.00    +0.000 A 
ATOM      4  C   UNL     1       0.264  -1.664  -0.632  0.00  0.00    +0.000 A 
ATOM      5  C   UNL     1      -0.970  -1.964  -0.124  0.00  0.00    +0.000 A 
ATOM      6  N   UNL     1      -1.790  -3.068  -0.560  0.00  0.00    +0.000 NA
ENDROOT
BRANCH   3   7
ATOM      7  C   UNL     1       1.999   0.109  -0.189  0.00  0.00    +0.000 A 
ATOM      8  C   UNL     1       2.870  -0.372  -1.142  0.00  0.00    +0.000 A 
ATOM      9  C   UNL     1       4.096   0.253  -1.366  0.00  0.00    +0.000 A 
ATOM     10  C   UNL     1       4.479   1.367  -0.649  0.00  0.00    +0.000 A 
ATOM     11 CL   UNL     1       6.012   2.175  -0.909  0.00  0.00    +0.000 Cl
ATOM     12  C   UNL     1       3.603   1.851   0.307  0.00  0.00    +0.000 A 
ATOM     13  C   UNL     1       2.393   1.224   0.520  0.00  0.00    +0.000 A 
ENDBRANCH   3   7
BRANCH   1  14
ATOM     14  C   UNL     1      -2.474  -1.044   1.595  0.00  0.00    +0.000 C 
BRANCH  14  15
ATOM     15  C   UNL     1      -3.535  -0.245   0.979  0.00  0.00    +0.000 C 
ATOM     16  O   UNL     1      -4.652  -0.135   1.534  0.00  0.00    +0.000 OA
BRANCH  15  17
ATOM     17  O   UNL     1      -3.332   0.405  -0.224  0.00  0.00    +0.000 OA
BRANCH  17  19
ATOM     18  C   UNL     1      -3.829   1.758  -2.123  0.00  0.00    +0.000 C 
ATOM     19  C   UNL     1      -4.348   1.188  -0.843  0.00  0.00    +0.000 C 
ENDBRANCH  17  19
ENDBRANCH  15  17
ENDBRANCH  14  15
ENDBRANCH   1  14
TORSDOF 5
