REMARK  Name = 
REMARK  5 active torsions:
REMARK  status: ('A' for Active; 'I' for Inactive)
REMARK    1  A    between atoms: O_2  and  C_3
REMARK    2  A    between atoms: C_6  and  N_7
REMARK    3  A    between atoms: N_7  and  C_8
REMARK    4  A    between atoms: C_8  and  C_9
REMARK    5  A    between atoms: C_13  and  O_14
REMARK                            x       y       z     vdW  Elec       q    Type
REMARK                         _______ _______ _______ _____ _____    ______ ____
ROOT
ATOM      1  N   UNL     1       0.351  -0.909  -0.397  0.00  0.00    +0.000 NA
ENDROOT
BRANCH   1   5
ATOM      2  C   UNL     1       4.445   0.054  -0.108  0.00  0.00    +0.000 A 
ATOM      3  C   UNL     1       4.053  -1.212  -0.474  0.00  0.00    +0.000 A 
ATOM      4  C   UNL     1       2.701  -1.520  -0.566  0.00  0.00    +0.000 A 
ATOM      5  C   UNL     1       1.720  -0.594  -0.302  0.00  0.00    +0.000 A 
ATOM      6  C   UNL     1       2.134   0.665   0.061  0.00  0.00    +0.000 A 
ATOM      7  C   UNL     1       3.480   0.993   0.160  0.00  0.00    +0.000 A 
ATOM      8 CL   UNL     1       3.978   2.600   0.624  0.00  0.00    +0.000 Cl
BRANCH   2  10
ATOM      9  C   UNL     1       6.829  -0.505  -0.262  0.00  0.00    +0.000 C 
ATOM     10  O   UNL     1       5.785   0.414  -0.000  0.00  0.00    +0.000 OA
ENDBRANCH   2  10
ENDBRANCH   1   5
BRANCH   1  11
ATOM     11  C   UNL     1      -0.621   0.095  -0.111  0.00  0.00    +0.000 C 
BRANCH  11  12
ATOM     12  C   UNL     1      -2.015  -0.372  -0.250  0.00  0.00    +0.000 A 
ATOM     13  C   UNL     1      -2.374  -1.633  -0.614  0.00  0.00    +0.000 A 
ATOM     14  C   UNL     1      -3.716  -1.961  -0.713  0.00  0.00    +0.000 A 
ATOM     15  C   UNL     1      -4.711  -1.017  -0.444  0.00  0.00    +0.000 A 
ATOM     16  C   UNL     1      -4.344   0.265  -0.073  0.00  0.00    +0.000 A 
ATOM     17  C   UNL     1      -3.011   0.562   0.016  0.00  0.00    +0.000 A 
ATOM     18  O   UNL     1      -2.677   1.869   0.394  0.00  0.00    +0.000 OA
BRANCH  16  19
ATOM     19  O   UNL     1      -5.313   1.246   0.206  0.00  0.00    +0.000 OA
ATOM     20  C   UNL     1      -6.694   0.960   0.120  0.00  0.00    +0.000 C 
ENDBRANCH  16  19
ENDBRANCH  11  12
ENDBRANCH   1  11
TORSDOF 5
