REMARK  Name = 
REMARK  4 active torsions:
REMARK  status: ('A' for Active; 'I' for Inactive)
REMARK    1  A    between atoms: C_2  and  C_4
REMARK    2  A    between atoms: C_4  and  O_5
REMARK    3  A    between atoms: O_5  and  C_6
REMARK    4  A    between atoms: C_9  and  C_10
REMARK                            x       y       z     vdW  Elec       q    Type
REMARK                         _______ _______ _______ _____ _____    ______ ____
ROOT
ATOM      1  C   UNL     1       1.718  -1.010   0.758  0.00  0.00    +0.000 A 
ATOM      2  C   UNL     1       1.137  -0.476  -0.372  0.00  0.00    +0.000 A 
ATOM      3  C   UNL     1      -0.196  -0.048  -0.389  0.00  0.00    +0.000 A 
ATOM      4  C   UNL     1      -0.969  -0.153   0.738  0.00  0.00    +0.000 A 
ATOM      5  C   UNL     1      -0.384  -0.686   1.862  0.00  0.00    +0.000 A 
ATOM      6  C   UNL     1       0.932  -1.109   1.885  0.00  0.00    +0.000 A 
ENDROOT
BRANCH   4   7
ATOM      7  C   UNL     1      -2.395   0.287   0.775  0.00  0.00    +0.000 A 
ATOM      8  C   UNL     1      -3.186   0.189   1.902  0.00  0.00    +0.000 A 
ATOM      9  S   UNL     1      -4.668   0.827   1.358  0.00  0.00    +0.000 S 
ATOM     10  C   UNL     1      -4.216   1.179  -0.243  0.00  0.00    +0.000 A 
ATOM     11  N   UNL     1      -5.026   1.760  -1.292  0.00  0.00    +0.000 NA
ATOM     12  N   UNL     1      -2.961   0.796  -0.289  0.00  0.00    +0.000 NA
ENDBRANCH   4   7
BRANCH   1  13
ATOM     13  O   UNL     1       3.050  -1.430   0.754  0.00  0.00    +0.000 OA
BRANCH  13  14
ATOM     14  C   UNL     1       3.801  -1.305  -0.417  0.00  0.00    +0.000 C 
BRANCH  14  16
ATOM     15  C   UNL     1       4.603   0.979   0.154  0.00  0.00    +0.000 C 
ATOM     16  C   UNL     1       3.925   0.111  -0.903  0.00  0.00    +0.000 C 
ATOM     17  C   UNL     1       4.835   0.088  -2.123  0.00  0.00    +0.000 C 
ENDBRANCH  14  16
ENDBRANCH  13  14
ENDBRANCH   1  13
TORSDOF 4
