REMARK  Name = 
REMARK  3 active torsions:
REMARK  status: ('A' for Active; 'I' for Inactive)
REMARK    1  A    between atoms: C_11  and  C_13
REMARK    2  A    between atoms: C_13  and  C_14
REMARK    3  A    between atoms: C_14  and  C_15
REMARK                            x       y       z     vdW  Elec       q    Type
REMARK                         _______ _______ _______ _____ _____    ______ ____
ROOT
ATOM      1  O   UNL     1      -4.253  -1.493  -0.758  0.00  0.00    +0.000 OA
ATOM      2  C   UNL     1      -3.658  -0.678  -0.077  0.00  0.00    +0.000 C 
ATOM      3  C   UNL     1      -3.833  -0.533   1.323  0.00  0.00    +0.000 C 
ATOM      4  C   UNL     1      -2.454  -0.928   1.895  0.00  0.00    +0.000 C 
ATOM      5  C   UNL     1      -1.633   0.157   1.319  0.00  0.00    +0.000 C 
ATOM      6  C   UNL     1      -1.217  -0.220  -0.194  0.00  0.00    +0.000 C 
ATOM      7  C   UNL     1      -2.682   0.173  -0.988  0.00  0.00    +0.000 C 
ATOM      8  C   UNL     1      -2.901   1.624  -0.281  0.00  0.00    +0.000 C 
ATOM      9  C   UNL     1      -2.236   2.524  -1.310  0.00  0.00    +0.000 C 
ATOM     10  C   UNL     1      -0.987   1.784  -1.772  0.00  0.00    +0.000 C 
ATOM     11  C   UNL     1      -0.437   1.141  -0.548  0.00  0.00    +0.000 C 
ATOM     12  O   UNL     1      -0.390   2.032   0.445  0.00  0.00    +0.000 OA
ENDROOT
BRANCH  11  13
ATOM     13  C   UNL     1       1.003   0.642  -0.770  0.00  0.00    +0.000 C 
BRANCH  13  14
ATOM     14  C   UNL     1       1.367   0.010   0.576  0.00  0.00    +0.000 C 
BRANCH  14  15
ATOM     15  C   UNL     1       2.745  -0.522   0.514  0.00  0.00    +0.000 A 
ATOM     16  C   UNL     1       3.833   0.253   0.857  0.00  0.00    +0.000 A 
ATOM     17  C   UNL     1       5.119  -0.249   0.797  0.00  0.00    +0.000 A 
ATOM     18  C   UNL     1       5.363  -1.562   0.387  0.00  0.00    +0.000 A 
ATOM     19  C   UNL     1       4.268  -2.328   0.046  0.00  0.00    +0.000 A 
ATOM     20  C   UNL     1       2.983  -1.828   0.105  0.00  0.00    +0.000 A 
ENDBRANCH  14  15
ENDBRANCH  13  14
ENDBRANCH  11  13
TORSDOF 3
