REMARK  Name = 
REMARK  4 active torsions:
REMARK  status: ('A' for Active; 'I' for Inactive)
REMARK    1  A    between atoms: C_5  and  S_6
REMARK    2  A    between atoms: S_6  and  C_7
REMARK    3  A    between atoms: C_7  and  C_8
REMARK    4  A    between atoms: C_8  and  N_9
REMARK                            x       y       z     vdW  Elec       q    Type
REMARK                         _______ _______ _______ _____ _____    ______ ____
ROOT
ATOM      1  C   UNL     1      -0.644  -0.448  -0.528  0.00  0.00    +0.000 C 
ENDROOT
BRANCH   1   2
ATOM      2  N   UNL     1      -1.875   0.214  -0.149  0.00  0.00    +0.000 N 
ATOM      3  C   UNL     1      -2.020   1.363   0.689  0.00  0.00    +0.000 C 
ATOM      4  O   UNL     1      -1.073   2.003   1.248  0.00  0.00    +0.000 OA
ATOM      5  N   UNL     1      -3.420   1.691   0.807  0.00  0.00    +0.000 NA
ATOM      6  C   UNL     1      -4.085   0.406   0.542  0.00  0.00    +0.000 C 
ATOM      7  C   UNL     1      -3.928  -0.502   1.746  0.00  0.00    +0.000 C 
ATOM      8  C   UNL     1      -5.509   0.567   0.132  0.00  0.00    +0.000 C 
ATOM      9  C   UNL     1      -3.214  -0.135  -0.527  0.00  0.00    +0.000 C 
ATOM     10  O   UNL     1      -3.508  -0.774  -1.576  0.00  0.00    +0.000 OA
ENDBRANCH   1   2
BRANCH   1  11
ATOM     11  C   UNL     1      -0.273  -1.540   0.452  0.00  0.00    +0.000 C 
BRANCH  11  12
ATOM     12  S   UNL     1       1.266  -2.352  -0.041  0.00  0.00    +0.000 S 
BRANCH  12  17
ATOM     13  C   UNL     1       5.987   1.480   0.353  0.00  0.00    +0.000 C 
ATOM     14  C   UNL     1       4.805   0.569   0.269  0.00  0.00    +0.000 A 
ATOM     15  C   UNL     1       3.524   0.971   0.597  0.00  0.00    +0.000 A 
ATOM     16  C   UNL     1       2.456   0.077   0.499  0.00  0.00    +0.000 A 
ATOM     17  C   UNL     1       2.641  -1.220   0.077  0.00  0.00    +0.000 A 
ATOM     18  C   UNL     1       3.912  -1.634  -0.253  0.00  0.00    +0.000 A 
ATOM     19  C   UNL     1       4.958  -0.736  -0.150  0.00  0.00    +0.000 A 
ENDBRANCH  12  17
ENDBRANCH  11  12
ENDBRANCH   1  11
TORSDOF 4
