REMARK  Name = 
REMARK  3 active torsions:
REMARK  status: ('A' for Active; 'I' for Inactive)
REMARK    1  A    between atoms: S_2  and  N_4
REMARK    2  A    between atoms: S_2  and  C_14
REMARK    3  A    between atoms: N_7  and  C_8
REMARK                            x       y       z     vdW  Elec       q    Type
REMARK                         _______ _______ _______ _____ _____    ______ ____
ROOT
ATOM      1  N   UNL     1       0.288  -0.993   0.129  0.00  0.00    +0.000 NA
ATOM      2  C   UNL     1       1.196  -1.842   0.453  0.00  0.00    +0.000 C 
ATOM      3  S   UNL     1       0.706  -3.533   0.733  0.00  0.00    +0.000 S 
ATOM      4  N   UNL     1       2.566  -1.511   0.600  0.00  0.00    +0.000 NA
ENDROOT
BRANCH   4   5
ATOM      5  C   UNL     1       3.029  -0.193   0.408  0.00  0.00    +0.000 C 
ATOM      6  C   UNL     1       2.439   0.841   1.310  0.00  0.00    +0.000 C 
ATOM      7  C   UNL     1       3.052   2.183   1.211  0.00  0.00    +0.000 C 
ATOM      8  C   UNL     1       3.523   2.567  -0.160  0.00  0.00    +0.000 C 
ATOM      9  C   UNL     1       4.172   1.466  -0.922  0.00  0.00    +0.000 C 
ATOM     10  C   UNL     1       3.237   0.250  -0.987  0.00  0.00    +0.000 C 
ENDBRANCH   4   5
BRANCH   1  12
ATOM     11  O   UNL     1      -1.640  -1.977  -1.429  0.00  0.00    +0.000 OA
ATOM     12  S   UNL     1      -1.376  -1.418  -0.044  0.00  0.00    +0.000 S 
ATOM     13  O   UNL     1      -1.787  -2.465   0.960  0.00  0.00    +0.000 OA
BRANCH  12  14
ATOM     14  C   UNL     1      -2.408  -0.022   0.191  0.00  0.00    +0.000 A 
ATOM     15  C   UNL     1      -2.906   0.340   1.424  0.00  0.00    +0.000 A 
ATOM     16  C   UNL     1      -3.718   1.443   1.591  0.00  0.00    +0.000 A 
ATOM     17  C   UNL     1      -4.054   2.221   0.508  0.00  0.00    +0.000 A 
ATOM     18  C   UNL     1      -3.564   1.874  -0.734  0.00  0.00    +0.000 A 
ATOM     19  C   UNL     1      -2.755   0.769  -0.883  0.00  0.00    +0.000 A 
ENDBRANCH  12  14
ENDBRANCH   1  12
TORSDOF 3
