REMARK  Name = 
REMARK  3 active torsions:
REMARK  status: ('A' for Active; 'I' for Inactive)
REMARK    1  A    between atoms: C_4  and  N_5
REMARK    2  A    between atoms: N_5  and  N_6
REMARK    3  A    between atoms: C_7  and  C_9
REMARK                            x       y       z     vdW  Elec       q    Type
REMARK                         _______ _______ _______ _____ _____    ______ ____
ROOT
ATOM      1  N   UNL     1       0.872  -0.795  -1.138  0.00  0.00    +0.000 NA
ENDROOT
BRANCH   1   5
ATOM      2  C   UNL     1       1.792   0.448   1.808  0.00  0.00    +0.000 C 
ATOM      3  C   UNL     1       2.832  -0.799   1.949  0.00  0.00    +0.000 C 
ATOM      4  C   UNL     1       2.545  -1.510   0.518  0.00  0.00    +0.000 C 
ATOM      5  C   UNL     1       2.058  -0.559  -0.456  0.00  0.00    +0.000 C 
ATOM      6  C   UNL     1       2.802   0.517  -0.648  0.00  0.00    +0.000 C 
ATOM      7  C   UNL     1       4.015   0.608   0.145  0.00  0.00    +0.000 C 
ATOM      8  C   UNL     1       5.146   0.043  -0.743  0.00  0.00    +0.000 C 
ATOM      9  C   UNL     1       4.366   2.100   0.242  0.00  0.00    +0.000 C 
ATOM     10  C   UNL     1       4.127   0.023   1.446  0.00  0.00    +0.000 C 
ENDBRANCH   1   5
BRANCH   1  11
ATOM     11  N   UNL     1      -0.309  -0.060  -1.092  0.00  0.00    +0.000 NA
ATOM     12  C   UNL     1      -1.451  -0.628  -0.464  0.00  0.00    +0.000 C 
ATOM     13  O   UNL     1      -1.314  -1.786   0.026  0.00  0.00    +0.000 OA
BRANCH  12  14
ATOM     14  C   UNL     1      -2.747   0.073  -0.372  0.00  0.00    +0.000 A 
ATOM     15  C   UNL     1      -2.942   1.329  -0.892  0.00  0.00    +0.000 A 
ATOM     16  C   UNL     1      -4.163   1.950  -0.793  0.00  0.00    +0.000 A 
ATOM     17  C   UNL     1      -5.241   1.343  -0.168  0.00  0.00    +0.000 A 
ATOM     18  C   UNL     1      -5.017   0.083   0.346  0.00  0.00    +0.000 A 
ATOM     19  C   UNL     1      -3.801  -0.551   0.253  0.00  0.00    +0.000 A 
ATOM     20  O   UNL     1      -3.569  -1.827   0.773  0.00  0.00    +0.000 OA
ENDBRANCH  12  14
ENDBRANCH   1  11
TORSDOF 3
