REMARK  Name = 
REMARK  3 active torsions:
REMARK  status: ('A' for Active; 'I' for Inactive)
REMARK    1  A    between atoms: C_7  and  C_8
REMARK    2  A    between atoms: N_10  and  C_11
REMARK    3  A    between atoms: C_13  and  N_14
REMARK                            x       y       z     vdW  Elec       q    Type
REMARK                         _______ _______ _______ _____ _____    ______ ____
ROOT
ATOM      1  C   UNL     1       0.697   0.247   0.129  0.00  0.00    +0.000 C 
ATOM      2  O   UNL     1       0.014   1.300   0.218  0.00  0.00    +0.000 OA
ATOM      3  N   UNL     1       0.020  -0.963  -0.080  0.00  0.00    +0.000 NA
ENDROOT
BRANCH   1  10
ATOM      4  C   UNL     1       4.648   3.069   0.787  0.00  0.00    +0.000 C 
ATOM      5  C   UNL     1       4.134   1.695   0.569  0.00  0.00    +0.000 A 
ATOM      6  C   UNL     1       4.935   0.583   0.480  0.00  0.00    +0.000 A 
ATOM      7  C   UNL     1       4.342  -0.649   0.274  0.00  0.00    +0.000 A 
ATOM      8  C   UNL     1       5.254  -1.821   0.185  0.00  0.00    +0.000 C 
ATOM      9  C   UNL     1       2.965  -0.779   0.157  0.00  0.00    +0.000 A 
ATOM     10  C   UNL     1       2.165   0.328   0.246  0.00  0.00    +0.000 A 
ATOM     11  C   UNL     1       2.766   1.541   0.449  0.00  0.00    +0.000 A 
ENDBRANCH   1  10
BRANCH   3  12
ATOM     12  C   UNL     1      -1.399  -0.990  -0.186  0.00  0.00    +0.000 A 
ATOM     13  C   UNL     1      -2.174   0.167  -0.090  0.00  0.00    +0.000 A 
ATOM     14  C   UNL     1      -3.549   0.121  -0.195  0.00  0.00    +0.000 A 
ATOM     15  C   UNL     1      -4.218  -1.067  -0.400  0.00  0.00    +0.000 A 
ATOM     16  C   UNL     1      -3.461  -2.215  -0.497  0.00  0.00    +0.000 A 
ATOM     17  C   UNL     1      -2.088  -2.168  -0.392  0.00  0.00    +0.000 A 
ATOM     18  C   UNL     1      -1.271  -3.423  -0.498  0.00  0.00    +0.000 C 
BRANCH  14  19
ATOM     19  N   UNL     1      -4.328   1.305  -0.096  0.00  0.00    +0.000 N 
ATOM     20  O   UNL     1      -3.768   2.418   0.092  0.00  0.00    +0.000 OA
ATOM     21  O   UNL     1      -5.684   1.302  -0.194  0.00  0.00    +0.000 OA
ENDBRANCH  14  19
ENDBRANCH   3  12
TORSDOF 3
