REMARK  Name = 
REMARK  5 active torsions:
REMARK  status: ('A' for Active; 'I' for Inactive)
REMARK    1  A    between atoms: C_2  and  C_4
REMARK    2  A    between atoms: C_4  and  C_5
REMARK    3  A    between atoms: C_5  and  C_7
REMARK    4  A    between atoms: N_9  and  C_10
REMARK    5  A    between atoms: C_15  and  C_16
REMARK                            x       y       z     vdW  Elec       q    Type
REMARK                         _______ _______ _______ _____ _____    ______ ____
ROOT
ATOM      1  C   UNL     1       1.109   0.074  -0.626  0.00  0.00    +0.000 C 
ATOM      2  O   UNL     1       1.563  -0.974  -0.157  0.00  0.00    +0.000 OA
ATOM      3  N   UNL     1      -0.265   0.358  -0.513  0.00  0.00    +0.000 NA
ENDROOT
BRANCH   3   4
ATOM      4  C   UNL     1      -1.193  -0.507   0.124  0.00  0.00    +0.000 A 
ATOM      5  C   UNL     1      -0.821  -1.699   0.685  0.00  0.00    +0.000 A 
ATOM      6  C   UNL     1      -1.747  -2.514   1.296  0.00  0.00    +0.000 A 
ATOM      7  C   UNL     1      -3.091  -2.173   1.373  0.00  0.00    +0.000 A 
ATOM      8  C   UNL     1      -3.446  -0.966   0.800  0.00  0.00    +0.000 A 
ATOM      9  C   UNL     1      -2.518  -0.140   0.183  0.00  0.00    +0.000 A 
BRANCH   9  10
ATOM     10  C   UNL     1      -2.952   1.113  -0.398  0.00  0.00    +0.000 C 
ATOM     11  N   UNL     1      -4.324   1.503  -0.342  0.00  0.00    +0.000 NA
ATOM     12  O   UNL     1      -2.137   1.881  -0.963  0.00  0.00    +0.000 OA
ENDBRANCH   9  10
ENDBRANCH   3   4
BRANCH   1  13
ATOM     13  C   UNL     1       1.918   1.138  -1.346  0.00  0.00    +0.000 C 
ATOM     14 BR   UNL     1       2.121   2.428   0.183  0.00  0.00    +0.000 Br
BRANCH  13  15
ATOM     15  C   UNL     1       3.357   0.542  -1.305  0.00  0.00    +0.000 C 
BRANCH  15  17
ATOM     16  C   UNL     1       3.648   0.731   1.201  0.00  0.00    +0.000 C 
ATOM     17  C   UNL     1       3.692  -0.112  -0.028  0.00  0.00    +0.000 C 
ATOM     18  C   UNL     1       5.085  -0.683  -0.166  0.00  0.00    +0.000 C 
ENDBRANCH  15  17
ENDBRANCH  13  15
ENDBRANCH   1  13
TORSDOF 5
