REMARK  Name = 
REMARK  2 active torsions:
REMARK  status: ('A' for Active; 'I' for Inactive)
REMARK    1  A    between atoms: C_6  and  C_7
REMARK    2  A    between atoms: N_11  and  C_12
REMARK                            x       y       z     vdW  Elec       q    Type
REMARK                         _______ _______ _______ _____ _____    ______ ____
ROOT
ATOM      1  C   UNL     1      -1.099  -2.296  -2.983  0.00  0.00    +0.000 C 
ATOM      2  C   UNL     1      -1.382  -1.309  -1.882  0.00  0.00    +0.000 A 
ATOM      3  C   UNL     1      -2.667  -0.859  -1.657  0.00  0.00    +0.000 A 
ATOM      4  C   UNL     1      -2.920   0.040  -0.652  0.00  0.00    +0.000 A 
ATOM      5  C   UNL     1      -4.301   0.560  -0.367  0.00  0.00    +0.000 C 
ATOM      6  C   UNL     1      -1.862   0.471   0.112  0.00  0.00    +0.000 A 
ATOM      7  C   UNL     1      -0.559   0.026  -0.104  0.00  0.00    +0.000 A 
ATOM      8  N   UNL     1       0.521   0.486   0.700  0.00  0.00    +0.000 NA
ATOM      9  N   UNL     1      -0.384  -0.855  -1.105  0.00  0.00    +0.000 NA
ENDROOT
BRANCH   8  10
ATOM     10  C   UNL     1       1.824  -0.009   0.427  0.00  0.00    +0.000 A 
ATOM     11  C   UNL     1       2.043  -0.911  -0.590  0.00  0.00    +0.000 A 
ATOM     12  C   UNL     1       3.297  -1.401  -0.870  0.00  0.00    +0.000 A 
ATOM     13  C   UNL     1       4.381  -0.991  -0.124  0.00  0.00    +0.000 A 
ATOM     14  C   UNL     1       4.157  -0.088   0.892  0.00  0.00    +0.000 A 
ATOM     15  C   UNL     1       2.911   0.415   1.189  0.00  0.00    +0.000 A 
ATOM     16 CL   UNL     1       2.639   1.567   2.488  0.00  0.00    +0.000 Cl
ENDBRANCH   8  10
BRANCH   6  17
ATOM     17  C   UNL     1      -2.071   1.417   1.183  0.00  0.00    +0.000 C 
ATOM     18  N   UNL     1      -3.391   1.903   1.442  0.00  0.00    +0.000 NA
ATOM     19  O   UNL     1      -1.136   1.835   1.902  0.00  0.00    +0.000 OA
ENDBRANCH   6  17
TORSDOF 2
