REMARK  Name = 
REMARK  3 active torsions:
REMARK  status: ('A' for Active; 'I' for Inactive)
REMARK    1  A    between atoms: C_2  and  C_3
REMARK    2  A    between atoms: C_4  and  N_5
REMARK    3  A    between atoms: C_6  and  C_8
REMARK                            x       y       z     vdW  Elec       q    Type
REMARK                         _______ _______ _______ _____ _____    ______ ____
ROOT
ATOM      1  C   UNL     1      -1.681   0.868   0.231  0.00  0.00    +0.000 A 
ATOM      2  C   UNL     1      -0.602   0.040   0.101  0.00  0.00    +0.000 A 
ATOM      3  S   UNL     1      -1.288  -1.505  -0.042  0.00  0.00    +0.000 S 
ATOM      4  C   UNL     1      -2.939  -1.073   0.067  0.00  0.00    +0.000 A 
ATOM      5  C   UNL     1      -2.904   0.283   0.213  0.00  0.00    +0.000 A 
ATOM      6  C   UNL     1      -4.228   1.052   0.349  0.00  0.00    +0.000 C 
ATOM      7  C   UNL     1      -5.306   0.091   0.657  0.00  0.00    +0.000 C 
ATOM      8  C   UNL     1      -5.355  -1.074  -0.310  0.00  0.00    +0.000 C 
ATOM      9  C   UNL     1      -4.164  -1.926   0.024  0.00  0.00    +0.000 C 
ENDROOT
BRANCH   2  10
ATOM     10  N   UNL     1       0.806   0.362   0.084  0.00  0.00    +0.000 NA
ATOM     11  C   UNL     1       1.760  -0.678  -0.065  0.00  0.00    +0.000 C 
ATOM     12  O   UNL     1       1.337  -1.849  -0.178  0.00  0.00    +0.000 OA
BRANCH  11  13
ATOM     13  C   UNL     1       3.170  -0.384  -0.085  0.00  0.00    +0.000 A 
ATOM     14  C   UNL     1       3.612   0.915   0.041  0.00  0.00    +0.000 A 
ATOM     15  C   UNL     1       4.956   1.254   0.029  0.00  0.00    +0.000 A 
ATOM     16  C   UNL     1       5.895   0.250  -0.116  0.00  0.00    +0.000 A 
ATOM     17  C   UNL     1       5.475  -1.055  -0.243  0.00  0.00    +0.000 A 
ATOM     18  C   UNL     1       4.124  -1.361  -0.227  0.00  0.00    +0.000 A 
ENDBRANCH  11  13
ENDBRANCH   2  10
BRANCH   1  20
ATOM     19  N   UNL     1      -1.226   3.472   0.498  0.00  0.00    +0.000 NA
ATOM     20  C   UNL     1      -1.441   2.318   0.380  0.00  0.00    +0.000 C 
ENDBRANCH   1  20
TORSDOF 3
