REMARK  Name = 
REMARK  3 active torsions:
REMARK  status: ('A' for Active; 'I' for Inactive)
REMARK    1  A    between atoms: C_4  and  N_5
REMARK    2  A    between atoms: N_5  and  N_6
REMARK    3  A    between atoms: C_7  and  C_9
REMARK                            x       y       z     vdW  Elec       q    Type
REMARK                         _______ _______ _______ _____ _____    ______ ____
ROOT
ATOM      1  N   UNL     1       0.957  -1.339  -0.880  0.00  0.00    +0.000 NA
ENDROOT
BRANCH   1   5
ATOM      2  C   UNL     1       1.482   0.176   2.145  0.00  0.00    +0.000 C 
ATOM      3  C   UNL     1       1.818   0.422   0.607  0.00  0.00    +0.000 C 
ATOM      4  C   UNL     1       2.523  -1.173   0.295  0.00  0.00    +0.000 C 
ATOM      5  C   UNL     1       2.090  -1.091  -0.065  0.00  0.00    +0.000 C 
ATOM      6  C   UNL     1       2.849  -0.066   0.248  0.00  0.00    +0.000 C 
ATOM      7  C   UNL     1       3.318   1.283   0.253  0.00  0.00    +0.000 C 
ATOM      8  C   UNL     1       4.377   1.482  -0.860  0.00  0.00    +0.000 C 
ATOM      9  C   UNL     1       2.433   2.511   0.232  0.00  0.00    +0.000 C 
ATOM     10  C   UNL     1       3.429   0.801   0.946  0.00  0.00    +0.000 C 
ENDBRANCH   1   5
BRANCH   1  11
ATOM     11  N   UNL     1      -0.214  -0.664  -0.734  0.00  0.00    +0.000 NA
ATOM     12  C   UNL     1      -1.326  -1.240  -0.132  0.00  0.00    +0.000 C 
ATOM     13  O   UNL     1      -1.238  -2.432   0.278  0.00  0.00    +0.000 OA
BRANCH  12  14
ATOM     14  C   UNL     1      -2.571  -0.496   0.031  0.00  0.00    +0.000 A 
ATOM     15  C   UNL     1      -2.652   0.832  -0.323  0.00  0.00    +0.000 A 
ATOM     16  C   UNL     1      -3.820   1.553  -0.162  0.00  0.00    +0.000 A 
ATOM     17  C   UNL     1      -4.939   0.945   0.364  0.00  0.00    +0.000 A 
ATOM     18  C   UNL     1      -4.843  -0.403   0.720  0.00  0.00    +0.000 A 
ATOM     19  C   UNL     1      -3.673  -1.101   0.551  0.00  0.00    +0.000 A 
ENDBRANCH  12  14
ENDBRANCH   1  11
TORSDOF 3
