REMARK  Name = 
REMARK  3 active torsions:
REMARK  status: ('A' for Active; 'I' for Inactive)
REMARK    1  A    between atoms: C_6  and  N_7
REMARK    2  A    between atoms: N_7  and  C_8
REMARK    3  A    between atoms: C_17  and  N_18
REMARK                            x       y       z     vdW  Elec       q    Type
REMARK                         _______ _______ _______ _____ _____    ______ ____
ROOT
ATOM      1  C   UNL     1       0.027  -0.440  -0.008  0.00  0.00    +0.000 A 
ATOM      2  N   UNL     1       0.397   0.849   0.002  0.00  0.00    +0.000 NA
ATOM      3  C   UNL     1       1.737   0.949  -0.051  0.00  0.00    +0.000 A 
ATOM      4  C   UNL     1       2.599   2.056  -0.064  0.00  0.00    +0.000 A 
ATOM      5  C   UNL     1       3.966   1.881  -0.123  0.00  0.00    +0.000 A 
ATOM      6  C   UNL     1       4.907   3.039  -0.139  0.00  0.00    +0.000 C 
ATOM      7  C   UNL     1       4.455   0.582  -0.169  0.00  0.00    +0.000 A 
ATOM      8  C   UNL     1       3.595  -0.523  -0.156  0.00  0.00    +0.000 A 
ATOM      9  C   UNL     1       2.221  -0.334  -0.096  0.00  0.00    +0.000 A 
ATOM     10  C   UNL     1       1.169  -1.219  -0.070  0.00  0.00    +0.000 A 
ENDROOT
BRANCH  10  11
ATOM     11  N   UNL     1       1.224  -2.653  -0.101  0.00  0.00    +0.000 N 
ATOM     12  O   UNL     1       1.600  -3.257   0.912  0.00  0.00    +0.000 OA
ATOM     13  O   UNL     1       0.879  -3.367  -1.205  0.00  0.00    +0.000 OA
ENDBRANCH  10  11
BRANCH   1  14
ATOM     14  N   UNL     1      -1.296  -0.945   0.035  0.00  0.00    +0.000 NA
BRANCH  14  20
ATOM     15  C   UNL     1      -6.186  -0.511   0.261  0.00  0.00    +0.000 C 
ATOM     16  C   UNL     1      -4.798   0.051   0.208  0.00  0.00    +0.000 A 
ATOM     17  C   UNL     1      -4.680   1.422   0.225  0.00  0.00    +0.000 A 
ATOM     18  C   UNL     1      -3.417   2.029   0.178  0.00  0.00    +0.000 A 
ATOM     19  C   UNL     1      -2.281   1.242   0.115  0.00  0.00    +0.000 A 
ATOM     20  C   UNL     1      -2.431  -0.119   0.099  0.00  0.00    +0.000 A 
ATOM     21  C   UNL     1      -3.688  -0.734   0.145  0.00  0.00    +0.000 A 
ENDBRANCH  14  20
ENDBRANCH   1  14
TORSDOF 3
