REMARK  Name = 
REMARK  2 active torsions:
REMARK  status: ('A' for Active; 'I' for Inactive)
REMARK    1  A    between atoms: C_6  and  N_7
REMARK    2  A    between atoms: C_11  and  C_12
REMARK                            x       y       z     vdW  Elec       q    Type
REMARK                         _______ _______ _______ _____ _____    ______ ____
ROOT
ATOM      1  N   UNL     1      -1.318   0.133  -0.373  0.00  0.00    +0.000 N 
ATOM      2  C   UNL     1      -1.218   0.977  -1.411  0.00  0.00    +0.000 A 
ATOM      3  C   UNL     1      -2.282   1.788  -2.065  0.00  0.00    +0.000 C 
ATOM      4  C   UNL     1       0.097   0.994  -1.821  0.00  0.00    +0.000 A 
ATOM      5  C   UNL     1       0.839   0.128  -1.005  0.00  0.00    +0.000 A 
ATOM      6  C   UNL     1      -0.079  -0.382  -0.125  0.00  0.00    +0.000 A 
ATOM      7  C   UNL     1       0.200  -1.380   0.921  0.00  0.00    +0.000 C 
ENDROOT
BRANCH   5   8
ATOM      8  C   UNL     1       2.243  -0.096  -1.230  0.00  0.00    +0.000 C 
ATOM      9  C   UNL     1       3.236   0.097  -0.423  0.00  0.00    +0.000 C 
ATOM     10  N   UNL     1       4.614  -0.163  -0.732  0.00  0.00    +0.000 NA
ATOM     11  C   UNL     1       5.367   0.234   0.407  0.00  0.00    +0.000 C 
ATOM     12  O   UNL     1       6.623   0.131   0.449  0.00  0.00    +0.000 OA
ATOM     13  N   UNL     1       4.478   0.730   1.399  0.00  0.00    +0.000 NA
ATOM     14  C   UNL     1       3.141   0.653   0.899  0.00  0.00    +0.000 C 
ATOM     15  O   UNL     1       2.088   1.002   1.488  0.00  0.00    +0.000 OA
ENDBRANCH   5   8
BRANCH   1  21
ATOM     16  C   UNL     1      -5.597  -2.232  -0.192  0.00  0.00    +0.000 C 
ATOM     17  C   UNL     1      -4.632  -1.289   0.434  0.00  0.00    +0.000 A 
ATOM     18  C   UNL     1      -4.947  -0.724   1.652  0.00  0.00    +0.000 A 
ATOM     19  C   UNL     1      -4.013   0.139   2.178  0.00  0.00    +0.000 A 
ATOM     20  C   UNL     1      -2.837   0.423   1.532  0.00  0.00    +0.000 A 
ATOM     21  C   UNL     1      -2.543  -0.148   0.325  0.00  0.00    +0.000 A 
ATOM     22  C   UNL     1      -3.458  -1.016  -0.228  0.00  0.00    +0.000 A 
ENDBRANCH   1  21
TORSDOF 2
