REMARK  Name = 
REMARK  4 active torsions:
REMARK  status: ('A' for Active; 'I' for Inactive)
REMARK    1  A    between atoms: C_2  and  C_4
REMARK    2  A    between atoms: C_4  and  C_5
REMARK    3  A    between atoms: C_5  and  C_6
REMARK    4  A    between atoms: C_9  and  C_10
REMARK                            x       y       z     vdW  Elec       q    Type
REMARK                         _______ _______ _______ _____ _____    ______ ____
ROOT
ATOM      1  C   UNL     1       1.778  -1.166   0.978  0.00  0.00    +0.000 A 
ATOM      2  C   UNL     1       1.136  -0.611   2.081  0.00  0.00    +0.000 A 
ATOM      3  C   UNL     1      -0.118  -0.028   1.945  0.00  0.00    +0.000 A 
ATOM      4  C   UNL     1      -0.718  -0.007   0.702  0.00  0.00    +0.000 A 
ATOM      5  C   UNL     1      -0.102  -0.545  -0.384  0.00  0.00    +0.000 A 
ATOM      6  C   UNL     1       1.139  -1.120  -0.241  0.00  0.00    +0.000 A 
ENDROOT
BRANCH   4   7
ATOM      7  C   UNL     1      -2.061   0.628   0.604  0.00  0.00    +0.000 C 
ATOM      8  C   UNL     1      -2.388   1.415   1.849  0.00  0.00    +0.000 C 
ATOM      9  N   UNL     1      -3.086  -0.374   0.394  0.00  0.00    +0.000 NA
ATOM     10  C   UNL     1      -3.911   0.093  -0.666  0.00  0.00    +0.000 C 
ATOM     11  O   UNL     1      -4.984  -0.472  -0.999  0.00  0.00    +0.000 OA
ATOM     12  N   UNL     1      -3.347   1.257  -1.265  0.00  0.00    +0.000 NA
ATOM     13  C   UNL     1      -2.153   1.514  -0.563  0.00  0.00    +0.000 C 
ATOM     14  O   UNL     1      -1.303   2.376  -0.898  0.00  0.00    +0.000 OA
ENDBRANCH   4   7
BRANCH   1  15
ATOM     15  C   UNL     1       3.123  -1.794   1.111  0.00  0.00    +0.000 C 
BRANCH  15  16
ATOM     16  C   UNL     1       4.158  -0.715   0.874  0.00  0.00    +0.000 C 
BRANCH  16  18
ATOM     17  C   UNL     1       4.957   0.930  -0.833  0.00  0.00    +0.000 C 
ATOM     18  C   UNL     1       3.961  -0.148  -0.530  0.00  0.00    +0.000 C 
ATOM     19  C   UNL     1       3.921  -1.235  -1.571  0.00  0.00    +0.000 C 
ENDBRANCH  16  18
ENDBRANCH  15  16
ENDBRANCH   1  15
TORSDOF 4
