REMARK  Name = 
REMARK  1 active torsions:
REMARK  status: ('A' for Active; 'I' for Inactive)
REMARK    1  A    between atoms: C_7  and  C_9
REMARK                            x       y       z     vdW  Elec       q    Type
REMARK                         _______ _______ _______ _____ _____    ______ ____
ROOT
ATOM      1  C   UNL     1      -0.493  -0.217  -0.619  0.00  0.00    +0.000 A 
ATOM      2  C   UNL     1      -1.230  -0.521  -1.743  0.00  0.00    +0.000 A 
ATOM      3  C   UNL     1      -2.607  -0.352  -1.776  0.00  0.00    +0.000 A 
ATOM      4  C   UNL     1      -3.287   0.127  -0.682  0.00  0.00    +0.000 A 
ATOM      5  N   UNL     1      -4.600   0.373  -0.474  0.00  0.00    +0.000 NA
ATOM      6  C   UNL     1      -4.752   0.843   0.789  0.00  0.00    +0.000 A 
ATOM      7  C   UNL     1      -6.064   1.214   1.349  0.00  0.00    +0.000 C 
ATOM      8  C   UNL     1      -3.497   0.886   1.371  0.00  0.00    +0.000 A 
ATOM      9  C   UNL     1      -3.210   1.341   2.754  0.00  0.00    +0.000 C 
ATOM     10  C   UNL     1      -2.566   0.436   0.452  0.00  0.00    +0.000 A 
ATOM     11  C   UNL     1      -1.189   0.263   0.472  0.00  0.00    +0.000 A 
ENDROOT
BRANCH   1  18
ATOM     12  C   UNL     1       7.174  -0.607   1.105  0.00  0.00    +0.000 C 
ATOM     13  C   UNL     1       5.708  -0.535   0.768  0.00  0.00    +0.000 A 
ATOM     14  C   UNL     1       5.100  -0.874  -0.408  0.00  0.00    +0.000 A 
ATOM     15  N   UNL     1       3.822  -0.740  -0.502  0.00  0.00    +0.000 NA
ATOM     16  C   UNL     1       3.128  -0.283   0.526  0.00  0.00    +0.000 A 
ATOM     17  N   UNL     1       1.723  -0.084   0.568  0.00  0.00    +0.000 NA
ATOM     18  C   UNL     1       0.967  -0.396  -0.587  0.00  0.00    +0.000 C 
ATOM     19  O   UNL     1       1.515  -0.841  -1.635  0.00  0.00    +0.000 OA
ATOM     20  S   UNL     1       4.356  -0.032   1.683  0.00  0.00    +0.000 S 
ENDBRANCH   1  18
TORSDOF 1
