REMARK  Name = 
REMARK  2 active torsions:
REMARK  status: ('A' for Active; 'I' for Inactive)
REMARK    1  A    between atoms: S_2  and  C_3
REMARK    2  A    between atoms: C_8  and  C_9
REMARK                            x       y       z     vdW  Elec       q    Type
REMARK                         _______ _______ _______ _____ _____    ______ ____
ROOT
ATOM      1  C   UNL     1      -0.060  -0.541  -0.348  0.00  0.00    +0.000 A 
ATOM      2  N   UNL     1      -0.253  -1.871  -0.206  0.00  0.00    +0.000 NA
ATOM      3  C   UNL     1      -1.427  -2.382   0.248  0.00  0.00    +0.000 A 
ATOM      4  N   UNL     1      -1.632  -3.808   0.391  0.00  0.00    +0.000 NA
ATOM      5  N   UNL     1      -2.413  -1.542   0.561  0.00  0.00    +0.000 NA
ATOM      6  C   UNL     1      -2.268  -0.211   0.437  0.00  0.00    +0.000 A 
ATOM      7  C   UNL     1      -1.071   0.340  -0.028  0.00  0.00    +0.000 A 
ATOM      8  C   UNL     1      -0.712   1.771  -0.244  0.00  0.00    +0.000 C 
ATOM      9  C   UNL     1      -1.960   2.618  -0.140  0.00  0.00    +0.000 C 
ATOM     10  C   UNL     1      -2.386   2.664   1.304  0.00  0.00    +0.000 C 
ATOM     11  C   UNL     1      -3.536   1.756   1.604  0.00  0.00    +0.000 C 
ATOM     12  N   UNL     1      -3.396   0.533   0.820  0.00  0.00    +0.000 NA
ENDROOT
BRANCH   1  18
ATOM     13  C   UNL     1       2.405  -0.201  -0.146  0.00  0.00    +0.000 A 
ATOM     14  C   UNL     1       3.595   0.253  -0.635  0.00  0.00    +0.000 A 
ATOM     15  C   UNL     1       3.666   0.901  -1.840  0.00  0.00    +0.000 A 
ATOM     16  C   UNL     1       2.512   1.091  -2.555  0.00  0.00    +0.000 A 
ATOM     17  C   UNL     1       1.296   0.618  -2.038  0.00  0.00    +0.000 A 
ATOM     18  C   UNL     1       1.222  -0.036  -0.825  0.00  0.00    +0.000 A 
BRANCH  13  20
ATOM     19  C   UNL     1       4.040  -0.955   2.178  0.00  0.00    +0.000 C 
ATOM     20  S   UNL     1       2.378  -1.000   1.461  0.00  0.00    +0.000 S 
ENDBRANCH  13  20
ENDBRANCH   1  18
TORSDOF 2
