REMARK  Name = 
REMARK  6 active torsions:
REMARK  status: ('A' for Active; 'I' for Inactive)
REMARK    1  A    between atoms: C_2  and  C_4
REMARK    2  A    between atoms: C_4  and  C_5
REMARK    3  A    between atoms: N_7  and  C_8
REMARK    4  A    between atoms: C_8  and  N_10
REMARK    5  A    between atoms: N_10  and  C_11
REMARK    6  A    between atoms: C_14  and  N_15
REMARK                            x       y       z     vdW  Elec       q    Type
REMARK                         _______ _______ _______ _____ _____    ______ ____
ROOT
ATOM      1  N   UNL     1      -0.598   2.179   0.623  0.00  0.00    +0.000 NA
ENDROOT
BRANCH   1   2
ATOM      2  C   UNL     1      -1.494   1.068   0.556  0.00  0.00    +0.000 A 
ATOM      3  C   UNL     1      -1.105  -0.182   0.148  0.00  0.00    +0.000 A 
ATOM      4  C   UNL     1      -1.953  -1.260   0.077  0.00  0.00    +0.000 A 
ATOM      5  C   UNL     1      -3.268  -1.077   0.436  0.00  0.00    +0.000 A 
ATOM      6  C   UNL     1      -3.703   0.172   0.855  0.00  0.00    +0.000 A 
ATOM      7  C   UNL     1      -2.817   1.235   0.912  0.00  0.00    +0.000 A 
BRANCH   5   8
ATOM      8  N   UNL     1      -4.143  -2.183   0.365  0.00  0.00    +0.000 N 
ATOM      9  O   UNL     1      -3.732  -3.287  -0.011  0.00  0.00    +0.000 OA
ATOM     10  O   UNL     1      -5.455  -2.043   0.713  0.00  0.00    +0.000 OA
ENDBRANCH   5   8
ENDBRANCH   1   2
BRANCH   1  11
ATOM     11  C   UNL     1       0.756   2.060   0.271  0.00  0.00    +0.000 C 
ATOM     12  S   UNL     1       1.737   3.354   0.364  0.00  0.00    +0.000 S 
BRANCH  11  15
ATOM     13  C   UNL     1       2.654   0.662  -0.534  0.00  0.00    +0.000 C 
ATOM     14  O   UNL     1       3.446   1.636  -0.476  0.00  0.00    +0.000 OA
ATOM     15  N   UNL     1       1.291   0.803  -0.174  0.00  0.00    +0.000 NA
BRANCH  13  16
ATOM     16  C   UNL     1       3.182  -0.638  -0.988  0.00  0.00    +0.000 C 
BRANCH  16  18
ATOM     17  C   UNL     1       5.194  -1.877  -1.779  0.00  0.00    +0.000 C 
ATOM     18  C   UNL     1       4.655  -0.547  -1.315  0.00  0.00    +0.000 C 
ATOM     19  C   UNL     1       5.352  -0.073  -0.044  0.00  0.00    +0.000 C 
ENDBRANCH  16  18
ENDBRANCH  13  16
ENDBRANCH  11  15
ENDBRANCH   1  11
TORSDOF 6
