REMARK  Name = 
REMARK  4 active torsions:
REMARK  status: ('A' for Active; 'I' for Inactive)
REMARK    1  A    between atoms: C_2  and  C_3
REMARK    2  A    between atoms: C_2  and  C_12
REMARK    3  A    between atoms: C_6  and  N_7
REMARK    4  A    between atoms: C_18  and  N_19
REMARK                            x       y       z     vdW  Elec       q    Type
REMARK                         _______ _______ _______ _____ _____    ______ ____
ROOT
ATOM      1  C   UNL     1      -0.798  -2.767   0.181  0.00  0.00    +0.000 C 
ATOM      2  C   UNL     1      -0.375  -1.396   0.959  0.00  0.00    +0.000 C 
ENDROOT
BRANCH   2   3
ATOM      3  C   UNL     1      -1.437  -0.463   0.297  0.00  0.00    +0.000 A 
ATOM      4  C   UNL     1      -1.684  -0.399  -1.016  0.00  0.00    +0.000 A 
ATOM      5  C   UNL     1      -2.640   0.449  -1.579  0.00  0.00    +0.000 A 
ATOM      6  C   UNL     1      -3.363   1.256  -0.749  0.00  0.00    +0.000 A 
ATOM      7  N   UNL     1      -4.366   2.155  -1.275  0.00  0.00    +0.000 NA
ATOM      8  C   UNL     1      -3.134   1.215   0.606  0.00  0.00    +0.000 A 
ATOM      9  C   UNL     1      -2.159   0.344   1.138  0.00  0.00    +0.000 A 
BRANCH   9  10
ATOM     10  N   UNL     1      -1.987   0.363   2.538  0.00  0.00    +0.000 N 
ATOM     11  O   UNL     1      -2.929   0.684   3.272  0.00  0.00    +0.000 OA
ATOM     12  O   UNL     1      -0.762   0.020   3.030  0.00  0.00    +0.000 OA
ENDBRANCH   9  10
ENDBRANCH   2   3
BRANCH   2  13
ATOM     13  C   UNL     1       0.845  -0.997   0.080  0.00  0.00    +0.000 A 
ATOM     14  C   UNL     1       1.226  -1.545  -1.069  0.00  0.00    +0.000 A 
ATOM     15  C   UNL     1       2.345  -1.084  -1.753  0.00  0.00    +0.000 A 
ATOM     16  C   UNL     1       3.090  -0.053  -1.266  0.00  0.00    +0.000 A 
ATOM     17  C   UNL     1       2.714   0.530  -0.078  0.00  0.00    +0.000 A 
ATOM     18  C   UNL     1       1.583   0.037   0.577  0.00  0.00    +0.000 A 
BRANCH  16  19
ATOM     19  N   UNL     1       4.242   0.403  -1.993  0.00  0.00    +0.000 N 
ATOM     20  C   UNL     1       5.004   1.484  -1.442  0.00  0.00    +0.000 C 
ATOM     21  C   UNL     1       4.585  -0.235  -3.235  0.00  0.00    +0.000 C 
ENDBRANCH  16  19
ENDBRANCH   2  13
TORSDOF 4
