REMARK  Name = 
REMARK  2 active torsions:
REMARK  status: ('A' for Active; 'I' for Inactive)
REMARK    1  A    between atoms: C_2  and  N_3
REMARK    2  A    between atoms: C_8  and  C_9
REMARK                            x       y       z     vdW  Elec       q    Type
REMARK                         _______ _______ _______ _____ _____    ______ ____
ROOT
ATOM      1  N   UNL     1      -0.424   0.711   0.634  0.00  0.00    +0.000 N 
ATOM      2  C   UNL     1      -1.715   0.865   0.270  0.00  0.00    +0.000 A 
ATOM      3  C   UNL     1      -1.898   0.175  -0.908  0.00  0.00    +0.000 A 
ATOM      4  C   UNL     1      -0.675  -0.389  -1.224  0.00  0.00    +0.000 A 
ATOM      5  C   UNL     1      -0.433  -1.216  -2.418  0.00  0.00    +0.000 C 
ATOM      6  C   UNL     1       0.239  -0.048  -0.255  0.00  0.00    +0.000 A 
ATOM      7  C   UNL     1      -3.253   0.194  -1.515  0.00  0.00    +0.000 C 
ATOM      8  C   UNL     1      -4.238   0.040  -0.423  0.00  0.00    +0.000 C 
ATOM      9  O   UNL     1      -5.178  -0.703  -0.587  0.00  0.00    +0.000 OA
ATOM     10  C   UNL     1      -4.123   0.756   0.866  0.00  0.00    +0.000 C 
ATOM     11  C   UNL     1      -2.855   1.611   0.912  0.00  0.00    +0.000 C 
ENDROOT
BRANCH   6  12
ATOM     12  C   UNL     1       1.646  -0.421  -0.183  0.00  0.00    +0.000 A 
ATOM     13  C   UNL     1       2.264  -1.201  -1.125  0.00  0.00    +0.000 A 
ATOM     14  C   UNL     1       3.602  -1.542  -1.034  0.00  0.00    +0.000 A 
ATOM     15  C   UNL     1       4.373  -1.103   0.023  0.00  0.00    +0.000 A 
ATOM     16  O   UNL     1       5.726  -1.447   0.114  0.00  0.00    +0.000 OA
ATOM     17  C   UNL     1       3.758  -0.317   0.976  0.00  0.00    +0.000 A 
ATOM     18  C   UNL     1       2.418   0.017   0.874  0.00  0.00    +0.000 A 
ENDBRANCH   6  12
BRANCH   1  20
ATOM     19  C   UNL     1       0.650   2.698   1.527  0.00  0.00    +0.000 C 
ATOM     20  C   UNL     1       0.117   1.320   1.851  0.00  0.00    +0.000 C 
ENDBRANCH   1  20
TORSDOF 2
