REMARK  Name = 
REMARK  5 active torsions:
REMARK  status: ('A' for Active; 'I' for Inactive)
REMARK    1  A    between atoms: C_2  and  C_3
REMARK    2  A    between atoms: C_3  and  C_4
REMARK    3  A    between atoms: C_4  and  C_5
REMARK    4  A    between atoms: C_5  and  N_6
REMARK    5  A    between atoms: C_10  and  C_11
REMARK                            x       y       z     vdW  Elec       q    Type
REMARK                         _______ _______ _______ _____ _____    ______ ____
ROOT
ATOM      1  N   UNL     1       1.168  -0.568  -0.097  0.00  0.00    +0.000 N 
ATOM      2  C   UNL     1       0.626  -1.860  -0.435  0.00  0.00    +0.000 C 
ATOM      3  C   UNL     1      -0.831  -1.659  -0.306  0.00  0.00    +0.000 C 
ATOM      4  O   UNL     1      -1.757  -2.527  -0.432  0.00  0.00    +0.000 OA
ATOM      5  C   UNL     1      -1.061  -0.257  -0.002  0.00  0.00    +0.000 C 
ATOM      6  C   UNL     1       0.106   0.357   0.114  0.00  0.00    +0.000 C 
ATOM      7  N   UNL     1       0.276   1.754   0.422  0.00  0.00    +0.000 NA
ENDROOT
BRANCH   5   8
ATOM      8  C   UNL     1      -2.344   0.447   0.164  0.00  0.00    +0.000 A 
ATOM      9  C   UNL     1      -2.554   1.696  -0.388  0.00  0.00    +0.000 A 
ATOM     10  C   UNL     1      -3.759   2.391  -0.224  0.00  0.00    +0.000 A 
ATOM     11  C   UNL     1      -4.782   1.837   0.505  0.00  0.00    +0.000 A 
ATOM     12  C   UNL     1      -4.601   0.596   1.066  0.00  0.00    +0.000 A 
ATOM     13  C   UNL     1      -3.386  -0.088   0.891  0.00  0.00    +0.000 A 
ENDBRANCH   5   8
BRANCH   1  14
ATOM     14  C   UNL     1       2.569  -0.271   0.021  0.00  0.00    +0.000 C 
BRANCH  14  15
ATOM     15  C   UNL     1       3.339  -0.329  -1.257  0.00  0.00    +0.000 C 
BRANCH  15  16
ATOM     16  C   UNL     1       4.788   0.010  -0.949  0.00  0.00    +0.000 C 
BRANCH  16  18
ATOM     17  C   UNL     1       6.823  -0.548   0.283  0.00  0.00    +0.000 C 
ATOM     18  C   UNL     1       5.380  -0.980   0.052  0.00  0.00    +0.000 C 
ENDBRANCH  16  18
ENDBRANCH  15  16
ENDBRANCH  14  15
ENDBRANCH   1  14
TORSDOF 5
