REMARK  Name = 
REMARK  3 active torsions:
REMARK  status: ('A' for Active; 'I' for Inactive)
REMARK    1  A    between atoms: C_8  and  N_9
REMARK    2  A    between atoms: C_10  and  C_12
REMARK    3  A    between atoms: C_16  and  N_17
REMARK                            x       y       z     vdW  Elec       q    Type
REMARK                         _______ _______ _______ _____ _____    ______ ____
ROOT
ATOM      1  N   UNL     1      -1.051   0.271  -0.672  0.00  0.00    +0.000 NA
ATOM      2  C   UNL     1      -0.311  -0.713   0.030  0.00  0.00    +0.000 C 
ATOM      3  O   UNL     1      -0.928  -1.503   0.851  0.00  0.00    +0.000 OA
ENDROOT
BRANCH   1  11
ATOM      4  C   UNL     1      -2.588  -1.876  -1.465  0.00  0.00    +0.000 C 
ATOM      5  C   UNL     1      -3.274  -0.733  -0.803  0.00  0.00    +0.000 A 
ATOM      6  C   UNL     1      -4.652  -0.733  -0.597  0.00  0.00    +0.000 A 
ATOM      7  C   UNL     1      -5.209   0.370   0.032  0.00  0.00    +0.000 A 
ATOM      8  C   UNL     1      -4.433   1.413   0.428  0.00  0.00    +0.000 A 
ATOM      9  C   UNL     1      -3.054   1.377   0.208  0.00  0.00    +0.000 A 
ATOM     10  C   UNL     1      -2.196   2.511   0.646  0.00  0.00    +0.000 C 
ATOM     11  C   UNL     1      -2.456   0.317  -0.406  0.00  0.00    +0.000 A 
ENDBRANCH   1  11
BRANCH   2  12
ATOM     12  C   UNL     1       1.117  -0.873  -0.161  0.00  0.00    +0.000 A 
ATOM     13  C   UNL     1       1.626  -2.084  -0.661  0.00  0.00    +0.000 A 
ATOM     14  C   UNL     1       2.975  -2.257  -0.918  0.00  0.00    +0.000 A 
ATOM     15  C   UNL     1       3.836  -1.210  -0.673  0.00  0.00    +0.000 A 
ATOM     16  C   UNL     1       3.376   0.001  -0.178  0.00  0.00    +0.000 A 
ATOM     17  C   UNL     1       2.005   0.146   0.072  0.00  0.00    +0.000 A 
ATOM     18  C   UNL     1       1.537   1.450   0.607  0.00  0.00    +0.000 C 
BRANCH  16  19
ATOM     19  N   UNL     1       4.254   1.062   0.131  0.00  0.00    +0.000 N 
ATOM     20  O   UNL     1       3.884   2.240   0.024  0.00  0.00    +0.000 OA
ATOM     21  O   UNL     1       5.541   0.823   0.570  0.00  0.00    +0.000 OA
ENDBRANCH  16  19
ENDBRANCH   2  12
TORSDOF 3
