REMARK  Name = 
REMARK  2 active torsions:
REMARK  status: ('A' for Active; 'I' for Inactive)
REMARK    1  A    between atoms: C_7  and  N_8
REMARK    2  A    between atoms: C_9  and  C_11
REMARK                            x       y       z     vdW  Elec       q    Type
REMARK                         _______ _______ _______ _____ _____    ______ ____
ROOT
ATOM      1  N   UNL     1       1.314   0.535  -0.348  0.00  0.00    +0.000 NA
ATOM      2  C   UNL     1       0.396  -0.434  -0.755  0.00  0.00    +0.000 C 
ATOM      3  O   UNL     1       0.774  -1.383  -1.483  0.00  0.00    +0.000 OA
ENDROOT
BRANCH   2   4
ATOM      4  C   UNL     1      -0.999  -0.340  -0.335  0.00  0.00    +0.000 A 
ATOM      5  N   UNL     1      -1.995  -1.172  -0.619  0.00  0.00    +0.000 NA
ATOM      6  C   UNL     1      -3.146  -0.727  -0.041  0.00  0.00    +0.000 A 
ATOM      7  C   UNL     1      -4.447  -1.184  -0.006  0.00  0.00    +0.000 A 
ATOM      8  C   UNL     1      -5.439  -0.517   0.676  0.00  0.00    +0.000 A 
ATOM      9  C   UNL     1      -5.120   0.638   1.340  0.00  0.00    +0.000 A 
ATOM     10  C   UNL     1      -3.833   1.107   1.317  0.00  0.00    +0.000 A 
ATOM     11  C   UNL     1      -2.841   0.432   0.629  0.00  0.00    +0.000 A 
ATOM     12  N   UNL     1      -1.529   0.638   0.429  0.00  0.00    +0.000 NA
ENDBRANCH   2   4
BRANCH   1  19
ATOM     13  C   UNL     1       2.845  -1.686   0.524  0.00  0.00    +0.000 C 
ATOM     14  C   UNL     1       3.358  -0.128   0.667  0.00  0.00    +0.000 C 
ATOM     15  C   UNL     1       4.847  -0.485   0.103  0.00  0.00    +0.000 C 
ATOM     16  C   UNL     1       5.263   0.602  -0.818  0.00  0.00    +0.000 C 
ATOM     17  C   UNL     1       4.636   1.923  -0.536  0.00  0.00    +0.000 C 
ATOM     18  C   UNL     1       3.154   1.895  -0.680  0.00  0.00    +0.000 C 
ATOM     19  C   UNL     1       2.762   0.285  -0.890  0.00  0.00    +0.000 C 
ENDBRANCH   1  19
TORSDOF 2
