REMARK  Name = 
REMARK  4 active torsions:
REMARK  status: ('A' for Active; 'I' for Inactive)
REMARK    1  A    between atoms: C_2  and  C_5
REMARK    2  A    between atoms: C_8  and  N_9
REMARK    3  A    between atoms: N_9  and  S_10
REMARK    4  A    between atoms: S_10  and  C_13
REMARK                            x       y       z     vdW  Elec       q    Type
REMARK                         _______ _______ _______ _____ _____    ______ ____
ROOT
ATOM      1  C   UNL     1      -2.953  -0.224   0.651  0.00  0.00    +0.000 A 
ATOM      2  C   UNL     1      -2.493   0.055  -0.603  0.00  0.00    +0.000 A 
ATOM      3  C   UNL     1      -1.221  -0.284  -0.982  0.00  0.00    +0.000 A 
ATOM      4  C   UNL     1      -0.316  -0.927  -0.128  0.00  0.00    +0.000 A 
ATOM      5  C   UNL     1      -0.800  -1.199   1.140  0.00  0.00    +0.000 A 
ATOM      6  C   UNL     1      -2.071  -0.862   1.518  0.00  0.00    +0.000 A 
ENDROOT
BRANCH   1   8
ATOM      7  C   UNL     1      -5.290  -1.034   0.982  0.00  0.00    +0.000 C 
ATOM      8  C   UNL     1      -4.331   0.141   1.120  0.00  0.00    +0.000 C 
ATOM      9  C   UNL     1      -4.269   0.465   2.614  0.00  0.00    +0.000 C 
ATOM     10  C   UNL     1      -4.918   1.322   0.412  0.00  0.00    +0.000 C 
ENDBRANCH   1   8
BRANCH   4  11
ATOM     11  N   UNL     1       0.988  -1.271  -0.553  0.00  0.00    +0.000 NA
BRANCH  11  12
ATOM     12  S   UNL     1       1.935  -0.133  -1.430  0.00  0.00    +0.000 S 
ATOM     13  O   UNL     1       1.088   1.093  -1.751  0.00  0.00    +0.000 OA
ATOM     14  O   UNL     1       2.388  -0.708  -2.723  0.00  0.00    +0.000 OA
BRANCH  12  15
ATOM     15  C   UNL     1       3.351   0.354  -0.495  0.00  0.00    +0.000 A 
ATOM     16  C   UNL     1       4.656   0.238  -0.886  0.00  0.00    +0.000 A 
ATOM     17  C   UNL     1       5.591   0.679  -0.051  0.00  0.00    +0.000 A 
ATOM     18  C   UNL     1       5.177   1.214   1.141  0.00  0.00    +0.000 A 
ATOM     19  S   UNL     1       3.487   1.082   1.034  0.00  0.00    +0.000 S 
ENDBRANCH  12  15
ENDBRANCH  11  12
ENDBRANCH   4  11
TORSDOF 4
