REMARK  Name = 
REMARK  1 active torsions:
REMARK  status: ('A' for Active; 'I' for Inactive)
REMARK    1  A    between atoms: C_13  and  C_14
REMARK                            x       y       z     vdW  Elec       q    Type
REMARK                         _______ _______ _______ _____ _____    ______ ____
ROOT
ATOM      1  O   UNL     1       6.310   0.441  -0.178  0.00  0.00    +0.000 OA
ATOM      2  N   UNL     1       5.052  -0.113  -0.274  0.00  0.00    +0.000 NA
ATOM      3  C   UNL     1       4.001   0.594  -0.022  0.00  0.00    +0.000 C 
ATOM      4  C   UNL     1       4.104   2.018   0.377  0.00  0.00    +0.000 C 
ATOM      5  C   UNL     1       2.849   2.762   0.007  0.00  0.00    +0.000 C 
ATOM      6  C   UNL     1       1.649   2.151   0.738  0.00  0.00    +0.000 C 
ATOM      7  C   UNL     1       1.530   0.758   0.241  0.00  0.00    +0.000 A 
ATOM      8  C   UNL     1       2.641   0.025  -0.117  0.00  0.00    +0.000 A 
ATOM      9  N   UNL     1       2.202  -1.170  -0.516  0.00  0.00    +0.000 NA
ATOM     10  C   UNL     1       0.862  -1.221  -0.424  0.00  0.00    +0.000 A 
ATOM     11  C   UNL     1      -0.029  -2.225  -0.716  0.00  0.00    +0.000 A 
ATOM     12  C   UNL     1      -1.369  -1.998  -0.523  0.00  0.00    +0.000 A 
ATOM     13  C   UNL     1      -1.842  -0.803  -0.050  0.00  0.00    +0.000 A 
ATOM     14  C   UNL     1      -0.962   0.204   0.244  0.00  0.00    +0.000 A 
ATOM     15  C   UNL     1       0.381  -0.002   0.059  0.00  0.00    +0.000 A 
ENDROOT
BRANCH  13  16
ATOM     16  C   UNL     1      -3.314  -0.665   0.121  0.00  0.00    +0.000 C 
ATOM     17  C   UNL     1      -3.680   0.717   0.559  0.00  0.00    +0.000 C 
ATOM     18  C   UNL     1      -5.142   0.732   0.981  0.00  0.00    +0.000 C 
ATOM     19  C   UNL     1      -5.816  -0.535   0.443  0.00  0.00    +0.000 C 
ATOM     20  C   UNL     1      -5.457  -0.688  -1.033  0.00  0.00    +0.000 C 
ATOM     21  C   UNL     1      -3.971  -0.979  -1.200  0.00  0.00    +0.000 C 
ENDBRANCH  13  16
TORSDOF 1
