REMARK  Name = 
REMARK  4 active torsions:
REMARK  status: ('A' for Active; 'I' for Inactive)
REMARK    1  A    between atoms: C_2  and  C_3
REMARK    2  A    between atoms: C_3  and  C_4
REMARK    3  A    between atoms: C_4  and  C_5
REMARK    4  A    between atoms: C_5  and  C_8
REMARK                            x       y       z     vdW  Elec       q    Type
REMARK                         _______ _______ _______ _____ _____    ______ ____
ROOT
ATOM      1  C   UNL     1       0.335  -0.923  -0.220  0.00  0.00    +0.000 A 
ATOM      2  C   UNL     1       0.601  -2.215   0.078  0.00  0.00    +0.000 A 
ATOM      3  C   UNL     1      -0.225  -3.147   0.638  0.00  0.00    +0.000 A 
ATOM      4  N   UNL     1       0.185  -4.333   0.855  0.00  0.00    +0.000 NA
ATOM      5  S   UNL     1      -1.771  -2.490   0.969  0.00  0.00    +0.000 S 
ATOM      6  C   UNL     1      -1.929  -0.852   0.531  0.00  0.00    +0.000 A 
ATOM      7  N   UNL     1      -2.932   0.076   0.583  0.00  0.00    +0.000 NA
ATOM      8  C   UNL     1      -2.493   1.235   0.078  0.00  0.00    +0.000 A 
ATOM      9  C   UNL     1      -3.108   2.460  -0.096  0.00  0.00    +0.000 A 
ATOM     10  C   UNL     1      -2.427   3.516  -0.655  0.00  0.00    +0.000 A 
ATOM     11  C   UNL     1      -1.102   3.324  -1.041  0.00  0.00    +0.000 A 
ATOM     12  C   UNL     1      -0.526   2.101  -0.854  0.00  0.00    +0.000 A 
ATOM     13  C   UNL     1      -1.171   1.030  -0.304  0.00  0.00    +0.000 A 
ATOM     14  N   UNL     1      -0.844  -0.277  -0.011  0.00  0.00    +0.000 N 
ENDROOT
BRANCH   1  15
ATOM     15  C   UNL     1       1.476  -0.150  -0.834  0.00  0.00    +0.000 C 
ATOM     16  C   UNL     1       1.108   0.291  -2.228  0.00  0.00    +0.000 C 
ATOM     17  O   UNL     1       2.595  -0.971  -0.971  0.00  0.00    +0.000 OA
BRANCH  15  18
ATOM     18  C   UNL     1       1.890   1.010   0.052  0.00  0.00    +0.000 C 
BRANCH  18  19
ATOM     19  C   UNL     1       2.263   0.498   1.450  0.00  0.00    +0.000 C 
BRANCH  19  21
ATOM     20  C   UNL     1       4.626   0.288   0.676  0.00  0.00    +0.000 C 
ATOM     21  C   UNL     1       3.447  -0.473   1.306  0.00  0.00    +0.000 C 
ENDBRANCH  19  21
ENDBRANCH  18  19
ENDBRANCH  15  18
ENDBRANCH   1  15
TORSDOF 4
