REMARK  Name = 
REMARK  2 active torsions:
REMARK  status: ('A' for Active; 'I' for Inactive)
REMARK    1  A    between atoms: C_2  and  C_3
REMARK    2  A    between atoms: C_19  and  C_20
REMARK                            x       y       z     vdW  Elec       q    Type
REMARK                         _______ _______ _______ _____ _____    ______ ____
ROOT
ATOM      1  C   UNL     1      -3.094  -0.748   0.257  0.00  0.00    +0.000 C 
ATOM      2  C   UNL     1      -1.498  -1.015   0.223  0.00  0.00    +0.000 C 
ATOM      3  C   UNL     1      -0.913   0.382  -0.432  0.00  0.00    +0.000 C 
ATOM      4  C   UNL     1       0.566  -0.088  -0.502  0.00  0.00    +0.000 A 
ATOM      5  N   UNL     1       1.075  -1.098  -1.161  0.00  0.00    +0.000 NA
ATOM      6  C   UNL     1       2.440  -1.149  -0.958  0.00  0.00    +0.000 A 
ATOM      7  C   UNL     1       3.461  -1.963  -1.381  0.00  0.00    +0.000 A 
ATOM      8  C   UNL     1       4.741  -1.734  -0.986  0.00  0.00    +0.000 A 
ATOM      9  C   UNL     1       5.107  -0.697  -0.151  0.00  0.00    +0.000 A 
ATOM     10  C   UNL     1       4.085   0.126   0.279  0.00  0.00    +0.000 A 
ATOM     11  C   UNL     1       2.778  -0.095  -0.116  0.00  0.00    +0.000 A 
ATOM     12  C   UNL     1       1.571   0.524   0.131  0.00  0.00    +0.000 A 
ATOM     13  C   UNL     1       1.342   1.735   0.997  0.00  0.00    +0.000 C 
ATOM     14  C   UNL     1       0.167   1.230   1.794  0.00  0.00    +0.000 C 
ATOM     15  N   UNL     1      -0.928   1.066   0.994  0.00  0.00    +0.000 N 
ATOM     16  C   UNL     1      -2.260   1.425   1.228  0.00  0.00    +0.000 C 
ATOM     17  C   UNL     1      -3.231   0.671   0.924  0.00  0.00    +0.000 C 
ENDROOT
BRANCH   1  19
ATOM     18  C   UNL     1      -2.652  -1.457  -2.001  0.00  0.00    +0.000 C 
ATOM     19  C   UNL     1      -3.175  -0.198  -1.298  0.00  0.00    +0.000 C 
ENDBRANCH   1  19
BRANCH  17  20
ATOM     20  C   UNL     1      -4.662   0.990   1.145  0.00  0.00    +0.000 C 
ATOM     21  O   UNL     1      -4.920   2.093   1.673  0.00  0.00    +0.000 OA
ENDBRANCH  17  20
TORSDOF 2
