REMARK  Name = 
REMARK  5 active torsions:
REMARK  status: ('A' for Active; 'I' for Inactive)
REMARK    1  A    between atoms: C_2  and  C_12
REMARK    2  A    between atoms: N_3  and  C_4
REMARK    3  A    between atoms: C_4  and  N_6
REMARK    4  A    between atoms: N_6  and  C_7
REMARK    5  A    between atoms: C_15  and  N_16
REMARK                            x       y       z     vdW  Elec       q    Type
REMARK                         _______ _______ _______ _____ _____    ______ ____
ROOT
ATOM      1  O   UNL     1      -0.396  -1.288   1.066  0.00  0.00    +0.000 OA
ATOM      2  C   UNL     1       0.051  -0.325   0.399  0.00  0.00    +0.000 C 
ATOM      3  N   UNL     1      -0.879   0.542  -0.191  0.00  0.00    +0.000 NA
ENDROOT
BRANCH   2   4
ATOM      4  C   UNL     1       1.500  -0.192   0.296  0.00  0.00    +0.000 A 
ATOM      5  C   UNL     1       2.350  -1.089   0.907  0.00  0.00    +0.000 A 
ATOM      6  C   UNL     1       3.724  -0.985   0.826  0.00  0.00    +0.000 A 
ATOM      7  C   UNL     1       4.323   0.035   0.119  0.00  0.00    +0.000 A 
ATOM      8  C   UNL     1       3.480   0.935  -0.494  0.00  0.00    +0.000 A 
ATOM      9  C   UNL     1       2.105   0.827  -0.410  0.00  0.00    +0.000 A 
BRANCH   7  10
ATOM     10  N   UNL     1       5.745   0.148   0.030  0.00  0.00    +0.000 N 
ATOM     11  O   UNL     1       6.238   1.089  -0.622  0.00  0.00    +0.000 OA
ATOM     12  O   UNL     1       6.599  -0.729   0.627  0.00  0.00    +0.000 OA
ENDBRANCH   7  10
ENDBRANCH   2   4
BRANCH   3  13
ATOM     13  C   UNL     1      -2.292   0.407  -0.086  0.00  0.00    +0.000 C 
ATOM     14  S   UNL     1      -3.176   1.539  -0.859  0.00  0.00    +0.000 S 
BRANCH  13  15
ATOM     15  N   UNL     1      -2.938  -0.608   0.620  0.00  0.00    +0.000 NA
BRANCH  15  16
ATOM     16  C   UNL     1      -4.364  -0.718   0.705  0.00  0.00    +0.000 C 
ATOM     17  C   UNL     1      -5.066   0.449   1.292  0.00  0.00    +0.000 C 
ATOM     18  C   UNL     1      -6.227   0.771   0.374  0.00  0.00    +0.000 C 
ATOM     19  C   UNL     1      -5.801   0.194  -0.957  0.00  0.00    +0.000 C 
ATOM     20  C   UNL     1      -4.978  -1.002  -0.596  0.00  0.00    +0.000 C 
ENDBRANCH  15  16
ENDBRANCH  13  15
ENDBRANCH   3  13
TORSDOF 5
