REMARK  Name = 
REMARK  2 active torsions:
REMARK  status: ('A' for Active; 'I' for Inactive)
REMARK    1  A    between atoms: C_2  and  C_11
REMARK    2  A    between atoms: N_3  and  C_4
REMARK                            x       y       z     vdW  Elec       q    Type
REMARK                         _______ _______ _______ _____ _____    ______ ____
ROOT
ATOM      1  O   UNL     1      -0.495   0.828  -2.098  0.00  0.00    +0.000 OA
ATOM      2  C   UNL     1       0.080   0.302  -1.140  0.00  0.00    +0.000 C 
ATOM      3  N   UNL     1      -0.634  -0.050   0.011  0.00  0.00    +0.000 NA
ENDROOT
BRANCH   2   4
ATOM      4  C   UNL     1       1.541   0.049  -1.231  0.00  0.00    +0.000 A 
ATOM      5  S   UNL     1       2.626   0.376  -2.497  0.00  0.00    +0.000 S 
ATOM      6  C   UNL     1       4.055  -0.213  -1.789  0.00  0.00    +0.000 A 
ATOM      7  C   UNL     1       3.641  -0.657  -0.565  0.00  0.00    +0.000 A 
ATOM      8  C   UNL     1       2.336  -0.524  -0.267  0.00  0.00    +0.000 A 
ATOM      9  C   UNL     1       1.909  -1.030   1.109  0.00  0.00    +0.000 C 
ATOM     10  C   UNL     1       2.810  -0.442   2.153  0.00  0.00    +0.000 C 
ATOM     11  C   UNL     1       4.263  -0.438   1.750  0.00  0.00    +0.000 C 
ATOM     12  C   UNL     1       4.512  -1.294   0.512  0.00  0.00    +0.000 C 
ENDBRANCH   2   4
BRANCH   3  13
ATOM     13  C   UNL     1      -2.034   0.171   0.146  0.00  0.00    +0.000 A 
ATOM     14  C   UNL     1      -2.674  -0.202   1.312  0.00  0.00    +0.000 A 
ATOM     15  C   UNL     1      -4.033   0.010   1.450  0.00  0.00    +0.000 A 
ATOM     16  C   UNL     1      -4.792   0.593   0.447  0.00  0.00    +0.000 A 
ATOM     17  O   UNL     1      -6.160   0.808   0.582  0.00  0.00    +0.000 OA
ATOM     18  C   UNL     1      -4.151   0.966  -0.719  0.00  0.00    +0.000 A 
ATOM     19  C   UNL     1      -2.800   0.748  -0.841  0.00  0.00    +0.000 A 
ENDBRANCH   3  13
TORSDOF 2
