REMARK  Name = 
REMARK  3 active torsions:
REMARK  status: ('A' for Active; 'I' for Inactive)
REMARK    1  A    between atoms: C_2  and  C_11
REMARK    2  A    between atoms: N_3  and  N_4
REMARK    3  A    between atoms: N_4  and  C_5
REMARK                            x       y       z     vdW  Elec       q    Type
REMARK                         _______ _______ _______ _____ _____    ______ ____
ROOT
ATOM      1  O   UNL     1       0.914   1.316  -0.794  0.00  0.00    +0.000 OA
ATOM      2  C   UNL     1       0.126   0.347  -0.603  0.00  0.00    +0.000 C 
ATOM      3  N   UNL     1       0.628  -0.795   0.083  0.00  0.00    +0.000 NA
ENDROOT
BRANCH   2   4
ATOM      4  C   UNL     1      -1.251   0.343  -1.047  0.00  0.00    +0.000 A 
ATOM      5  C   UNL     1      -1.515   0.142  -2.374  0.00  0.00    +0.000 A 
ATOM      6  C   UNL     1      -2.818   0.035  -2.853  0.00  0.00    +0.000 A 
ATOM      7  C   UNL     1      -3.876   0.133  -1.975  0.00  0.00    +0.000 A 
ATOM      8  C   UNL     1      -3.589   0.336  -0.639  0.00  0.00    +0.000 A 
ATOM      9  C   UNL     1      -4.645   0.462   0.220  0.00  0.00    +0.000 A 
ATOM     10  C   UNL     1      -4.422   0.697   1.541  0.00  0.00    +0.000 A 
ATOM     11  C   UNL     1      -3.145   0.810   2.053  0.00  0.00    +0.000 A 
ATOM     12  C   UNL     1      -2.118   0.676   1.167  0.00  0.00    +0.000 A 
ATOM     13  C   UNL     1      -2.282   0.444  -0.166  0.00  0.00    +0.000 A 
ENDBRANCH   2   4
BRANCH   3  14
ATOM     14  N   UNL     1       1.820  -0.988   0.556  0.00  0.00    +0.000 NA
BRANCH  14  15
ATOM     15  C   UNL     1       3.044  -0.441   0.827  0.00  0.00    +0.000 C 
ATOM     16  C   UNL     1       4.075  -1.200   1.256  0.00  0.00    +0.000 C 
ATOM     17  C   UNL     1       5.392  -0.606   1.546  0.00  0.00    +0.000 C 
ATOM     18  C   UNL     1       5.705   0.313   0.388  0.00  0.00    +0.000 C 
ATOM     19  C   UNL     1       4.651   1.359   0.139  0.00  0.00    +0.000 C 
ATOM     20  C   UNL     1       3.306   1.008   0.674  0.00  0.00    +0.000 C 
ENDBRANCH  14  15
ENDBRANCH   3  14
TORSDOF 3
