REMARK  Name = 
REMARK  3 active torsions:
REMARK  status: ('A' for Active; 'I' for Inactive)
REMARK    1  A    between atoms: O_2  and  C_3
REMARK    2  A    between atoms: C_8  and  N_9
REMARK    3  A    between atoms: C_17  and  C_18
REMARK                            x       y       z     vdW  Elec       q    Type
REMARK                         _______ _______ _______ _____ _____    ______ ____
ROOT
ATOM      1  N   UNL     1       0.473  -0.335   0.467  0.00  0.00    +0.000 NA
ATOM      2  C   UNL     1      -0.762   0.197   0.071  0.00  0.00    +0.000 A 
ATOM      3  N   UNL     1      -0.961   0.763  -1.149  0.00  0.00    +0.000 NA
ATOM      4  C   UNL     1      -2.149   1.272  -1.523  0.00  0.00    +0.000 A 
ATOM      5  C   UNL     1      -2.292   1.884  -2.892  0.00  0.00    +0.000 C 
ATOM      6  C   UNL     1      -3.224   1.234  -0.660  0.00  0.00    +0.000 A 
ATOM      7  C   UNL     1      -3.024   0.654   0.591  0.00  0.00    +0.000 A 
ATOM      8  C   UNL     1      -4.167   0.597   1.546  0.00  0.00    +0.000 C 
ATOM      9  C   UNL     1      -1.812   0.139   0.963  0.00  0.00    +0.000 A 
ENDROOT
BRANCH   1  15
ATOM     10  C   UNL     1       2.811  -0.781  -0.132  0.00  0.00    +0.000 A 
ATOM     11  C   UNL     1       3.832  -0.703  -1.052  0.00  0.00    +0.000 A 
ATOM     12  C   UNL     1       3.692  -0.141  -2.303  0.00  0.00    +0.000 A 
ATOM     13  C   UNL     1       2.449   0.365  -2.631  0.00  0.00    +0.000 A 
ATOM     14  C   UNL     1       1.416   0.292  -1.718  0.00  0.00    +0.000 A 
ATOM     15  C   UNL     1       1.572  -0.274  -0.466  0.00  0.00    +0.000 A 
BRANCH  10  17
ATOM     16  C   UNL     1       4.123  -1.903   1.627  0.00  0.00    +0.000 C 
ATOM     17  O   UNL     1       2.953  -1.343   1.118  0.00  0.00    +0.000 OA
ENDBRANCH  10  17
ENDBRANCH   1  15
BRANCH   9  18
ATOM     18  C   UNL     1      -1.653  -0.460   2.290  0.00  0.00    +0.000 C 
ATOM     19  N   UNL     1      -2.733  -0.518   3.204  0.00  0.00    +0.000 NA
ATOM     20  O   UNL     1      -0.544  -0.939   2.648  0.00  0.00    +0.000 OA
ENDBRANCH   9  18
TORSDOF 3
