REMARK  Name = 
REMARK  3 active torsions:
REMARK  status: ('A' for Active; 'I' for Inactive)
REMARK    1  A    between atoms: C_5  and  N_6
REMARK    2  A    between atoms: C_7  and  C_9
REMARK    3  A    between atoms: C_14  and  N_15
REMARK                            x       y       z     vdW  Elec       q    Type
REMARK                         _______ _______ _______ _____ _____    ______ ____
ROOT
ATOM      1  N   UNL     1       1.196  -0.514   0.002  0.00  0.00    +0.000 NA
ATOM      2  C   UNL     1       0.007   0.257  -0.059  0.00  0.00    +0.000 C 
ATOM      3  O   UNL     1       0.100   1.510  -0.082  0.00  0.00    +0.000 OA
ENDROOT
BRANCH   1   8
ATOM      4  C   UNL     1       6.365   1.950   0.145  0.00  0.00    +0.000 C 
ATOM      5  C   UNL     1       5.027   1.307   0.108  0.00  0.00    +0.000 A 
ATOM      6  C   UNL     1       3.880   2.072   0.048  0.00  0.00    +0.000 A 
ATOM      7  C   UNL     1       2.626   1.496   0.013  0.00  0.00    +0.000 A 
ATOM      8  C   UNL     1       2.478   0.132   0.037  0.00  0.00    +0.000 A 
ATOM      9  C   UNL     1       3.616  -0.643   0.097  0.00  0.00    +0.000 A 
ATOM     10  C   UNL     1       4.872  -0.065   0.132  0.00  0.00    +0.000 A 
ATOM     11  C   UNL     1       6.123  -0.894   0.196  0.00  0.00    +0.000 C 
ENDBRANCH   1   8
BRANCH   2  12
ATOM     12  C   UNL     1      -1.299  -0.416  -0.095  0.00  0.00    +0.000 A 
ATOM     13  C   UNL     1      -1.374  -1.792  -0.073  0.00  0.00    +0.000 A 
ATOM     14  C   UNL     1      -2.609  -2.420  -0.108  0.00  0.00    +0.000 A 
ATOM     15  C   UNL     1      -3.797  -1.699  -0.165  0.00  0.00    +0.000 A 
ATOM     16  C   UNL     1      -5.122  -2.380  -0.201  0.00  0.00    +0.000 C 
ATOM     17  C   UNL     1      -3.722  -0.322  -0.186  0.00  0.00    +0.000 A 
ATOM     18  C   UNL     1      -2.477   0.294  -0.151  0.00  0.00    +0.000 A 
BRANCH  17  19
ATOM     19  N   UNL     1      -4.903   0.473  -0.244  0.00  0.00    +0.000 N 
ATOM     20  O   UNL     1      -4.883   1.614  -0.758  0.00  0.00    +0.000 OA
ATOM     21  O   UNL     1      -6.106   0.037   0.251  0.00  0.00    +0.000 OA
ENDBRANCH  17  19
ENDBRANCH   2  12
TORSDOF 3
