REMARK  Name = 
REMARK  3 active torsions:
REMARK  status: ('A' for Active; 'I' for Inactive)
REMARK    1  A    between atoms: C_4  and  N_5
REMARK    2  A    between atoms: C_9  and  N_10
REMARK    3  A    between atoms: C_16  and  C_17
REMARK                            x       y       z     vdW  Elec       q    Type
REMARK                         _______ _______ _______ _____ _____    ______ ____
ROOT
ATOM      1  C   UNL     1      -2.233  -1.029   1.860  0.00  0.00    +0.000 C 
ATOM      2  C   UNL     1      -2.145  -0.219   0.605  0.00  0.00    +0.000 A 
ATOM      3  C   UNL     1      -0.882   0.053   0.067  0.00  0.00    +0.000 A 
ATOM      4  C   UNL     1      -0.752   0.794  -1.086  0.00  0.00    +0.000 A 
ATOM      5  C   UNL     1      -1.905   1.249  -1.679  0.00  0.00    +0.000 A 
ATOM      6  C   UNL     1      -3.159   0.982  -1.150  0.00  0.00    +0.000 A 
ATOM      7  C   UNL     1      -3.288   0.248  -0.006  0.00  0.00    +0.000 A 
ENDROOT
BRANCH   4   8
ATOM      8  N   UNL     1       0.488   1.111  -1.690  0.00  0.00    +0.000 NA
ATOM      9  C   UNL     1       1.732   0.663  -1.117  0.00  0.00    +0.000 A 
ATOM     10  N   UNL     1       2.968   0.872  -1.554  0.00  0.00    +0.000 NA
ATOM     11  C   UNL     1       3.959   0.385  -0.897  0.00  0.00    +0.000 A 
ATOM     12  C   UNL     1       3.713  -0.336   0.237  0.00  0.00    +0.000 A 
ATOM     13  S   UNL     1       2.009  -0.270   0.295  0.00  0.00    +0.000 S 
BRANCH  12  14
ATOM     14  N   UNL     1       4.652  -0.965   1.119  0.00  0.00    +0.000 N 
ATOM     15  O   UNL     1       5.864  -0.912   0.924  0.00  0.00    +0.000 OA
ATOM     16  O   UNL     1       4.154  -1.639   2.205  0.00  0.00    +0.000 OA
ENDBRANCH  12  14
ENDBRANCH   4   8
BRANCH   7  17
ATOM     17  C   UNL     1      -4.629  -0.044   0.569  0.00  0.00    +0.000 C 
ATOM     18  C   UNL     1      -5.678   0.594  -0.313  0.00  0.00    +0.000 C 
ATOM     19  C   UNL     1      -4.870  -1.538   0.633  0.00  0.00    +0.000 C 
ENDBRANCH   7  17
TORSDOF 3
