REMARK  Name = 
REMARK  3 active torsions:
REMARK  status: ('A' for Active; 'I' for Inactive)
REMARK    1  A    between atoms: O_2  and  C_3
REMARK    2  A    between atoms: C_5  and  N_6
REMARK    3  A    between atoms: C_13  and  C_14
REMARK                            x       y       z     vdW  Elec       q    Type
REMARK                         _______ _______ _______ _____ _____    ______ ____
ROOT
ATOM      1  C   UNL     1       1.096   1.234  -0.163  0.00  0.00    +0.000 A 
ATOM      2  C   UNL     1       2.292   0.566  -0.135  0.00  0.00    +0.000 A 
ATOM      3  C   UNL     1       2.352  -0.807  -0.253  0.00  0.00    +0.000 A 
ATOM      4  C   UNL     1       1.170  -1.471  -0.397  0.00  0.00    +0.000 A 
ATOM      5  C   UNL     1      -0.055  -0.762  -0.423  0.00  0.00    +0.000 A 
ATOM      6  C   UNL     1      -0.136   0.543  -0.313  0.00  0.00    +0.000 A 
ATOM      7  N   UNL     1      -1.333   1.264  -0.325  0.00  0.00    +0.000 NA
ATOM      8  C   UNL     1      -2.448   0.429  -0.972  0.00  0.00    +0.000 C 
ATOM      9  C   UNL     1      -2.526  -0.859   0.136  0.00  0.00    +0.000 C 
ATOM     10  C   UNL     1      -1.601  -0.400   1.341  0.00  0.00    +0.000 C 
ATOM     11  C   UNL     1      -1.217  -1.792   1.728  0.00  0.00    +0.000 C 
ATOM     12  C   UNL     1      -1.040  -2.580   0.725  0.00  0.00    +0.000 C 
ATOM     13  C   UNL     1      -1.307  -1.743  -0.621  0.00  0.00    +0.000 C 
ENDROOT
BRANCH   3  14
ATOM     14  N   UNL     1       3.626  -1.470  -0.219  0.00  0.00    +0.000 N 
ATOM     15  O   UNL     1       3.767  -2.698  -0.318  0.00  0.00    +0.000 OA
ATOM     16  O   UNL     1       4.756  -0.713  -0.069  0.00  0.00    +0.000 OA
ENDBRANCH   3  14
BRANCH   8  17
ATOM     17  C   UNL     1      -3.675   1.240  -0.231  0.00  0.00    +0.000 C 
ATOM     18  C   UNL     1      -3.412   2.655  -0.769  0.00  0.00    +0.000 C 
ATOM     19  C   UNL     1      -3.355   1.275   1.219  0.00  0.00    +0.000 C 
ENDBRANCH   8  17
BRANCH   1  21
ATOM     20  C   UNL     1       2.065   3.477   0.107  0.00  0.00    +0.000 C 
ATOM     21  O   UNL     1       0.983   2.612  -0.048  0.00  0.00    +0.000 OA
ENDBRANCH   1  21
TORSDOF 3
