REMARK  Name = 
REMARK  3 active torsions:
REMARK  status: ('A' for Active; 'I' for Inactive)
REMARK    1  A    between atoms: C_7  and  C_8
REMARK    2  A    between atoms: N_10  and  C_11
REMARK    3  A    between atoms: C_13  and  N_14
REMARK                            x       y       z     vdW  Elec       q    Type
REMARK                         _______ _______ _______ _____ _____    ______ ____
ROOT
ATOM      1  C   UNL     1      -0.743  -0.025   0.399  0.00  0.00    +0.000 C 
ATOM      2  O   UNL     1      -0.191   0.261   1.498  0.00  0.00    +0.000 OA
ATOM      3  N   UNL     1       0.076  -0.154  -0.731  0.00  0.00    +0.000 NA
ENDROOT
BRANCH   1  10
ATOM      4  C   UNL     1      -4.769  -1.040  -2.265  0.00  0.00    +0.000 C 
ATOM      5  C   UNL     1      -4.181  -0.705  -0.943  0.00  0.00    +0.000 A 
ATOM      6  C   UNL     1      -4.953  -0.570   0.189  0.00  0.00    +0.000 A 
ATOM      7  C   UNL     1      -4.340  -0.258   1.379  0.00  0.00    +0.000 A 
ATOM      8  C   UNL     1      -5.217  -0.122   2.575  0.00  0.00    +0.000 C 
ATOM      9  C   UNL     1      -2.957  -0.073   1.475  0.00  0.00    +0.000 A 
ATOM     10  C   UNL     1      -2.195  -0.211   0.337  0.00  0.00    +0.000 A 
ATOM     11  C   UNL     1      -2.803  -0.521  -0.846  0.00  0.00    +0.000 A 
ENDBRANCH   1  10
BRANCH   3  12
ATOM     12  C   UNL     1       1.482   0.014  -0.729  0.00  0.00    +0.000 A 
ATOM     13  C   UNL     1       2.167   0.327   0.424  0.00  0.00    +0.000 A 
ATOM     14  C   UNL     1       3.531   0.497   0.458  0.00  0.00    +0.000 A 
ATOM     15  C   UNL     1       4.254   0.349  -0.709  0.00  0.00    +0.000 A 
ATOM     16  C   UNL     1       3.603   0.036  -1.882  0.00  0.00    +0.000 A 
ATOM     17  C   UNL     1       2.216  -0.130  -1.885  0.00  0.00    +0.000 A 
ATOM     18  F   UNL     1       1.646  -0.436  -3.073  0.00  0.00    +0.000 F 
BRANCH  14  19
ATOM     19  N   UNL     1       4.234   0.820   1.652  0.00  0.00    +0.000 N 
ATOM     20  O   UNL     1       3.559   0.947   2.688  0.00  0.00    +0.000 OA
ATOM     21  O   UNL     1       5.581   0.991   1.704  0.00  0.00    +0.000 OA
ENDBRANCH  14  19
ENDBRANCH   3  12
TORSDOF 3
