REMARK  Name = 
REMARK  2 active torsions:
REMARK  status: ('A' for Active; 'I' for Inactive)
REMARK    1  A    between atoms: C_2  and  C_13
REMARK    2  A    between atoms: N_3  and  N_4
REMARK                            x       y       z     vdW  Elec       q    Type
REMARK                         _______ _______ _______ _____ _____    ______ ____
ROOT
ATOM      1  O   UNL     1      -0.272  -1.454  -1.365  0.00  0.00    +0.000 OA
ATOM      2  C   UNL     1      -0.796  -0.458  -0.805  0.00  0.00    +0.000 C 
ATOM      3  N   UNL     1       0.020   0.683  -0.628  0.00  0.00    +0.000 NA
ENDROOT
BRANCH   3   4
ATOM      4  N   UNL     1       1.356   0.758  -1.038  0.00  0.00    +0.000 NA
ATOM      5  C   UNL     1       2.269  -0.032  -0.616  0.00  0.00    +0.000 C 
ATOM      6  C   UNL     1       1.858  -1.064   0.352  0.00  0.00    +0.000 C 
ATOM      7  C   UNL     1       3.001  -1.296   1.318  0.00  0.00    +0.000 C 
ATOM      8  C   UNL     1       4.045  -0.204   1.231  0.00  0.00    +0.000 C 
ATOM      9  C   UNL     1       3.489   1.113   1.760  0.00  0.00    +0.000 C 
ATOM     10  C   UNL     1       3.245   1.986   0.527  0.00  0.00    +0.000 C 
ATOM     11  C   UNL     1       4.134   1.555  -0.623  0.00  0.00    +0.000 C 
ATOM     12  C   UNL     1       3.576   0.304  -1.235  0.00  0.00    +0.000 C 
ENDBRANCH   3   4
BRANCH   2  13
ATOM     13  C   UNL     1      -2.197  -0.496  -0.360  0.00  0.00    +0.000 A 
ATOM     14  C   UNL     1      -2.922  -1.646  -0.569  0.00  0.00    +0.000 A 
ATOM     15  C   UNL     1      -4.254  -1.742  -0.170  0.00  0.00    +0.000 A 
ATOM     16  C   UNL     1      -4.850  -0.647   0.452  0.00  0.00    +0.000 A 
ATOM     17  C   UNL     1      -4.129   0.516   0.668  0.00  0.00    +0.000 A 
ATOM     18  O   UNL     1      -4.758   1.575   1.287  0.00  0.00    +0.000 OA
ATOM     19  C   UNL     1      -2.813   0.550   0.250  0.00  0.00    +0.000 A 
ENDBRANCH   2  13
TORSDOF 2
