REMARK  Name = 
REMARK  4 active torsions:
REMARK  status: ('A' for Active; 'I' for Inactive)
REMARK    1  A    between atoms: C_6  and  C_7
REMARK    2  A    between atoms: C_7  and  C_8
REMARK    3  A    between atoms: N_9  and  C_10
REMARK    4  A    between atoms: C_16  and  N_17
REMARK                            x       y       z     vdW  Elec       q    Type
REMARK                         _______ _______ _______ _____ _____    ______ ____
ROOT
ATOM      1  C   UNL     1       4.072   0.216   2.035  0.00  0.00    +0.000 C 
ATOM      2  C   UNL     1       3.206   0.484   0.850  0.00  0.00    +0.000 A 
ATOM      3  N   UNL     1       3.123   1.645   0.158  0.00  0.00    +0.000 NA
ATOM      4  N   UNL     1       2.256   1.511  -0.822  0.00  0.00    +0.000 N 
ATOM      5  C   UNL     1       1.927   2.565  -1.762  0.00  0.00    +0.000 C 
ATOM      6  C   UNL     1       1.740   0.253  -0.805  0.00  0.00    +0.000 A 
ATOM      7  C   UNL     1       2.333  -0.402   0.245  0.00  0.00    +0.000 A 
ENDROOT
BRANCH   7   8
ATOM      8  N   UNL     1       2.108  -1.741   0.648  0.00  0.00    +0.000 N 
ATOM      9  O   UNL     1       1.063  -2.057   1.242  0.00  0.00    +0.000 OA
ATOM     10  O   UNL     1       3.036  -2.729   0.394  0.00  0.00    +0.000 OA
ENDBRANCH   7   8
BRANCH   6  11
ATOM     11  C   UNL     1       0.746  -0.214  -1.786  0.00  0.00    +0.000 C 
BRANCH  11  12
ATOM     12  C   UNL     1      -0.639  -0.280  -1.307  0.00  0.00    +0.000 C 
ATOM     13  N   UNL     1      -1.239   0.482  -0.489  0.00  0.00    +0.000 NA
BRANCH  13  14
ATOM     14  C   UNL     1      -2.618   0.279  -0.122  0.00  0.00    +0.000 A 
ATOM     15  C   UNL     1      -3.605   1.183  -0.447  0.00  0.00    +0.000 A 
ATOM     16  C   UNL     1      -4.929   0.961  -0.100  0.00  0.00    +0.000 A 
ATOM     17  C   UNL     1      -5.267  -0.191   0.584  0.00  0.00    +0.000 A 
ATOM     18  C   UNL     1      -4.309  -1.105   0.919  0.00  0.00    +0.000 A 
ATOM     19  C   UNL     1      -3.003  -0.861   0.564  0.00  0.00    +0.000 A 
ENDBRANCH  13  14
ENDBRANCH  11  12
ENDBRANCH   6  11
TORSDOF 4
