REMARK  Name = 
REMARK  2 active torsions:
REMARK  status: ('A' for Active; 'I' for Inactive)
REMARK    1  A    between atoms: C_3  and  C_4
REMARK    2  A    between atoms: C_13  and  C_14
REMARK                            x       y       z     vdW  Elec       q    Type
REMARK                         _______ _______ _______ _____ _____    ______ ____
ROOT
ATOM      1  C   UNL     1      -0.148  -1.059  -0.834  0.00  0.00    +0.000 C 
ATOM      2  C   UNL     1      -0.374   0.234  -0.061  0.00  0.00    +0.000 A 
ATOM      3  C   UNL     1      -1.691   0.613   0.051  0.00  0.00    +0.000 A 
ATOM      4  S   UNL     1      -1.620   2.046   0.937  0.00  0.00    +0.000 S 
ATOM      5  C   UNL     1       0.062   2.154   1.157  0.00  0.00    +0.000 A 
ATOM      6  N   UNL     1       0.792   3.181   1.855  0.00  0.00    +0.000 NA
ATOM      7  C   UNL     1       0.554   1.013   0.502  0.00  0.00    +0.000 A 
ENDROOT
BRANCH   7   8
ATOM      8  C   UNL     1       2.007   0.808   0.509  0.00  0.00    +0.000 C 
ATOM      9  O   UNL     1       2.749   1.696   1.122  0.00  0.00    +0.000 OA
ATOM     10  N   UNL     1       2.770  -0.218  -0.051  0.00  0.00    +0.000 N 
ATOM     11  C   UNL     1       2.374  -1.366  -0.792  0.00  0.00    +0.000 C 
ATOM     12  C   UNL     1       3.311  -2.540  -0.616  0.00  0.00    +0.000 C 
ATOM     13  C   UNL     1       4.731  -2.171  -1.060  0.00  0.00    +0.000 C 
ATOM     14  C   UNL     1       4.854  -0.655  -1.118  0.00  0.00    +0.000 C 
ATOM     15  C   UNL     1       4.258  -0.100   0.158  0.00  0.00    +0.000 C 
ENDBRANCH   7   8
BRANCH   3  16
ATOM     16  C   UNL     1      -2.913  -0.017  -0.447  0.00  0.00    +0.000 A 
ATOM     17  C   UNL     1      -4.154   0.548  -0.214  0.00  0.00    +0.000 A 
ATOM     18  C   UNL     1      -5.321  -0.017  -0.668  0.00  0.00    +0.000 A 
ATOM     19  C   UNL     1      -5.291  -1.194  -1.387  0.00  0.00    +0.000 A 
ATOM     20  C   UNL     1      -4.059  -1.764  -1.625  0.00  0.00    +0.000 A 
ATOM     21  C   UNL     1      -2.892  -1.193  -1.167  0.00  0.00    +0.000 A 
ENDBRANCH   3  16
TORSDOF 2
