REMARK  Name = 
REMARK  4 active torsions:
REMARK  status: ('A' for Active; 'I' for Inactive)
REMARK    1  A    between atoms: O_2  and  C_3
REMARK    2  A    between atoms: C_3  and  C_4
REMARK    3  A    between atoms: C_4  and  N_5
REMARK    4  A    between atoms: C_8  and  C_9
REMARK                            x       y       z     vdW  Elec       q    Type
REMARK                         _______ _______ _______ _____ _____    ______ ____
ROOT
ATOM      1  N   UNL     1       3.233   0.629  -1.852  0.00  0.00    +0.000 NA
ATOM      2  C   UNL     1       2.157   0.473  -0.897  0.00  0.00    +0.000 A 
ATOM      3  N   UNL     1       0.872   0.287  -1.178  0.00  0.00    +0.000 NA
ATOM      4  C   UNL     1       0.020   0.180  -0.214  0.00  0.00    +0.000 A 
ATOM      5  C   UNL     1       0.503   0.266   1.071  0.00  0.00    +0.000 A 
ATOM      6  S   UNL     1       2.170   0.499   0.811  0.00  0.00    +0.000 S 
ENDROOT
BRANCH   4   7
ATOM      7  C   UNL     1      -1.435  -0.030  -0.443  0.00  0.00    +0.000 A 
ATOM      8  C   UNL     1      -2.037  -0.132  -1.668  0.00  0.00    +0.000 A 
ATOM      9  N   UNL     1      -3.353  -0.316  -1.474  0.00  0.00    +0.000 NA
ATOM     10  C   UNL     1      -3.598  -0.332  -0.158  0.00  0.00    +0.000 A 
ATOM     11  C   UNL     1      -4.779  -0.490   0.534  0.00  0.00    +0.000 A 
ATOM     12  C   UNL     1      -4.764  -0.469   1.920  0.00  0.00    +0.000 A 
ATOM     13  C   UNL     1      -3.572  -0.290   2.589  0.00  0.00    +0.000 A 
ATOM     14  C   UNL     1      -2.385  -0.132   1.910  0.00  0.00    +0.000 A 
ATOM     15  C   UNL     1      -2.414  -0.155   0.511  0.00  0.00    +0.000 A 
ENDBRANCH   4   7
BRANCH   1  16
ATOM     16  C   UNL     1       4.584   0.794  -1.537  0.00  0.00    +0.000 C 
BRANCH  16  17
ATOM     17  C   UNL     1       5.185  -0.439  -0.944  0.00  0.00    +0.000 C 
BRANCH  17  19
ATOM     18  C   UNL     1       5.072  -1.938   0.797  0.00  0.00    +0.000 C 
ATOM     19  O   UNL     1       4.541  -0.799   0.222  0.00  0.00    +0.000 OA
ENDBRANCH  17  19
ENDBRANCH  16  17
ENDBRANCH   1  16
TORSDOF 4
