REMARK  Name = 
REMARK  4 active torsions:
REMARK  status: ('A' for Active; 'I' for Inactive)
REMARK    1  A    between atoms: O_2  and  C_3
REMARK    2  A    between atoms: N_9  and  C_10
REMARK    3  A    between atoms: C_10  and  N_12
REMARK    4  A    between atoms: C_13  and  C_15
REMARK                            x       y       z     vdW  Elec       q    Type
REMARK                         _______ _______ _______ _____ _____    ______ ____
ROOT
ATOM      1  C   UNL     1       0.242  -1.170   0.366  0.00  0.00    +0.000 C 
ATOM      2  S   UNL     1      -0.357  -2.532   1.002  0.00  0.00    +0.000 S 
ENDROOT
BRANCH   1   9
ATOM      3  C   UNL     1      -4.125   0.781  -0.435  0.00  0.00    +0.000 A 
ATOM      4  C   UNL     1      -4.777  -0.307   0.077  0.00  0.00    +0.000 A 
ATOM      5  C   UNL     1      -4.036  -1.385   0.555  0.00  0.00    +0.000 A 
ATOM      6  C   UNL     1      -4.792  -2.532   1.096  0.00  0.00    +0.000 C 
ATOM      7  N   UNL     1      -2.711  -1.306   0.490  0.00  0.00    +0.000 NA
ATOM      8  C   UNL     1      -2.046  -0.251  -0.007  0.00  0.00    +0.000 A 
ATOM      9  N   UNL     1      -0.634  -0.165  -0.076  0.00  0.00    +0.000 NA
ATOM     10  N   UNL     1      -2.783   0.775  -0.461  0.00  0.00    +0.000 NA
BRANCH   3  12
ATOM     11  C   UNL     1      -4.213   3.004  -1.451  0.00  0.00    +0.000 C 
ATOM     12  O   UNL     1      -4.835   1.858  -0.913  0.00  0.00    +0.000 OA
ENDBRANCH   3  12
ENDBRANCH   1   9
BRANCH   1  13
ATOM     13  N   UNL     1       1.631  -1.004   0.260  0.00  0.00    +0.000 NA
ATOM     14  C   UNL     1       2.148   0.191  -0.298  0.00  0.00    +0.000 C 
ATOM     15  O   UNL     1       1.337   1.070  -0.683  0.00  0.00    +0.000 OA
BRANCH  14  16
ATOM     16  C   UNL     1       3.596   0.365  -0.408  0.00  0.00    +0.000 A 
ATOM     17  C   UNL     1       4.165   1.499  -0.939  0.00  0.00    +0.000 A 
ATOM     18  C   UNL     1       5.543   1.638  -1.032  0.00  0.00    +0.000 A 
ATOM     19  C   UNL     1       6.374   0.620  -0.584  0.00  0.00    +0.000 A 
ATOM     20  C   UNL     1       5.827  -0.524  -0.049  0.00  0.00    +0.000 A 
ATOM     21  C   UNL     1       4.447  -0.626   0.027  0.00  0.00    +0.000 A 
ENDBRANCH  14  16
ENDBRANCH   1  13
TORSDOF 4
