REMARK  Name = 
REMARK  1 active torsions:
REMARK  status: ('A' for Active; 'I' for Inactive)
REMARK    1  A    between atoms: C_7  and  C_8
REMARK                            x       y       z     vdW  Elec       q    Type
REMARK                         _______ _______ _______ _____ _____    ______ ____
ROOT
ATOM      1  C   UNL     1      -0.966  -0.032   0.639  0.00  0.00    +0.000 C 
ATOM      2  N   UNL     1      -0.088   0.036   1.526  0.00  0.00    +0.000 NA
ATOM      3  N   UNL     1       1.136  -0.481   1.346  0.00  0.00    +0.000 NA
ATOM      4  C   UNL     1       1.496  -0.870   0.029  0.00  0.00    +0.000 C 
ATOM      5  C   UNL     1       2.264   0.204  -0.710  0.00  0.00    +0.000 C 
ATOM      6  C   UNL     1       2.552   1.335   0.251  0.00  0.00    +0.000 C 
ATOM      7  C   UNL     1       4.064   1.328   0.486  0.00  0.00    +0.000 C 
ATOM      8  C   UNL     1       4.463  -0.095   0.797  0.00  0.00    +0.000 C 
ATOM      9  C   UNL     1       4.281  -1.018  -0.388  0.00  0.00    +0.000 C 
ATOM     10  C   UNL     1       3.578  -2.266   0.124  0.00  0.00    +0.000 C 
ATOM     11  C   UNL     1       2.100  -2.224  -0.087  0.00  0.00    +0.000 C 
ATOM     12  S   UNL     1      -0.184  -0.901  -0.720  0.00  0.00    +0.000 S 
ENDROOT
BRANCH   1  19
ATOM     13  O   UNL     1      -2.578  -0.418  -1.588  0.00  0.00    +0.000 OA
ATOM     14  C   UNL     1      -3.137   0.252  -0.503  0.00  0.00    +0.000 A 
ATOM     15  C   UNL     1      -4.442   0.684  -0.587  0.00  0.00    +0.000 A 
ATOM     16  C   UNL     1      -5.022   1.349   0.468  0.00  0.00    +0.000 A 
ATOM     17  C   UNL     1      -4.238   1.551   1.583  0.00  0.00    +0.000 A 
ATOM     18  C   UNL     1      -2.932   1.115   1.661  0.00  0.00    +0.000 A 
ATOM     19  C   UNL     1      -2.348   0.449   0.605  0.00  0.00    +0.000 A 
ENDBRANCH   1  19
TORSDOF 1
