REMARK  Name = 
REMARK  1 active torsions:
REMARK  status: ('A' for Active; 'I' for Inactive)
REMARK    1  A    between atoms: C_3  and  C_5
REMARK                            x       y       z     vdW  Elec       q    Type
REMARK                         _______ _______ _______ _____ _____    ______ ____
ROOT
ATOM      1  N   UNL     1      -1.008  -0.670   1.984  0.00  0.00    +0.000 NA
ATOM      2  N   UNL     1      -0.608  -0.306   0.704  0.00  0.00    +0.000 N 
ATOM      3  C   UNL     1      -1.551  -0.189  -0.326  0.00  0.00    +0.000 C 
ATOM      4  O   UNL     1      -1.193   0.135  -1.472  0.00  0.00    +0.000 OA
ATOM      5  C   UNL     1       0.801  -0.064   0.513  0.00  0.00    +0.000 A 
ATOM      6  N   UNL     1       1.790  -0.891   0.776  0.00  0.00    +0.000 NA
ATOM      7  C   UNL     1       3.032  -0.523   0.548  0.00  0.00    +0.000 A 
ATOM      8  C   UNL     1       4.202  -1.291   0.777  0.00  0.00    +0.000 A 
ATOM      9  C   UNL     1       5.409  -0.766   0.489  0.00  0.00    +0.000 A 
ATOM     10  C   UNL     1       5.643   0.488  -0.026  0.00  0.00    +0.000 A 
ATOM     11  C   UNL     1       4.501   1.248  -0.254  0.00  0.00    +0.000 A 
ATOM     12  C   UNL     1       3.229   0.728   0.037  0.00  0.00    +0.000 A 
ATOM     13  S   UNL     1       1.619   1.308  -0.087  0.00  0.00    +0.000 S 
ENDROOT
BRANCH   3  14
ATOM     14  C   UNL     1      -2.972  -0.448  -0.058  0.00  0.00    +0.000 C 
ATOM     15  C   UNL     1      -3.845  -0.268  -1.280  0.00  0.00    +0.000 C 
ATOM     16  C   UNL     1      -4.955   0.688  -0.983  0.00  0.00    +0.000 C 
ATOM     17  C   UNL     1      -5.790   0.239   0.201  0.00  0.00    +0.000 C 
ATOM     18  C   UNL     1      -4.857   0.091   1.409  0.00  0.00    +0.000 C 
ATOM     19  C   UNL     1      -3.449   0.491   1.039  0.00  0.00    +0.000 C 
ENDBRANCH   3  14
TORSDOF 1
