REMARK  Name = 
REMARK  2 active torsions:
REMARK  status: ('A' for Active; 'I' for Inactive)
REMARK    1  A    between atoms: C_6  and  C_7
REMARK    2  A    between atoms: C_11  and  C_12
REMARK                            x       y       z     vdW  Elec       q    Type
REMARK                         _______ _______ _______ _____ _____    ______ ____
ROOT
ATOM      1  C   UNL     1      -0.857   2.344   0.629  0.00  0.00    +0.000 C 
ATOM      2  C   UNL     1       0.417   1.599   0.371  0.00  0.00    +0.000 C 
ATOM      3  C   UNL     1       1.380   1.845   1.143  0.00  0.00    +0.000 C 
ATOM      4  C   UNL     1       2.828   1.134   0.996  0.00  0.00    +0.000 C 
ATOM      5  C   UNL     1       3.214   1.965  -0.338  0.00  0.00    +0.000 C 
ATOM      6  C   UNL     1       2.241  -0.233   0.260  0.00  0.00    +0.000 C 
ATOM      7  C   UNL     1       1.365  -0.941   1.029  0.00  0.00    +0.000 C 
ATOM      8  O   UNL     1       0.048  -0.662   1.138  0.00  0.00    +0.000 OA
ATOM      9  C   UNL     1      -0.279  -0.775  -0.342  0.00  0.00    +0.000 C 
ATOM     10  C   UNL     1       0.220   0.755  -0.855  0.00  0.00    +0.000 C 
ATOM     11  C   UNL     1       1.835   0.292  -1.184  0.00  0.00    +0.000 C 
ATOM     12  C   UNL     1       1.528  -1.147  -1.843  0.00  0.00    +0.000 C 
ENDROOT
BRANCH   9  13
ATOM     13  C   UNL     1      -1.787  -0.469  -0.265  0.00  0.00    +0.000 A 
ATOM     14  C   UNL     1      -2.303  -0.318   0.975  0.00  0.00    +0.000 A 
ATOM     15  C   UNL     1      -3.699  -0.239   1.190  0.00  0.00    +0.000 A 
ATOM     16  C   UNL     1      -4.527  -0.325   0.054  0.00  0.00    +0.000 A 
ATOM     17  C   UNL     1      -3.962  -0.468  -1.158  0.00  0.00    +0.000 A 
ATOM     18  C   UNL     1      -2.602  -0.547  -1.389  0.00  0.00    +0.000 A 
ATOM     19  O   UNL     1      -2.026  -0.694  -2.629  0.00  0.00    +0.000 OA
ENDBRANCH   9  13
BRANCH   6  20
ATOM     20  C   UNL     1       3.564  -0.930   0.073  0.00  0.00    +0.000 C 
ATOM     21  O   UNL     1       3.400  -2.186  -0.521  0.00  0.00    +0.000 OA
ENDBRANCH   6  20
TORSDOF 2
