REMARK  Name = 
REMARK  5 active torsions:
REMARK  status: ('A' for Active; 'I' for Inactive)
REMARK    1  A    between atoms: C_2  and  C_3
REMARK    2  A    between atoms: C_3  and  C_4
REMARK    3  A    between atoms: C_4  and  C_5
REMARK    4  A    between atoms: C_5  and  C_6
REMARK    5  A    between atoms: C_6  and  C_7
REMARK                            x       y       z     vdW  Elec       q    Type
REMARK                         _______ _______ _______ _____ _____    ______ ____
ROOT
ATOM      1  C   UNL     1      -0.067  -0.283  -0.751  0.00  0.00    +0.000 C 
ATOM      2  C   UNL     1      -1.020   0.132  -1.857  0.00  0.00    +0.000 C 
ATOM      3  O   UNL     1      -0.709   0.017  -3.072  0.00  0.00    +0.000 OA
ATOM      4  N   UNL     1      -2.274   0.656  -1.520  0.00  0.00    +0.000 NA
ATOM      5  C   UNL     1      -2.901   0.287  -0.304  0.00  0.00    +0.000 C 
ATOM      6  O   UNL     1      -4.025   0.718   0.059  0.00  0.00    +0.000 OA
ATOM      7  N   UNL     1      -2.221  -0.633   0.573  0.00  0.00    +0.000 N 
ATOM      8  C   UNL     1      -2.859  -1.014   1.807  0.00  0.00    +0.000 C 
ATOM      9  C   UNL     1      -0.962  -1.108   0.157  0.00  0.00    +0.000 C 
ATOM     10  O   UNL     1      -0.543  -2.217   0.522  0.00  0.00    +0.000 OA
ENDROOT
BRANCH   1  11
ATOM     11  C   UNL     1       0.393   0.913  -0.024  0.00  0.00    +0.000 A 
ATOM     12  C   UNL     1      -0.577   1.859   0.368  0.00  0.00    +0.000 A 
ATOM     13  C   UNL     1      -0.228   3.007   1.036  0.00  0.00    +0.000 A 
ATOM     14  C   UNL     1       1.073   3.273   1.345  0.00  0.00    +0.000 A 
ATOM     15  C   UNL     1       2.063   2.362   0.974  0.00  0.00    +0.000 A 
ATOM     16  C   UNL     1       1.663   1.228   0.307  0.00  0.00    +0.000 A 
ENDBRANCH   1  11
BRANCH   1  17
ATOM     17  C   UNL     1       0.964  -1.105  -1.379  0.00  0.00    +0.000 C 
BRANCH  17  18
ATOM     18  C   UNL     1       2.013  -1.779  -0.681  0.00  0.00    +0.000 C 
BRANCH  18  19
ATOM     19  C   UNL     1       3.031  -1.109   0.127  0.00  0.00    +0.000 C 
BRANCH  19  21
ATOM     20  C   UNL     1       3.204  -3.081   1.593  0.00  0.00    +0.000 C 
ATOM     21  C   UNL     1       3.982  -2.122   0.718  0.00  0.00    +0.000 C 
ENDBRANCH  19  21
ENDBRANCH  18  19
ENDBRANCH  17  18
ENDBRANCH   1  17
TORSDOF 5
