REMARK  Name = 
REMARK  1 active torsions:
REMARK  status: ('A' for Active; 'I' for Inactive)
REMARK    1  A    between atoms: C_2  and  C_5
REMARK                            x       y       z     vdW  Elec       q    Type
REMARK                         _______ _______ _______ _____ _____    ______ ____
ROOT
ATOM      1  C   UNL     1       2.498  -0.511   0.104  0.00  0.00    +0.000 A 
ATOM      2  C   UNL     1       2.469  -0.240  -1.231  0.00  0.00    +0.000 A 
ATOM      3  C   UNL     1       1.318   0.100  -1.907  0.00  0.00    +0.000 A 
ATOM      4  C   UNL     1       0.126   0.173  -1.195  0.00  0.00    +0.000 A 
ATOM      5  N   UNL     1      -1.142   0.488  -1.571  0.00  0.00    +0.000 NA
ATOM      6  C   UNL     1      -1.950   0.432  -0.531  0.00  0.00    +0.000 A 
ATOM      7  C   UNL     1      -1.176   0.064   0.569  0.00  0.00    +0.000 A 
ATOM      8  C   UNL     1       0.120  -0.099   0.170  0.00  0.00    +0.000 A 
ATOM      9  C   UNL     1       1.304  -0.434   0.780  0.00  0.00    +0.000 A 
ATOM     10  C   UNL     1      -1.875  -0.073   1.843  0.00  0.00    +0.000 C 
ATOM     11  C   UNL     1      -3.220  -0.710   1.699  0.00  0.00    +0.000 C 
ATOM     12  C   UNL     1      -4.122  -0.010   0.714  0.00  0.00    +0.000 C 
ATOM     13  C   UNL     1      -3.385   0.689  -0.368  0.00  0.00    +0.000 C 
ATOM     14  N   UNL     1      -4.019   1.504  -1.124  0.00  0.00    +0.000 NA
ATOM     15  O   UNL     1      -3.295   2.143  -2.119  0.00  0.00    +0.000 OA
ENDROOT
BRANCH   1  17
ATOM     16  C   UNL     1       4.801  -1.439  -0.085  0.00  0.00    +0.000 C 
ATOM     17  C   UNL     1       3.774  -0.840   0.824  0.00  0.00    +0.000 C 
ATOM     18  C   UNL     1       3.420  -1.698   2.011  0.00  0.00    +0.000 C 
ATOM     19  C   UNL     1       4.354   0.463   1.419  0.00  0.00    +0.000 C 
ENDBRANCH   1  17
TORSDOF 1
