REMARK  Name = 
REMARK  3 active torsions:
REMARK  status: ('A' for Active; 'I' for Inactive)
REMARK    1  A    between atoms: C_4  and  O_5
REMARK    2  A    between atoms: O_5  and  C_6
REMARK    3  A    between atoms: C_16  and  N_17
REMARK                            x       y       z     vdW  Elec       q    Type
REMARK                         _______ _______ _______ _____ _____    ______ ____
ROOT
ATOM      1  N   UNL     1       3.425  -3.137   0.264  0.00  0.00    +0.000 NA
ATOM      2  C   UNL     1       2.872  -1.847  -0.049  0.00  0.00    +0.000 A 
ATOM      3  C   UNL     1       1.682  -1.720  -0.737  0.00  0.00    +0.000 A 
ATOM      4  C   UNL     1       1.120  -0.499  -1.055  0.00  0.00    +0.000 A 
ATOM      5  C   UNL     1       1.814   0.640  -0.648  0.00  0.00    +0.000 A 
ATOM      6  C   UNL     1       3.007   0.556   0.041  0.00  0.00    +0.000 A 
ATOM      7  C   UNL     1       3.521  -0.690   0.332  0.00  0.00    +0.000 A 
ENDROOT
BRANCH   6   8
ATOM      8  N   UNL     1       3.698   1.732   0.447  0.00  0.00    +0.000 N 
ATOM      9  O   UNL     1       4.773   1.636   1.068  0.00  0.00    +0.000 OA
ATOM     10  O   UNL     1       3.204   2.973   0.167  0.00  0.00    +0.000 OA
ENDBRANCH   6   8
BRANCH   4  11
ATOM     11  O   UNL     1      -0.084  -0.395  -1.751  0.00  0.00    +0.000 OA
BRANCH  11  12
ATOM     12  C   UNL     1      -1.276  -0.349  -1.060  0.00  0.00    +0.000 A 
ATOM     13  C   UNL     1      -1.917  -1.533  -0.783  0.00  0.00    +0.000 A 
ATOM     14  C   UNL     1      -3.115  -1.573  -0.097  0.00  0.00    +0.000 A 
ATOM     15  C   UNL     1      -3.704  -0.400   0.333  0.00  0.00    +0.000 A 
ATOM     16  C   UNL     1      -3.080   0.786   0.066  0.00  0.00    +0.000 A 
ATOM     17  C   UNL     1      -1.884   0.810  -0.621  0.00  0.00    +0.000 A 
ATOM     18  C   UNL     1      -3.879   1.902   0.612  0.00  0.00    +0.000 C 
ATOM     19  C   UNL     1      -5.212   1.300   1.010  0.00  0.00    +0.000 C 
ATOM     20  C   UNL     1      -4.964  -0.192   1.075  0.00  0.00    +0.000 C 
ENDBRANCH  11  12
ENDBRANCH   4  11
TORSDOF 3
