REMARK  Name = 
REMARK  5 active torsions:
REMARK  status: ('A' for Active; 'I' for Inactive)
REMARK    1  A    between atoms: O_2  and  C_3
REMARK    2  A    between atoms: C_9  and  N_10
REMARK    3  A    between atoms: N_10  and  C_11
REMARK    4  A    between atoms: C_11  and  C_12
REMARK    5  A    between atoms: C_12  and  C_13
REMARK                            x       y       z     vdW  Elec       q    Type
REMARK                         _______ _______ _______ _____ _____    ______ ____
ROOT
ATOM      1  C   UNL     1      -3.997   0.370   1.044  0.00  0.00    +0.000 A 
ATOM      2  C   UNL     1      -3.783   1.638   0.603  0.00  0.00    +0.000 A 
ATOM      3  C   UNL     1      -2.601   2.005   0.003  0.00  0.00    +0.000 A 
ATOM      4  C   UNL     1      -1.601   1.073  -0.160  0.00  0.00    +0.000 A 
ATOM      5  N   UNL     1      -0.359   1.117  -0.695  0.00  0.00    +0.000 NA
ATOM      6  C   UNL     1       0.196  -0.103  -0.590  0.00  0.00    +0.000 A 
ATOM      7  C   UNL     1       1.430  -0.573  -0.980  0.00  0.00    +0.000 A 
ATOM      8  N   UNL     1       1.751  -1.869  -0.756  0.00  0.00    +0.000 NA
ATOM      9  C   UNL     1       0.852  -2.691  -0.149  0.00  0.00    +0.000 A 
ATOM     10  N   UNL     1      -0.355  -2.239   0.234  0.00  0.00    +0.000 NA
ATOM     11  C   UNL     1      -0.680  -0.973   0.020  0.00  0.00    +0.000 A 
ATOM     12  C   UNL     1      -1.823  -0.211   0.290  0.00  0.00    +0.000 A 
ATOM     13  C   UNL     1      -2.997  -0.574   0.885  0.00  0.00    +0.000 A 
ENDROOT
BRANCH   1  15
ATOM     14  C   UNL     1      -6.190   0.996   1.794  0.00  0.00    +0.000 C 
ATOM     15  O   UNL     1      -5.207  -0.011   1.660  0.00  0.00    +0.000 OA
ENDBRANCH   1  15
BRANCH   7  16
ATOM     16  N   UNL     1       2.324   0.339  -1.609  0.00  0.00    +0.000 NA
BRANCH  16  17
ATOM     17  C   UNL     1       3.644  -0.069  -2.052  0.00  0.00    +0.000 C 
BRANCH  17  18
ATOM     18  C   UNL     1       4.380  -0.554  -0.801  0.00  0.00    +0.000 C 
BRANCH  18  19
ATOM     19  C   UNL     1       4.476   0.563   0.218  0.00  0.00    +0.000 C 
ATOM     20  C   UNL     1       5.216  -0.004   1.418  0.00  0.00    +0.000 C 
ATOM     21  C   UNL     1       5.323   1.654  -0.377  0.00  0.00    +0.000 C 
ENDBRANCH  18  19
ENDBRANCH  17  18
ENDBRANCH  16  17
ENDBRANCH   7  16
TORSDOF 5
