REMARK  Name = 
REMARK  2 active torsions:
REMARK  status: ('A' for Active; 'I' for Inactive)
REMARK    1  A    between atoms: C_6  and  C_7
REMARK    2  A    between atoms: C_7  and  C_8
REMARK                            x       y       z     vdW  Elec       q    Type
REMARK                         _______ _______ _______ _____ _____    ______ ____
ROOT
ATOM      1  C   UNL     1      -5.179  -1.867  -0.944  0.00  0.00    +0.000 C 
ATOM      2  C   UNL     1      -4.096  -1.046  -0.317  0.00  0.00    +0.000 A 
ATOM      3  C   UNL     1      -2.915  -0.833  -1.017  0.00  0.00    +0.000 A 
ATOM      4  C   UNL     1      -1.877  -0.080  -0.486  0.00  0.00    +0.000 A 
ATOM      5  N   UNL     1      -0.730   0.129  -1.159  0.00  0.00    +0.000 NA
ATOM      6  C   UNL     1       0.288   0.857  -0.658  0.00  0.00    +0.000 A 
ATOM      7  C   UNL     1       0.166   1.417   0.592  0.00  0.00    +0.000 A 
ATOM      8  O   UNL     1       1.074   2.113   1.133  0.00  0.00    +0.000 OA
ATOM      9  N   UNL     1      -0.982   1.219   1.289  0.00  0.00    +0.000 NA
ATOM     10  C   UNL     1      -1.995   0.483   0.767  0.00  0.00    +0.000 A 
ATOM     11  C   UNL     1      -3.175   0.264   1.454  0.00  0.00    +0.000 A 
ATOM     12  C   UNL     1      -4.212  -0.482   0.936  0.00  0.00    +0.000 A 
ATOM     13  C   UNL     1      -5.477  -0.711   1.683  0.00  0.00    +0.000 C 
ENDROOT
BRANCH   6  14
ATOM     14  C   UNL     1       1.538   1.066  -1.431  0.00  0.00    +0.000 C 
BRANCH  14  15
ATOM     15  C   UNL     1       2.645   0.214  -0.918  0.00  0.00    +0.000 A 
ATOM     16  C   UNL     1       2.915  -1.056  -1.360  0.00  0.00    +0.000 A 
ATOM     17  C   UNL     1       3.978  -1.796  -0.824  0.00  0.00    +0.000 A 
ATOM     18  C   UNL     1       4.767  -1.228   0.170  0.00  0.00    +0.000 A 
ATOM     19  C   UNL     1       4.508   0.041   0.622  0.00  0.00    +0.000 A 
ATOM     20  F   UNL     1       5.306   0.556   1.596  0.00  0.00    +0.000 F 
ATOM     21  C   UNL     1       3.451   0.740   0.070  0.00  0.00    +0.000 A 
ENDBRANCH  14  15
ENDBRANCH   6  14
TORSDOF 2
