REMARK  Name = 
REMARK  4 active torsions:
REMARK  status: ('A' for Active; 'I' for Inactive)
REMARK    1  A    between atoms: C_2  and  C_4
REMARK    2  A    between atoms: C_8  and  C_9
REMARK    3  A    between atoms: N_11  and  C_12
REMARK    4  A    between atoms: C_12  and  C_13
REMARK                            x       y       z     vdW  Elec       q    Type
REMARK                         _______ _______ _______ _____ _____    ______ ____
ROOT
ATOM      1  C   UNL     1       3.011  -0.647  -0.201  0.00  0.00    +0.000 A 
ATOM      2  C   UNL     1       2.817  -1.375   0.961  0.00  0.00    +0.000 A 
ATOM      3  C   UNL     1       3.818  -2.357   1.508  0.00  0.00    +0.000 C 
ATOM      4  N   UNL     1       1.621  -1.046   1.475  0.00  0.00    +0.000 NA
ATOM      5  C   UNL     1       1.055  -0.131   0.669  0.00  0.00    +0.000 A 
ATOM      6  C   UNL     1       1.900   0.140  -0.390  0.00  0.00    +0.000 A 
ATOM      7  C   UNL     1       1.700   1.082  -1.530  0.00  0.00    +0.000 C 
ENDROOT
BRANCH   1   9
ATOM      8  C   UNL     1       4.227   0.131  -2.263  0.00  0.00    +0.000 C 
ATOM      9  C   UNL     1       4.189  -0.722  -1.053  0.00  0.00    +0.000 C 
ATOM     10  O   UNL     1       5.157  -1.469  -0.804  0.00  0.00    +0.000 OA
ENDBRANCH   1   9
BRANCH   5  11
ATOM     11  C   UNL     1      -0.250   0.506   0.843  0.00  0.00    +0.000 C 
ATOM     12  O   UNL     1      -0.928   0.178   1.837  0.00  0.00    +0.000 OA
ATOM     13  N   UNL     1      -0.750   1.465  -0.070  0.00  0.00    +0.000 NA
BRANCH  13  14
ATOM     14  C   UNL     1      -2.043   2.058   0.156  0.00  0.00    +0.000 C 
BRANCH  14  15
ATOM     15  C   UNL     1      -3.169   1.177  -0.174  0.00  0.00    +0.000 A 
ATOM     16  C   UNL     1      -2.980  -0.104  -0.659  0.00  0.00    +0.000 A 
ATOM     17  C   UNL     1      -4.053  -0.888  -0.953  0.00  0.00    +0.000 A 
ATOM     18  C   UNL     1      -5.360  -0.457  -0.787  0.00  0.00    +0.000 A 
ATOM     19  C   UNL     1      -5.524   0.830  -0.300  0.00  0.00    +0.000 A 
ATOM     20  C   UNL     1      -4.439   1.628  -0.001  0.00  0.00    +0.000 A 
ENDBRANCH  14  15
ENDBRANCH  13  14
ENDBRANCH   5  11
TORSDOF 4
