REMARK  Name = 
REMARK  4 active torsions:
REMARK  status: ('A' for Active; 'I' for Inactive)
REMARK    1  A    between atoms: C_2  and  C_3
REMARK    2  A    between atoms: C_2  and  C_12
REMARK    3  A    between atoms: C_3  and  O_5
REMARK    4  A    between atoms: O_5  and  C_6
REMARK                            x       y       z     vdW  Elec       q    Type
REMARK                         _______ _______ _______ _____ _____    ______ ____
ROOT
ATOM      1  C   UNL     1       0.237  -2.554  -1.033  0.00  0.00    +0.000 C 
ATOM      2  C   UNL     1       0.479  -1.949   0.492  0.00  0.00    +0.000 C 
ENDROOT
BRANCH   2   3
ATOM      3  C   UNL     1       1.777  -1.107   0.137  0.00  0.00    +0.000 A 
ATOM      4  C   UNL     1       2.679  -1.492  -0.754  0.00  0.00    +0.000 A 
ATOM      5  C   UNL     1       3.777  -0.692  -0.995  0.00  0.00    +0.000 A 
ATOM      6  C   UNL     1       3.934   0.498  -0.315  0.00  0.00    +0.000 A 
ATOM      7  N   UNL     1       5.076   1.331  -0.565  0.00  0.00    +0.000 NA
ATOM      8  C   UNL     1       2.993   0.900   0.615  0.00  0.00    +0.000 A 
ATOM      9 CL   UNL     1       3.178   2.415   1.491  0.00  0.00    +0.000 Cl
ATOM     10  C   UNL     1       1.905   0.064   0.824  0.00  0.00    +0.000 A 
ENDBRANCH   2   3
BRANCH   2  11
ATOM     11  C   UNL     1      -0.604  -0.810   0.369  0.00  0.00    +0.000 C 
ATOM     12  O   UNL     1      -0.220   0.301   0.064  0.00  0.00    +0.000 OA
BRANCH  11  13
ATOM     13  O   UNL     1      -1.903  -1.149   0.615  0.00  0.00    +0.000 OA
BRANCH  13  14
ATOM     14  C   UNL     1      -2.897  -0.146   0.511  0.00  0.00    +0.000 C 
ATOM     15  C   UNL     1      -4.252  -0.694   0.812  0.00  0.00    +0.000 C 
ATOM     16  C   UNL     1      -5.290   0.376   0.474  0.00  0.00    +0.000 C 
ATOM     17  C   UNL     1      -4.601   1.722   0.315  0.00  0.00    +0.000 C 
ATOM     18  C   UNL     1      -3.733   1.947   1.559  0.00  0.00    +0.000 C 
ATOM     19  C   UNL     1      -2.534   1.040   1.408  0.00  0.00    +0.000 C 
ENDBRANCH  13  14
ENDBRANCH  11  13
ENDBRANCH   2  11
TORSDOF 4
