REMARK  Name = 
REMARK  4 active torsions:
REMARK  status: ('A' for Active; 'I' for Inactive)
REMARK    1  A    between atoms: O_2  and  C_3
REMARK    2  A    between atoms: C_3  and  C_5
REMARK    3  A    between atoms: C_8  and  S_9
REMARK    4  A    between atoms: S_9  and  C_10
REMARK                            x       y       z     vdW  Elec       q    Type
REMARK                         _______ _______ _______ _____ _____    ______ ____
ROOT
ATOM      1  C   UNL     1       2.792  -0.221  -0.187  0.00  0.00    +0.000 A 
ATOM      2  C   UNL     1       2.139  -1.281   0.374  0.00  0.00    +0.000 A 
ATOM      3  C   UNL     1       0.922  -1.083   0.993  0.00  0.00    +0.000 A 
ATOM      4  C   UNL     1       0.326   0.168   1.067  0.00  0.00    +0.000 A 
ATOM      5  C   UNL     1       0.982   1.217   0.506  0.00  0.00    +0.000 A 
ATOM      6  N   UNL     1       0.433   2.546   0.540  0.00  0.00    +0.000 NA
ATOM      7  C   UNL     1       2.194   1.022  -0.110  0.00  0.00    +0.000 A 
ENDROOT
BRANCH   1   8
ATOM      8  C   UNL     1       4.087  -0.367  -0.858  0.00  0.00    +0.000 C 
ATOM      9  O   UNL     1       4.644   0.619  -1.354  0.00  0.00    +0.000 OA
BRANCH   8  11
ATOM     10  C   UNL     1       5.927  -1.720  -1.585  0.00  0.00    +0.000 C 
ATOM     11  O   UNL     1       4.694  -1.603  -0.942  0.00  0.00    +0.000 OA
ENDBRANCH   8  11
ENDBRANCH   1   8
BRANCH   4  12
ATOM     12  S   UNL     1      -1.246   0.416   1.867  0.00  0.00    +0.000 S 
BRANCH  12  13
ATOM     13  C   UNL     1      -2.602   0.222   0.719  0.00  0.00    +0.000 A 
ATOM     14  C   UNL     1      -3.211  -0.996   0.499  0.00  0.00    +0.000 A 
ATOM     15  C   UNL     1      -4.258  -1.151  -0.385  0.00  0.00    +0.000 A 
ATOM     16  C   UNL     1      -4.740  -0.061  -1.096  0.00  0.00    +0.000 A 
ATOM     17  C   UNL     1      -5.866  -0.189  -2.058  0.00  0.00    +0.000 C 
ATOM     18  C   UNL     1      -4.132   1.158  -0.877  0.00  0.00    +0.000 A 
ATOM     19  C   UNL     1      -3.085   1.306   0.009  0.00  0.00    +0.000 A 
ENDBRANCH  12  13
ENDBRANCH   4  12
TORSDOF 4
