REMARK  Name = 
REMARK  4 active torsions:
REMARK  status: ('A' for Active; 'I' for Inactive)
REMARK    1  A    between atoms: C_8  and  C_9
REMARK    2  A    between atoms: C_9  and  C_10
REMARK    3  A    between atoms: C_10  and  N_11
REMARK    4  A    between atoms: C_12  and  C_14
REMARK                            x       y       z     vdW  Elec       q    Type
REMARK                         _______ _______ _______ _____ _____    ______ ____
ROOT
ATOM      1  C   UNL     1      -4.709  -2.089   0.254  0.00  0.00    +0.000 C 
ATOM      2  C   UNL     1      -3.891  -0.836   0.386  0.00  0.00    +0.000 A 
ATOM      3  C   UNL     1      -4.089   0.052   1.423  0.00  0.00    +0.000 A 
ATOM      4  C   UNL     1      -3.351   1.202   1.559  0.00  0.00    +0.000 A 
ATOM      5  C   UNL     1      -2.371   1.485   0.621  0.00  0.00    +0.000 A 
ATOM      6  N   UNL     1      -1.510   2.511   0.496  0.00  0.00    +0.000 NA
ATOM      7  C   UNL     1      -0.740   2.339  -0.594  0.00  0.00    +0.000 A 
ATOM      8  C   UNL     1      -1.128   1.157  -1.183  0.00  0.00    +0.000 A 
ATOM      9  C   UNL     1      -2.147   0.620  -0.428  0.00  0.00    +0.000 A 
ATOM     10  C   UNL     1      -2.913  -0.547  -0.543  0.00  0.00    +0.000 A 
ENDROOT
BRANCH   8  11
ATOM     11  C   UNL     1      -0.593   0.512  -2.413  0.00  0.00    +0.000 C 
BRANCH  11  12
ATOM     12  C   UNL     1       0.290  -0.651  -1.948  0.00  0.00    +0.000 C 
BRANCH  12  13
ATOM     13  N   UNL     1       1.335  -0.064  -1.133  0.00  0.00    +0.000 NA
ATOM     14  C   UNL     1       2.360  -0.847  -0.516  0.00  0.00    +0.000 C 
ATOM     15  O   UNL     1       2.334  -2.089  -0.702  0.00  0.00    +0.000 OA
BRANCH  14  16
ATOM     16  C   UNL     1       3.393  -0.220   0.297  0.00  0.00    +0.000 A 
ATOM     17  C   UNL     1       4.411  -0.908   0.919  0.00  0.00    +0.000 A 
ATOM     18  C   UNL     1       5.164   0.024   1.577  0.00  0.00    +0.000 A 
ATOM     19  C   UNL     1       4.597   1.249   1.344  0.00  0.00    +0.000 A 
ATOM     20  O   UNL     1       3.558   1.041   0.585  0.00  0.00    +0.000 OA
ENDBRANCH  14  16
ENDBRANCH  12  13
ENDBRANCH  11  12
ENDBRANCH   8  11
TORSDOF 4
