REMARK  Name = 
REMARK  2 active torsions:
REMARK  status: ('A' for Active; 'I' for Inactive)
REMARK    1  A    between atoms: C_6  and  O_7
REMARK    2  A    between atoms: O_7  and  C_8
REMARK                            x       y       z     vdW  Elec       q    Type
REMARK                         _______ _______ _______ _____ _____    ______ ____
ROOT
ATOM      1  C   UNL     1      -0.839   0.274  -1.054  0.00  0.00    +0.000 A 
ATOM      2  C   UNL     1      -0.439   1.453  -0.466  0.00  0.00    +0.000 A 
ATOM      3  C   UNL     1       0.862   1.604  -0.038  0.00  0.00    +0.000 A 
ATOM      4  C   UNL     1       1.791   0.575  -0.192  0.00  0.00    +0.000 A 
ATOM      5  C   UNL     1       1.393  -0.605  -0.781  0.00  0.00    +0.000 A 
ATOM      6  C   UNL     1       0.071  -0.745  -1.209  0.00  0.00    +0.000 A 
ATOM      7  C   UNL     1       2.528  -1.563  -0.848  0.00  0.00    +0.000 C 
ATOM      8  C   UNL     1       3.654  -0.778  -0.215  0.00  0.00    +0.000 A 
ATOM      9  S   UNL     1       5.295  -0.743   0.262  0.00  0.00    +0.000 S 
ATOM     10  C   UNL     1       5.350   0.830   0.912  0.00  0.00    +0.000 A 
ATOM     11  N   UNL     1       6.424   1.582   1.518  0.00  0.00    +0.000 NA
ATOM     12  N   UNL     1       4.118   1.252   0.736  0.00  0.00    +0.000 NA
ATOM     13  C   UNL     1       3.235   0.462   0.168  0.00  0.00    +0.000 A 
ENDROOT
BRANCH   1  14
ATOM     14  O   UNL     1      -2.155   0.174  -1.465  0.00  0.00    +0.000 OA
BRANCH  14  20
ATOM     15  C   UNL     1      -5.818   0.949   1.706  0.00  0.00    +0.000 C 
ATOM     16  C   UNL     1      -4.998   0.069   0.856  0.00  0.00    +0.000 A 
ATOM     17  C   UNL     1      -5.294  -1.288   0.830  0.00  0.00    +0.000 A 
ATOM     18  C   UNL     1      -4.543  -2.134   0.044  0.00  0.00    +0.000 A 
ATOM     19  C   UNL     1      -3.497  -1.628  -0.717  0.00  0.00    +0.000 A 
ATOM     20  C   UNL     1      -3.191  -0.286  -0.703  0.00  0.00    +0.000 A 
ATOM     21  C   UNL     1      -3.949   0.546   0.086  0.00  0.00    +0.000 A 
ENDBRANCH  14  20
ENDBRANCH   1  14
TORSDOF 2
