REMARK  Name = 
REMARK  4 active torsions:
REMARK  status: ('A' for Active; 'I' for Inactive)
REMARK    1  A    between atoms: C_2  and  C_3
REMARK    2  A    between atoms: C_3  and  S_4
REMARK    3  A    between atoms: S_4  and  C_5
REMARK    4  A    between atoms: C_15  and  C_16
REMARK                            x       y       z     vdW  Elec       q    Type
REMARK                         _______ _______ _______ _____ _____    ______ ____
ROOT
ATOM      1  C   UNL     1       2.290  -1.467  -0.112  0.00  0.00    +0.000 A 
ATOM      2  N   UNL     1       2.164  -0.324  -0.808  0.00  0.00    +0.000 NA
ATOM      3  N   UNL     1       1.015   0.309  -0.979  0.00  0.00    +0.000 NA
ATOM      4  C   UNL     1      -0.098  -0.194  -0.442  0.00  0.00    +0.000 A 
ATOM      5  C   UNL     1      -0.011  -1.361   0.277  0.00  0.00    +0.000 A 
ATOM      6  N   UNL     1       1.188  -1.997   0.441  0.00  0.00    +0.000 NA
ATOM      7  N   UNL     1      -1.260  -1.651   0.707  0.00  0.00    +0.000 NA
ATOM      8  C   UNL     1      -2.108  -0.703   0.277  0.00  0.00    +0.000 A 
ATOM      9  C   UNL     1      -3.479  -0.494   0.418  0.00  0.00    +0.000 A 
ATOM     10  C   UNL     1      -4.103   0.596  -0.146  0.00  0.00    +0.000 A 
ATOM     11  C   UNL     1      -3.401   1.530  -0.875  0.00  0.00    +0.000 A 
ATOM     12  C   UNL     1      -2.046   1.342  -1.024  0.00  0.00    +0.000 A 
ATOM     13  C   UNL     1      -1.408   0.231  -0.450  0.00  0.00    +0.000 A 
ENDROOT
BRANCH  11  14
ATOM     14  C   UNL     1      -4.108   2.702  -1.474  0.00  0.00    +0.000 C 
ATOM     15  C   UNL     1      -4.092   3.817  -0.469  0.00  0.00    +0.000 C 
ENDBRANCH  11  14
BRANCH   1  16
ATOM     16  S   UNL     1       3.901  -2.266   0.073  0.00  0.00    +0.000 S 
BRANCH  16  17
ATOM     17  C   UNL     1       5.143  -1.270  -0.800  0.00  0.00    +0.000 C 
BRANCH  17  19
ATOM     18  C   UNL     1       5.082   1.145  -0.886  0.00  0.00    +0.000 C 
ATOM     19  C   UNL     1       5.329   0.055  -0.161  0.00  0.00    +0.000 C 
ENDBRANCH  17  19
ENDBRANCH  16  17
ENDBRANCH   1  16
TORSDOF 4
