REMARK  Name = 
REMARK  4 active torsions:
REMARK  status: ('A' for Active; 'I' for Inactive)
REMARK    1  A    between atoms: C_2  and  C_3
REMARK    2  A    between atoms: C_3  and  N_4
REMARK    3  A    between atoms: N_4  and  C_5
REMARK    4  A    between atoms: C_9  and  C_10
REMARK                            x       y       z     vdW  Elec       q    Type
REMARK                         _______ _______ _______ _____ _____    ______ ____
ROOT
ATOM      1  C   UNL     1       0.874  -0.954  -0.187  0.00  0.00    +0.000 A 
ATOM      2  C   UNL     1       0.582  -2.348  -0.212  0.00  0.00    +0.000 A 
ATOM      3  C   UNL     1      -0.681  -2.783  -0.090  0.00  0.00    +0.000 A 
ATOM      4  C   UNL     1      -1.022  -4.251  -0.113  0.00  0.00    +0.000 C 
ATOM      5  C   UNL     1      -1.681  -1.855   0.059  0.00  0.00    +0.000 A 
ATOM      6  C   UNL     1      -1.379  -0.499   0.081  0.00  0.00    +0.000 A 
ATOM      7  N   UNL     1      -2.143   0.600   0.211  0.00  0.00    +0.000 NA
ATOM      8  C   UNL     1      -1.407   1.699   0.175  0.00  0.00    +0.000 A 
ATOM      9  C   UNL     1      -1.641   3.056   0.257  0.00  0.00    +0.000 A 
ATOM     10  C   UNL     1      -0.633   3.984   0.184  0.00  0.00    +0.000 A 
ATOM     11  C   UNL     1       0.670   3.573   0.023  0.00  0.00    +0.000 A 
ATOM     12  C   UNL     1       0.913   2.248  -0.059  0.00  0.00    +0.000 A 
ATOM     13  C   UNL     1      -0.083   1.288   0.012  0.00  0.00    +0.000 A 
ATOM     14  N   UNL     1      -0.107  -0.050  -0.041  0.00  0.00    +0.000 N 
ENDROOT
BRANCH   5  15
ATOM     15  C   UNL     1      -3.036  -2.263   0.192  0.00  0.00    +0.000 C 
ATOM     16  N   UNL     1      -4.134  -2.610   0.312  0.00  0.00    +0.000 NA
ENDBRANCH   5  15
BRANCH   1  17
ATOM     17  N   UNL     1       2.206  -0.579  -0.318  0.00  0.00    +0.000 NA
BRANCH  17  18
ATOM     18  C   UNL     1       2.978   0.548  -0.357  0.00  0.00    +0.000 C 
BRANCH  18  20
ATOM     19  C   UNL     1       5.303   0.819   0.396  0.00  0.00    +0.000 C 
ATOM     20  C   UNL     1       4.425   0.375  -0.524  0.00  0.00    +0.000 C 
ENDBRANCH  18  20
ENDBRANCH  17  18
ENDBRANCH   1  17
TORSDOF 4
