REMARK  Name = 
REMARK  2 active torsions:
REMARK  status: ('A' for Active; 'I' for Inactive)
REMARK    1  A    between atoms: O_2  and  C_3
REMARK    2  A    between atoms: C_9  and  N_10
REMARK                            x       y       z     vdW  Elec       q    Type
REMARK                         _______ _______ _______ _____ _____    ______ ____
ROOT
ATOM      1  N   UNL     1      -0.270  -0.531   0.586  0.00  0.00    +0.000 N 
ATOM      2  C   UNL     1       0.492  -1.783   0.730  0.00  0.00    +0.000 C 
ATOM      3  C   UNL     1       1.841  -1.328   0.225  0.00  0.00    +0.000 A 
ATOM      4  C   UNL     1       2.941  -2.032  -0.237  0.00  0.00    +0.000 A 
ATOM      5  N   UNL     1       4.063  -1.426  -0.649  0.00  0.00    +0.000 NA
ATOM      6  C   UNL     1       4.128  -0.077  -0.615  0.00  0.00    +0.000 A 
ATOM      7  C   UNL     1       5.369   0.646  -1.068  0.00  0.00    +0.000 C 
ATOM      8  C   UNL     1       3.072   0.678  -0.168  0.00  0.00    +0.000 A 
ATOM      9  O   UNL     1       3.125   2.082  -0.126  0.00  0.00    +0.000 OA
ATOM     10  C   UNL     1       1.922   0.044   0.254  0.00  0.00    +0.000 A 
ATOM     11  C   UNL     1       0.628   0.579   0.786  0.00  0.00    +0.000 C 
ENDROOT
BRANCH   1  18
ATOM     12  C   UNL     1      -2.244   0.803   0.190  0.00  0.00    +0.000 A 
ATOM     13  C   UNL     1      -3.601   0.921  -0.092  0.00  0.00    +0.000 A 
ATOM     14  C   UNL     1      -4.386  -0.201  -0.269  0.00  0.00    +0.000 A 
ATOM     15  O   UNL     1      -5.747  -0.053  -0.551  0.00  0.00    +0.000 OA
ATOM     16  C   UNL     1      -3.772  -1.416  -0.155  0.00  0.00    +0.000 A 
ATOM     17  C   UNL     1      -2.438  -1.582   0.121  0.00  0.00    +0.000 A 
ATOM     18  C   UNL     1      -1.644  -0.443   0.300  0.00  0.00    +0.000 A 
BRANCH  12  20
ATOM     19  C   UNL     1      -2.050   3.192   0.258  0.00  0.00    +0.000 C 
ATOM     20  O   UNL     1      -1.428   1.927   0.373  0.00  0.00    +0.000 OA
ENDBRANCH  12  20
ENDBRANCH   1  18
TORSDOF 2
