REMARK  Name = 
REMARK  2 active torsions:
REMARK  status: ('A' for Active; 'I' for Inactive)
REMARK    1  A    between atoms: C_2  and  C_3
REMARK    2  A    between atoms: C_8  and  C_9
REMARK                            x       y       z     vdW  Elec       q    Type
REMARK                         _______ _______ _______ _____ _____    ______ ____
ROOT
ATOM      1  C   UNL     1       3.668  -0.074  -0.340  0.00  0.00    +0.000 A 
ATOM      2  C   UNL     1       3.964   0.294  -1.622  0.00  0.00    +0.000 A 
ATOM      3  C   UNL     1       2.949   0.357  -2.558  0.00  0.00    +0.000 A 
ATOM      4  C   UNL     1       1.648   0.059  -2.219  0.00  0.00    +0.000 A 
ATOM      5  C   UNL     1       1.371  -0.308  -0.923  0.00  0.00    +0.000 A 
ATOM      6  C   UNL     1       0.193  -0.647  -0.299  0.00  0.00    +0.000 A 
ATOM      7  C   UNL     1       0.520  -0.912   1.009  0.00  0.00    +0.000 A 
ATOM      8  N   UNL     1       1.811  -0.756   1.209  0.00  0.00    +0.000 NA
ATOM      9  C   UNL     1       2.381  -0.379   0.037  0.00  0.00    +0.000 A 
ENDROOT
BRANCH   6  10
ATOM     10  C   UNL     1      -1.153  -0.769  -0.894  0.00  0.00    +0.000 C 
ATOM     11  C   UNL     1      -2.183  -0.143  -0.325  0.00  0.00    +0.000 C 
ATOM     12  N   UNL     1      -3.553  -0.174  -0.778  0.00  0.00    +0.000 NA
ATOM     13  C   UNL     1      -4.360   0.656   0.040  0.00  0.00    +0.000 C 
ATOM     14  S   UNL     1      -5.961   0.963  -0.050  0.00  0.00    +0.000 S 
ATOM     15  N   UNL     1      -3.498   1.215   1.012  0.00  0.00    +0.000 N 
ATOM     16  C   UNL     1      -3.842   2.142   2.078  0.00  0.00    +0.000 C 
ATOM     17  C   UNL     1      -2.152   0.746   0.819  0.00  0.00    +0.000 C 
ATOM     18  O   UNL     1      -1.158   1.061   1.514  0.00  0.00    +0.000 OA
ENDBRANCH   6  10
BRANCH   1  20
ATOM     19  C   UNL     1       4.628   1.059   1.604  0.00  0.00    +0.000 C 
ATOM     20  C   UNL     1       4.726  -0.157   0.684  0.00  0.00    +0.000 C 
ENDBRANCH   1  20
TORSDOF 2
