REMARK  Name = 
REMARK  3 active torsions:
REMARK  status: ('A' for Active; 'I' for Inactive)
REMARK    1  A    between atoms: C_2  and  O_3
REMARK    2  A    between atoms: O_3  and  C_4
REMARK    3  A    between atoms: C_4  and  C_6
REMARK                            x       y       z     vdW  Elec       q    Type
REMARK                         _______ _______ _______ _____ _____    ______ ____
ROOT
ATOM      1  C   UNL     1       2.069   0.376   0.297  0.00  0.00    +0.000 A 
ATOM      2  C   UNL     1       1.754   0.348  -1.045  0.00  0.00    +0.000 A 
ATOM      3  C   UNL     1       0.462   0.212  -1.503  0.00  0.00    +0.000 A 
ATOM      4  C   UNL     1      -0.569   0.098  -0.558  0.00  0.00    +0.000 A 
ATOM      5  C   UNL     1      -0.268   0.124   0.783  0.00  0.00    +0.000 A 
ATOM      6  C   UNL     1       1.045   0.262   1.207  0.00  0.00    +0.000 A 
ATOM      7  C   UNL     1      -1.544  -0.015   1.583  0.00  0.00    +0.000 C 
ATOM      8  C   UNL     1      -2.577  -0.120   0.524  0.00  0.00    +0.000 A 
ATOM      9  C   UNL     1      -3.966  -0.269   0.600  0.00  0.00    +0.000 A 
ATOM     10  C   UNL     1      -4.707  -0.343  -0.560  0.00  0.00    +0.000 A 
ATOM     11  N   UNL     1      -6.117  -0.493  -0.374  0.00  0.00    +0.000 NA
ATOM     12  C   UNL     1      -4.122  -0.275  -1.784  0.00  0.00    +0.000 A 
ATOM     13  C   UNL     1      -2.761  -0.129  -1.905  0.00  0.00    +0.000 A 
ATOM     14  C   UNL     1      -2.018  -0.055  -0.729  0.00  0.00    +0.000 A 
ENDROOT
BRANCH   1  15
ATOM     15  C   UNL     1       3.461   0.522   0.701  0.00  0.00    +0.000 C 
ATOM     16  O   UNL     1       3.730   0.545   1.926  0.00  0.00    +0.000 OA
BRANCH  15  17
ATOM     17  O   UNL     1       4.444   0.631  -0.260  0.00  0.00    +0.000 OA
BRANCH  17  19
ATOM     18  C   UNL     1       5.903   2.033   0.963  0.00  0.00    +0.000 C 
ATOM     19  C   UNL     1       5.779   0.771   0.133  0.00  0.00    +0.000 C 
ENDBRANCH  17  19
ENDBRANCH  15  17
ENDBRANCH   1  15
TORSDOF 3
