REMARK  Name = 
REMARK  3 active torsions:
REMARK  status: ('A' for Active; 'I' for Inactive)
REMARK    1  A    between atoms: C_2  and  C_5
REMARK    2  A    between atoms: C_8  and  C_9
REMARK    3  A    between atoms: N_11  and  C_12
REMARK                            x       y       z     vdW  Elec       q    Type
REMARK                         _______ _______ _______ _____ _____    ______ ____
ROOT
ATOM      1  C   UNL     1      -3.578   0.175   0.282  0.00  0.00    +0.000 A 
ATOM      2  C   UNL     1      -2.991   0.920   1.280  0.00  0.00    +0.000 A 
ATOM      3  C   UNL     1      -1.606   1.065   1.299  0.00  0.00    +0.000 A 
ATOM      4  C   UNL     1      -0.767   0.495   0.360  0.00  0.00    +0.000 A 
ATOM      5  C   UNL     1      -1.372  -0.252  -0.638  0.00  0.00    +0.000 A 
ATOM      6  C   UNL     1      -2.757  -0.399  -0.663  0.00  0.00    +0.000 A 
ENDROOT
BRANCH   1   8
ATOM      7  C   UNL     1      -5.298  -1.531   0.256  0.00  0.00    +0.000 C 
ATOM      8  C   UNL     1      -5.063  -0.028   0.187  0.00  0.00    +0.000 C 
ATOM      9  C   UNL     1      -5.798   0.684   1.272  0.00  0.00    +0.000 C 
ATOM     10  C   UNL     1      -5.528   0.448  -1.156  0.00  0.00    +0.000 C 
ENDBRANCH   1   8
BRANCH   4  11
ATOM     11  C   UNL     1       0.678   0.648   0.368  0.00  0.00    +0.000 C 
ATOM     12  O   UNL     1       1.264   1.756   0.322  0.00  0.00    +0.000 OA
ATOM     13  N   UNL     1       1.458  -0.526   0.432  0.00  0.00    +0.000 NA
BRANCH  13  14
ATOM     14  C   UNL     1       2.864  -0.595   0.449  0.00  0.00    +0.000 A 
ATOM     15  C   UNL     1       3.392  -1.879   0.613  0.00  0.00    +0.000 A 
ATOM     16  C   UNL     1       4.748  -2.092   0.647  0.00  0.00    +0.000 A 
ATOM     17  C   UNL     1       5.563  -0.994   0.514  0.00  0.00    +0.000 A 
ATOM     18  C   UNL     1       5.079   0.299   0.349  0.00  0.00    +0.000 A 
ATOM     19  O   UNL     1       5.997   1.336   0.223  0.00  0.00    +0.000 OA
ATOM     20  C   UNL     1       3.715   0.469   0.320  0.00  0.00    +0.000 A 
ENDBRANCH  13  14
ENDBRANCH   4  11
TORSDOF 3
