REMARK  Name = 
REMARK  5 active torsions:
REMARK  status: ('A' for Active; 'I' for Inactive)
REMARK    1  A    between atoms: N_2  and  C_4
REMARK    2  A    between atoms: C_7  and  N_8
REMARK    3  A    between atoms: N_8  and  C_9
REMARK    4  A    between atoms: C_9  and  N_11
REMARK    5  A    between atoms: C_12  and  C_14
REMARK                            x       y       z     vdW  Elec       q    Type
REMARK                         _______ _______ _______ _____ _____    ______ ____
ROOT
ATOM      1  N   UNL     1      -0.257  -2.402  -0.934  0.00  0.00    +0.000 NA
ENDROOT
BRANCH   1   5
ATOM      2  C   UNL     1      -3.424   0.275  -0.060  0.00  0.00    +0.000 A 
ATOM      3  C   UNL     1      -2.095   0.582   0.160  0.00  0.00    +0.000 A 
ATOM      4  C   UNL     1      -1.067  -0.289  -0.125  0.00  0.00    +0.000 A 
ATOM      5  C   UNL     1      -1.341  -1.529  -0.652  0.00  0.00    +0.000 A 
ATOM      6  C   UNL     1      -2.651  -1.859  -0.880  0.00  0.00    +0.000 A 
ATOM      7  C   UNL     1      -3.667  -0.973  -0.589  0.00  0.00    +0.000 A 
BRANCH   2   9
ATOM      8  C   UNL     1      -4.194   2.499   0.799  0.00  0.00    +0.000 C 
ATOM      9  N   UNL     1      -4.476   1.192   0.242  0.00  0.00    +0.000 N 
ATOM     10  C   UNL     1      -5.838   0.763  -0.030  0.00  0.00    +0.000 C 
ENDBRANCH   2   9
ENDBRANCH   1   5
BRANCH   1  11
ATOM     11  C   UNL     1       1.096  -2.050  -0.694  0.00  0.00    +0.000 C 
ATOM     12  S   UNL     1       2.230  -3.170  -1.073  0.00  0.00    +0.000 S 
BRANCH  11  13
ATOM     13  N   UNL     1       1.456  -0.771  -0.144  0.00  0.00    +0.000 NA
ATOM     14  C   UNL     1       2.804  -0.413   0.098  0.00  0.00    +0.000 C 
ATOM     15  O   UNL     1       3.677  -1.267  -0.190  0.00  0.00    +0.000 OA
BRANCH  14  16
ATOM     16  C   UNL     1       3.200   0.872   0.654  0.00  0.00    +0.000 A 
ATOM     17  C   UNL     1       2.399   1.931   1.032  0.00  0.00    +0.000 A 
ATOM     18  C   UNL     1       3.218   2.947   1.506  0.00  0.00    +0.000 A 
ATOM     19  C   UNL     1       4.499   2.434   1.387  0.00  0.00    +0.000 A 
ATOM     20  O   UNL     1       4.431   1.227   0.887  0.00  0.00    +0.000 OA
ENDBRANCH  14  16
ENDBRANCH  11  13
ENDBRANCH   1  11
TORSDOF 5
