REMARK  Name = 
REMARK  3 active torsions:
REMARK  status: ('A' for Active; 'I' for Inactive)
REMARK    1  A    between atoms: C_2  and  C_13
REMARK    2  A    between atoms: N_3  and  C_4
REMARK    3  A    between atoms: C_8  and  N_9
REMARK                            x       y       z     vdW  Elec       q    Type
REMARK                         _______ _______ _______ _____ _____    ______ ____
ROOT
ATOM      1  O   UNL     1       0.021   0.887   0.654  0.00  0.00    +0.000 OA
ATOM      2  C   UNL     1      -0.480  -0.258   0.637  0.00  0.00    +0.000 C 
ATOM      3  N   UNL     1       0.365  -1.366   0.422  0.00  0.00    +0.000 NA
ENDROOT
BRANCH   2   4
ATOM      4  C   UNL     1      -1.926  -0.518   0.831  0.00  0.00    +0.000 A 
ATOM      5  C   UNL     1      -2.344  -1.588   1.568  0.00  0.00    +0.000 A 
ATOM      6  S   UNL     1      -4.042  -1.469   1.514  0.00  0.00    +0.000 S 
ATOM      7  C   UNL     1      -4.179  -0.066   0.558  0.00  0.00    +0.000 A 
ATOM      8  C   UNL     1      -2.874   0.276   0.304  0.00  0.00    +0.000 A 
ATOM      9  C   UNL     1      -2.757   1.528  -0.553  0.00  0.00    +0.000 C 
ATOM     10  C   UNL     1      -3.604   1.233  -1.784  0.00  0.00    +0.000 C 
ATOM     11  C   UNL     1      -5.058   1.125  -1.443  0.00  0.00    +0.000 C 
ATOM     12  C   UNL     1      -5.304   0.778  -0.001  0.00  0.00    +0.000 C 
ENDBRANCH   2   4
BRANCH   3  13
ATOM     13  C   UNL     1       1.772  -1.172   0.228  0.00  0.00    +0.000 A 
ATOM     14  C   UNL     1       2.541  -2.304   0.022  0.00  0.00    +0.000 A 
ATOM     15  C   UNL     1       3.889  -2.159  -0.167  0.00  0.00    +0.000 A 
ATOM     16  C   UNL     1       4.479  -0.921  -0.156  0.00  0.00    +0.000 A 
ATOM     17  C   UNL     1       3.718   0.232   0.051  0.00  0.00    +0.000 A 
ATOM     18  C   UNL     1       2.365   0.050   0.237  0.00  0.00    +0.000 A 
BRANCH  17  19
ATOM     19  N   UNL     1       4.326   1.506   0.062  0.00  0.00    +0.000 N 
ATOM     20  O   UNL     1       5.546   1.599  -0.112  0.00  0.00    +0.000 OA
ATOM     21  O   UNL     1       3.547   2.607   0.267  0.00  0.00    +0.000 OA
ENDBRANCH  17  19
ENDBRANCH   3  13
TORSDOF 3
