REMARK  Name = 
REMARK  4 active torsions:
REMARK  status: ('A' for Active; 'I' for Inactive)
REMARK    1  A    between atoms: C_2  and  O_3
REMARK    2  A    between atoms: O_3  and  C_4
REMARK    3  A    between atoms: C_4  and  C_6
REMARK    4  A    between atoms: C_9  and  C_10
REMARK                            x       y       z     vdW  Elec       q    Type
REMARK                         _______ _______ _______ _____ _____    ______ ____
ROOT
ATOM      1  C   UNL     1      -1.159   0.265  -0.226  0.00  0.00    +0.000 C 
ATOM      2  C   UNL     1      -0.263   0.111  -1.094  0.00  0.00    +0.000 C 
ATOM      3  C   UNL     1      -0.368  -0.980  -2.110  0.00  0.00    +0.000 C 
ATOM      4  C   UNL     1       1.046   0.931  -1.310  0.00  0.00    +0.000 C 
ATOM      5  N   UNL     1       0.998   1.980  -0.213  0.00  0.00    +0.000 NA
ATOM      6  C   UNL     1       0.023   2.142   0.725  0.00  0.00    +0.000 C 
ATOM      7  O   UNL     1       0.123   3.064   1.576  0.00  0.00    +0.000 OA
ATOM      8  N   UNL     1      -1.091   1.284   0.747  0.00  0.00    +0.000 N 
ATOM      9  C   UNL     1      -2.118   1.469   1.752  0.00  0.00    +0.000 C 
ENDROOT
BRANCH   4  10
ATOM     10  C   UNL     1       2.008  -0.094  -0.526  0.00  0.00    +0.000 A 
ATOM     11  C   UNL     1       1.623  -0.591   0.660  0.00  0.00    +0.000 A 
ATOM     12  C   UNL     1       2.433  -1.463   1.343  0.00  0.00    +0.000 A 
ATOM     13  C   UNL     1       3.640  -1.813   0.789  0.00  0.00    +0.000 A 
ATOM     14  C   UNL     1       4.014  -1.289  -0.431  0.00  0.00    +0.000 A 
ATOM     15  C   UNL     1       3.185  -0.413  -1.104  0.00  0.00    +0.000 A 
ATOM     16 CL   UNL     1       3.596   0.286  -2.651  0.00  0.00    +0.000 Cl
ENDBRANCH   4  10
BRANCH   1  17
ATOM     17  C   UNL     1      -2.295  -0.654  -0.248  0.00  0.00    +0.000 C 
ATOM     18  O   UNL     1      -2.411  -1.581  -1.090  0.00  0.00    +0.000 OA
BRANCH  17  19
ATOM     19  O   UNL     1      -3.296  -0.510   0.694  0.00  0.00    +0.000 OA
BRANCH  19  21
ATOM     20  C   UNL     1      -5.249  -0.809   1.947  0.00  0.00    +0.000 C 
ATOM     21  C   UNL     1      -4.439  -1.337   0.770  0.00  0.00    +0.000 C 
ENDBRANCH  19  21
ENDBRANCH  17  19
ENDBRANCH   1  17
TORSDOF 4
