REMARK  Name = 
REMARK  3 active torsions:
REMARK  status: ('A' for Active; 'I' for Inactive)
REMARK    1  A    between atoms: C_7  and  N_8
REMARK    2  A    between atoms: N_8  and  N_9
REMARK    3  A    between atoms: C_10  and  C_12
REMARK                            x       y       z     vdW  Elec       q    Type
REMARK                         _______ _______ _______ _____ _____    ______ ____
ROOT
ATOM      1  N   UNL     1       0.004   0.852   0.619  0.00  0.00    +0.000 NA
ATOM      2  C   UNL     1       0.937   0.530  -0.371  0.00  0.00    +0.000 C 
ATOM      3  O   UNL     1       0.548   0.387  -1.557  0.00  0.00    +0.000 OA
ENDROOT
BRANCH   2   4
ATOM      4  C   UNL     1       2.361   0.373  -0.019  0.00  0.00    +0.000 A 
ATOM      5  C   UNL     1       3.173   1.510  -0.183  0.00  0.00    +0.000 A 
ATOM      6  C   UNL     1       4.482   1.386   0.198  0.00  0.00    +0.000 A 
ATOM      7  C   UNL     1       5.014   0.233   0.714  0.00  0.00    +0.000 A 
ATOM      8  C   UNL     1       4.220  -0.867   0.868  0.00  0.00    +0.000 A 
ATOM      9  C   UNL     1       2.888  -0.789   0.494  0.00  0.00    +0.000 A 
ATOM     10 BR   UNL     1       1.775  -2.336   0.622  0.00  0.00    +0.000 Br
ENDBRANCH   2   4
BRANCH   1  11
ATOM     11  N   UNL     1      -1.306   0.991   0.227  0.00  0.00    +0.000 NA
BRANCH  11  18
ATOM     12  C   UNL     1      -3.691   1.720   1.009  0.00  0.00    +0.000 C 
ATOM     13  C   UNL     1      -3.636   0.074   0.856  0.00  0.00    +0.000 C 
ATOM     14  C   UNL     1      -4.622   0.084  -0.477  0.00  0.00    +0.000 C 
ATOM     15  C   UNL     1      -4.489  -1.196  -1.145  0.00  0.00    +0.000 C 
ATOM     16  C   UNL     1      -3.249  -1.978  -0.789  0.00  0.00    +0.000 C 
ATOM     17  C   UNL     1      -2.127  -0.996  -0.748  0.00  0.00    +0.000 C 
ATOM     18  C   UNL     1      -2.282   0.022   0.043  0.00  0.00    +0.000 C 
ENDBRANCH  11  18
ENDBRANCH   1  11
TORSDOF 3
