REMARK  Name = 
REMARK  4 active torsions:
REMARK  status: ('A' for Active; 'I' for Inactive)
REMARK    1  A    between atoms: C_2  and  C_3
REMARK    2  A    between atoms: C_3  and  C_4
REMARK    3  A    between atoms: C_4  and  C_5
REMARK    4  A    between atoms: C_5  and  C_6
REMARK                            x       y       z     vdW  Elec       q    Type
REMARK                         _______ _______ _______ _____ _____    ______ ____
ROOT
ATOM      1  C   UNL     1       1.035   0.119  -0.276  0.00  0.00    +0.000 C 
ATOM      2  S   UNL     1       0.745   0.585  -2.027  0.00  0.00    +0.000 S 
ATOM      3  C   UNL     1       0.757   2.395  -2.076  0.00  0.00    +0.000 C 
ATOM      4  C   UNL     1       2.084   2.990  -1.770  0.00  0.00    +0.000 C 
ATOM      5  C   UNL     1       3.034   2.103  -1.050  0.00  0.00    +0.000 C 
ATOM      6  S   UNL     1       2.299   1.233   0.353  0.00  0.00    +0.000 S 
ENDROOT
BRANCH   1   7
ATOM      7  C   UNL     1      -0.268   0.297   0.417  0.00  0.00    +0.000 A 
ATOM      8  C   UNL     1      -0.420   1.168   1.472  0.00  0.00    +0.000 A 
ATOM      9  C   UNL     1      -1.652   1.294   2.079  0.00  0.00    +0.000 A 
ATOM     10  C   UNL     1      -2.739   0.554   1.637  0.00  0.00    +0.000 A 
ATOM     11  C   UNL     1      -2.587  -0.313   0.585  0.00  0.00    +0.000 A 
ATOM     12  C   UNL     1      -3.638  -1.069   0.112  0.00  0.00    +0.000 A 
ATOM     13  C   UNL     1      -3.458  -1.946  -0.962  0.00  0.00    +0.000 A 
ATOM     14  C   UNL     1      -2.231  -2.055  -1.547  0.00  0.00    +0.000 A 
ATOM     15  C   UNL     1      -1.194  -1.290  -1.058  0.00  0.00    +0.000 A 
ATOM     16  C   UNL     1      -1.357  -0.430  -0.010  0.00  0.00    +0.000 A 
ENDBRANCH   1   7
BRANCH   1  17
ATOM     17  C   UNL     1       1.437  -1.316  -0.260  0.00  0.00    +0.000 C 
BRANCH  17  18
ATOM     18  C   UNL     1       1.599  -1.895   1.109  0.00  0.00    +0.000 C 
BRANCH  18  20
ATOM     19  O   UNL     1       3.901  -1.240   1.341  0.00  0.00    +0.000 OA
ATOM     20  C   UNL     1       2.654  -1.185   1.932  0.00  0.00    +0.000 C 
ENDBRANCH  18  20
ENDBRANCH  17  18
ENDBRANCH   1  17
TORSDOF 4
