REMARK  Name = 
REMARK  2 active torsions:
REMARK  status: ('A' for Active; 'I' for Inactive)
REMARK    1  A    between atoms: C_2  and  C_4
REMARK    2  A    between atoms: C_7  and  C_8
REMARK                            x       y       z     vdW  Elec       q    Type
REMARK                         _______ _______ _______ _____ _____    ______ ____
ROOT
ATOM      1  C   UNL     1      -0.711  -1.027   0.750  0.00  0.00    +0.000 A 
ATOM      2  C   UNL     1      -0.886  -2.164   1.492  0.00  0.00    +0.000 A 
ATOM      3  S   UNL     1      -2.571  -2.287   1.648  0.00  0.00    +0.000 S 
ATOM      4  C   UNL     1      -3.027  -0.901   0.772  0.00  0.00    +0.000 A 
ATOM      5  N   UNL     1      -4.235  -0.340   0.460  0.00  0.00    +0.000 NA
ATOM      6  C   UNL     1      -4.302   0.792  -0.274  0.00  0.00    +0.000 A 
ATOM      7  N   UNL     1      -3.153   1.351  -0.689  0.00  0.00    +0.000 N 
ATOM      8  N   UNL     1      -3.219   2.541  -1.462  0.00  0.00    +0.000 NA
ATOM      9  C   UNL     1      -1.966   0.813  -0.391  0.00  0.00    +0.000 A 
ATOM     10  O   UNL     1      -0.960   1.430  -0.838  0.00  0.00    +0.000 OA
ATOM     11  C   UNL     1      -1.842  -0.366   0.373  0.00  0.00    +0.000 A 
ENDROOT
BRANCH   1  15
ATOM     12  C   UNL     1       3.319   0.112  -0.174  0.00  0.00    +0.000 A 
ATOM     13  C   UNL     1       2.446   1.029   0.350  0.00  0.00    +0.000 A 
ATOM     14  C   UNL     1       1.142   0.667   0.650  0.00  0.00    +0.000 A 
ATOM     15  C   UNL     1       0.690  -0.608   0.435  0.00  0.00    +0.000 A 
ATOM     16  C   UNL     1       1.576  -1.519  -0.091  0.00  0.00    +0.000 A 
ATOM     17  C   UNL     1       2.892  -1.172  -0.400  0.00  0.00    +0.000 A 
BRANCH  12  19
ATOM     18  C   UNL     1       5.391  -0.583  -1.320  0.00  0.00    +0.000 C 
ATOM     19  C   UNL     1       4.710   0.470  -0.502  0.00  0.00    +0.000 C 
ATOM     20  C   UNL     1       4.708   1.761  -1.300  0.00  0.00    +0.000 C 
ENDBRANCH  12  19
ENDBRANCH   1  15
TORSDOF 2
