REMARK  Name = 
REMARK  5 active torsions:
REMARK  status: ('A' for Active; 'I' for Inactive)
REMARK    1  A    between atoms: C_2  and  C_3
REMARK    2  A    between atoms: C_3  and  C_6
REMARK    3  A    between atoms: C_9  and  O_10
REMARK    4  A    between atoms: O_10  and  C_11
REMARK    5  A    between atoms: C_11  and  N_12
REMARK                            x       y       z     vdW  Elec       q    Type
REMARK                         _______ _______ _______ _____ _____    ______ ____
ROOT
ATOM      1  C   UNL     1       2.958   0.174  -0.645  0.00  0.00    +0.000 A 
ATOM      2  C   UNL     1       2.297   0.813   0.410  0.00  0.00    +0.000 A 
ATOM      3  C   UNL     1       0.923   0.637   0.556  0.00  0.00    +0.000 A 
ATOM      4  C   UNL     1       0.173  -0.125  -0.275  0.00  0.00    +0.000 A 
ATOM      5  C   UNL     1       0.837  -0.768  -1.339  0.00  0.00    +0.000 A 
ATOM      6  C   UNL     1       2.200  -0.594  -1.483  0.00  0.00    +0.000 A 
ENDROOT
BRANCH   1   7
ATOM      7  C   UNL     1       4.420   0.357  -0.805  0.00  0.00    +0.000 C 
ATOM      8  C   UNL     1       4.773   1.813  -1.139  0.00  0.00    +0.000 C 
ATOM      9  C   UNL     1       4.972  -0.492  -1.922  0.00  0.00    +0.000 C 
BRANCH   7  11
ATOM     10  C   UNL     1       6.615   0.203   0.298  0.00  0.00    +0.000 C 
ATOM     11  C   UNL     1       5.140   0.038   0.481  0.00  0.00    +0.000 C 
ENDBRANCH   7  11
ENDBRANCH   1   7
BRANCH   4  12
ATOM     12  O   UNL     1      -1.197  -0.321  -0.159  0.00  0.00    +0.000 OA
BRANCH  12  13
ATOM     13  C   UNL     1      -1.924   0.290   0.881  0.00  0.00    +0.000 C 
BRANCH  13  14
ATOM     14  N   UNL     1      -3.344  -0.062   0.799  0.00  0.00    +0.000 N 
ATOM     15  N   UNL     1      -4.177   0.675   0.098  0.00  0.00    +0.000 NA
ATOM     16  C   UNL     1      -5.396   0.163   0.175  0.00  0.00    +0.000 A 
ATOM     17  N   UNL     1      -6.555   0.693  -0.455  0.00  0.00    +0.000 NA
ATOM     18  C   UNL     1      -5.321  -0.959   0.971  0.00  0.00    +0.000 A 
ATOM     19  C   UNL     1      -4.010  -1.069   1.345  0.00  0.00    +0.000 A 
ATOM     20  C   UNL     1      -3.383  -2.116   2.208  0.00  0.00    +0.000 C 
ENDBRANCH  13  14
ENDBRANCH  12  13
ENDBRANCH   4  12
TORSDOF 5
