REMARK  Name = 
REMARK  4 active torsions:
REMARK  status: ('A' for Active; 'I' for Inactive)
REMARK    1  A    between atoms: C_3  and  N_4
REMARK    2  A    between atoms: C_3  and  C_13
REMARK    3  A    between atoms: N_4  and  N_5
REMARK    4  A    between atoms: C_6  and  C_8
REMARK                            x       y       z     vdW  Elec       q    Type
REMARK                         _______ _______ _______ _____ _____    ______ ____
ROOT
ATOM      1  C   UNL     1      -1.697  -3.737  -0.342  0.00  0.00    +0.000 C 
ATOM      2  C   UNL     1      -2.366  -2.449  -0.010  0.00  0.00    +0.000 C 
ATOM      3  C   UNL     1      -1.769  -1.328  -0.309  0.00  0.00    +0.000 C 
ENDROOT
BRANCH   3   4
ATOM      4  C   UNL     1      -2.409  -0.041   0.009  0.00  0.00    +0.000 A 
ATOM      5  C   UNL     1      -3.634   0.125   0.618  0.00  0.00    +0.000 A 
ATOM      6  C   UNL     1      -3.848   1.467   0.723  0.00  0.00    +0.000 A 
ATOM      7  C   UNL     1      -2.746   2.091   0.174  0.00  0.00    +0.000 A 
ATOM      8  C   UNL     1      -2.529   3.547   0.065  0.00  0.00    +0.000 C 
ATOM      9  O   UNL     1      -1.937   1.144  -0.227  0.00  0.00    +0.000 OA
ENDBRANCH   3   4
BRANCH   3  10
ATOM     10  N   UNL     1      -0.499  -1.369  -0.942  0.00  0.00    +0.000 NA
BRANCH  10  11
ATOM     11  N   UNL     1       0.487  -0.489  -0.475  0.00  0.00    +0.000 NA
ATOM     12  C   UNL     1       1.826  -0.935  -0.448  0.00  0.00    +0.000 C 
ATOM     13  O   UNL     1       2.153  -2.079  -0.823  0.00  0.00    +0.000 OA
BRANCH  12  14
ATOM     14  C   UNL     1       2.854  -0.023   0.036  0.00  0.00    +0.000 A 
ATOM     15  C   UNL     1       2.732   1.259   0.492  0.00  0.00    +0.000 A 
ATOM     16  C   UNL     1       3.830   1.892   0.881  0.00  0.00    +0.000 A 
ATOM     17  C   UNL     1       5.019   1.221   0.802  0.00  0.00    +0.000 A 
ATOM     18  S   UNL     1       4.534  -0.297   0.173  0.00  0.00    +0.000 S 
ENDBRANCH  12  14
ENDBRANCH  10  11
ENDBRANCH   3  10
TORSDOF 4
