REMARK  Name = 
REMARK  2 active torsions:
REMARK  status: ('A' for Active; 'I' for Inactive)
REMARK    1  A    between atoms: O_2  and  C_3
REMARK    2  A    between atoms: C_6  and  C_7
REMARK                            x       y       z     vdW  Elec       q    Type
REMARK                         _______ _______ _______ _____ _____    ______ ____
ROOT
ATOM      1  C   UNL     1       0.423  -0.219   0.278  0.00  0.00    +0.000 A 
ATOM      2  C   UNL     1      -0.014   1.067   0.603  0.00  0.00    +0.000 A 
ATOM      3  C   UNL     1      -1.255   1.629   0.370  0.00  0.00    +0.000 A 
ATOM      4  O   UNL     1      -1.348   2.990   0.164  0.00  0.00    +0.000 OA
ATOM      5  C   UNL     1      -2.447   0.948   0.320  0.00  0.00    +0.000 A 
ATOM      6  C   UNL     1      -3.703   1.538   0.279  0.00  0.00    +0.000 A 
ATOM      7  C   UNL     1      -3.872   3.019   0.286  0.00  0.00    +0.000 C 
ATOM      8  O   UNL     1      -4.618   0.627   0.237  0.00  0.00    +0.000 OA
ATOM      9  C   UNL     1      -4.046  -0.574   0.248  0.00  0.00    +0.000 A 
ATOM     10  C   UNL     1      -4.724  -1.889   0.211  0.00  0.00    +0.000 C 
ATOM     11  C   UNL     1      -2.685  -0.412   0.299  0.00  0.00    +0.000 A 
ATOM     12  C   UNL     1      -1.731  -1.426   0.326  0.00  0.00    +0.000 A 
ATOM     13  O   UNL     1      -2.201  -2.587   0.563  0.00  0.00    +0.000 OA
ATOM     14  C   UNL     1      -0.368  -1.335   0.131  0.00  0.00    +0.000 A 
ENDROOT
BRANCH   1  18
ATOM     15  C   UNL     1       4.673  -0.584  -0.272  0.00  0.00    +0.000 A 
ATOM     16  C   UNL     1       4.124   0.318   0.618  0.00  0.00    +0.000 A 
ATOM     17  C   UNL     1       2.760   0.427   0.787  0.00  0.00    +0.000 A 
ATOM     18  C   UNL     1       1.862  -0.351   0.085  0.00  0.00    +0.000 A 
ATOM     19  C   UNL     1       2.419  -1.256  -0.808  0.00  0.00    +0.000 A 
ATOM     20  C   UNL     1       3.782  -1.364  -0.976  0.00  0.00    +0.000 A 
BRANCH  15  22
ATOM     21  C   UNL     1       6.915   0.133   0.308  0.00  0.00    +0.000 C 
ATOM     22  O   UNL     1       6.054  -0.700  -0.449  0.00  0.00    +0.000 OA
ENDBRANCH  15  22
ENDBRANCH   1  18
TORSDOF 2
