REMARK  Name = 
REMARK  4 active torsions:
REMARK  status: ('A' for Active; 'I' for Inactive)
REMARK    1  A    between atoms: C_2  and  C_14
REMARK    2  A    between atoms: N_3  and  C_4
REMARK    3  A    between atoms: C_4  and  N_6
REMARK    4  A    between atoms: N_6  and  C_7
REMARK                            x       y       z     vdW  Elec       q    Type
REMARK                         _______ _______ _______ _____ _____    ______ ____
ROOT
ATOM      1  C   UNL     1       0.473  -0.143   0.176  0.00  0.00    +0.000 C 
ATOM      2  S   UNL     1       1.173  -1.193   1.207  0.00  0.00    +0.000 S 
ENDROOT
BRANCH   1   5
ATOM      3  O   UNL     1      -1.173  -1.939   1.502  0.00  0.00    +0.000 OA
ATOM      4  C   UNL     1      -1.730  -1.127   0.702  0.00  0.00    +0.000 C 
ATOM      5  N   UNL     1      -0.935  -0.192   0.002  0.00  0.00    +0.000 NA
BRANCH   4   6
ATOM      6  C   UNL     1      -3.195  -1.226   0.564  0.00  0.00    +0.000 C 
ATOM      7  C   UNL     1      -3.818   0.072   0.964  0.00  0.00    +0.000 C 
ATOM      8  C   UNL     1      -4.736   0.660  -0.056  0.00  0.00    +0.000 C 
ATOM      9  C   UNL     1      -5.767  -0.330  -0.555  0.00  0.00    +0.000 C 
ATOM     10  C   UNL     1      -5.150  -1.687  -0.820  0.00  0.00    +0.000 C 
ATOM     11  C   UNL     1      -3.639  -1.626  -0.802  0.00  0.00    +0.000 C 
ENDBRANCH   4   6
ENDBRANCH   1   5
BRANCH   1  12
ATOM     12  N   UNL     1       1.283   0.791  -0.520  0.00  0.00    +0.000 NA
BRANCH  12  13
ATOM     13  C   UNL     1       2.677   0.821  -0.333  0.00  0.00    +0.000 A 
ATOM     14  C   UNL     1       3.356  -0.032   0.522  0.00  0.00    +0.000 A 
ATOM     15  C   UNL     1       4.729   0.029   0.679  0.00  0.00    +0.000 A 
ATOM     16  C   UNL     1       5.447   0.954  -0.024  0.00  0.00    +0.000 A 
ATOM     17  C   UNL     1       4.802   1.807  -0.873  0.00  0.00    +0.000 A 
ATOM     18  C   UNL     1       3.436   1.747  -1.030  0.00  0.00    +0.000 A 
ATOM     19  O   UNL     1       2.765   2.615  -1.897  0.00  0.00    +0.000 OA
ENDBRANCH  12  13
ENDBRANCH   1  12
TORSDOF 4
