REMARK  Name = 
REMARK  3 active torsions:
REMARK  status: ('A' for Active; 'I' for Inactive)
REMARK    1  A    between atoms: C_6  and  C_7
REMARK    2  A    between atoms: N_9  and  C_10
REMARK    3  A    between atoms: C_15  and  C_16
REMARK                            x       y       z     vdW  Elec       q    Type
REMARK                         _______ _______ _______ _____ _____    ______ ____
ROOT
ATOM      1  C   UNL     1       0.733   0.152   0.153  0.00  0.00    +0.000 C 
ATOM      2  O   UNL     1       1.450   1.205   0.031  0.00  0.00    +0.000 OA
ATOM      3  N   UNL     1      -0.602   0.321  -0.259  0.00  0.00    +0.000 NA
ENDROOT
BRANCH   1   9
ATOM      4  C   UNL     1       3.424  -4.452   2.259  0.00  0.00    +0.000 C 
ATOM      5  C   UNL     1       2.672  -3.286   1.706  0.00  0.00    +0.000 A 
ATOM      6  C   UNL     1       1.343  -3.359   1.369  0.00  0.00    +0.000 A 
ATOM      7  C   UNL     1       0.708  -2.231   0.859  0.00  0.00    +0.000 A 
ATOM      8  C   UNL     1      -0.719  -2.349   0.509  0.00  0.00    +0.000 C 
ATOM      9  C   UNL     1       1.352  -1.038   0.676  0.00  0.00    +0.000 A 
ATOM     10  C   UNL     1       2.681  -1.005   1.026  0.00  0.00    +0.000 A 
ATOM     11  C   UNL     1       3.442   0.255   0.854  0.00  0.00    +0.000 C 
ATOM     12  C   UNL     1       3.347  -2.095   1.532  0.00  0.00    +0.000 A 
ENDBRANCH   1   9
BRANCH   3  13
ATOM     13  C   UNL     1      -1.105   1.575  -0.770  0.00  0.00    +0.000 A 
ATOM     14  C   UNL     1      -0.196   2.606  -0.833  0.00  0.00    +0.000 A 
ATOM     15  C   UNL     1      -0.520   3.857  -1.296  0.00  0.00    +0.000 A 
ATOM     16  C   UNL     1      -1.839   4.024  -1.702  0.00  0.00    +0.000 A 
ATOM     17  C   UNL     1      -2.752   3.010  -1.645  0.00  0.00    +0.000 A 
ATOM     18  C   UNL     1      -2.382   1.766  -1.173  0.00  0.00    +0.000 A 
BRANCH  18  19
ATOM     19  C   UNL     1      -3.353   0.673  -1.108  0.00  0.00    +0.000 C 
ATOM     20  N   UNL     1      -4.706   0.805  -1.513  0.00  0.00    +0.000 NA
ATOM     21  O   UNL     1      -2.980  -0.434  -0.675  0.00  0.00    +0.000 OA
ENDBRANCH  18  19
ENDBRANCH   3  13
TORSDOF 3
