REMARK  Name = 
REMARK  3 active torsions:
REMARK  status: ('A' for Active; 'I' for Inactive)
REMARK    1  A    between atoms: N_8  and  C_9
REMARK    2  A    between atoms: C_9  and  C_10
REMARK    3  A    between atoms: C_10  and  C_11
REMARK                            x       y       z     vdW  Elec       q    Type
REMARK                         _______ _______ _______ _____ _____    ______ ____
ROOT
ATOM      1  C   UNL     1      -3.682   3.365   0.589  0.00  0.00    +0.000 C 
ATOM      2  C   UNL     1      -2.971   2.036   0.692  0.00  0.00    +0.000 A 
ATOM      3  S   UNL     1      -3.070   0.842   1.905  0.00  0.00    +0.000 S 
ATOM      4  C   UNL     1      -1.980  -0.299   1.265  0.00  0.00    +0.000 A 
ATOM      5  N   UNL     1      -1.529  -1.522   1.667  0.00  0.00    +0.000 NA
ATOM      6  C   UNL     1      -0.640  -2.225   0.941  0.00  0.00    +0.000 A 
ATOM      7  O   UNL     1      -0.237  -3.349   1.330  0.00  0.00    +0.000 OA
ATOM      8  N   UNL     1      -0.229  -1.648  -0.198  0.00  0.00    +0.000 N 
ATOM      9  C   UNL     1      -0.627  -0.470  -0.641  0.00  0.00    +0.000 A 
ATOM     10  O   UNL     1      -0.152  -0.059  -1.731  0.00  0.00    +0.000 OA
ATOM     11  C   UNL     1      -1.560   0.290   0.101  0.00  0.00    +0.000 A 
ATOM     12  C   UNL     1      -2.073   1.496  -0.194  0.00  0.00    +0.000 A 
ATOM     13  C   UNL     1      -1.720   2.296  -1.443  0.00  0.00    +0.000 C 
ENDROOT
BRANCH   8  14
ATOM     14  C   UNL     1       0.733  -2.414  -0.982  0.00  0.00    +0.000 C 
BRANCH  14  15
ATOM     15  C   UNL     1       2.150  -2.133  -0.621  0.00  0.00    +0.000 C 
BRANCH  15  16
ATOM     16  C   UNL     1       2.554  -0.724  -0.801  0.00  0.00    +0.000 A 
ATOM     17  C   UNL     1       2.411   0.178   0.244  0.00  0.00    +0.000 A 
ATOM     18  C   UNL     1       2.781   1.496   0.101  0.00  0.00    +0.000 A 
ATOM     19  C   UNL     1       3.308   1.986  -1.073  0.00  0.00    +0.000 A 
ATOM     20  C   UNL     1       3.450   1.090  -2.112  0.00  0.00    +0.000 A 
ATOM     21  C   UNL     1       3.082  -0.232  -1.976  0.00  0.00    +0.000 A 
ENDBRANCH  15  16
ENDBRANCH  14  15
ENDBRANCH   8  14
TORSDOF 3
