REMARK  Name = 
REMARK  3 active torsions:
REMARK  status: ('A' for Active; 'I' for Inactive)
REMARK    1  A    between atoms: C_6  and  N_7
REMARK    2  A    between atoms: C_8  and  C_10
REMARK    3  A    between atoms: C_14  and  N_15
REMARK                            x       y       z     vdW  Elec       q    Type
REMARK                         _______ _______ _______ _____ _____    ______ ____
ROOT
ATOM      1  N   UNL     1      -0.924  -0.187  -0.751  0.00  0.00    +0.000 NA
ATOM      2  C   UNL     1       0.181   0.046   0.112  0.00  0.00    +0.000 C 
ATOM      3  O   UNL     1      -0.058   0.445   1.266  0.00  0.00    +0.000 OA
ENDROOT
BRANCH   1   9
ATOM      4  C   UNL     1      -6.340   0.561   0.926  0.00  0.00    +0.000 C 
ATOM      5  C   UNL     1      -4.933   0.343   0.498  0.00  0.00    +0.000 A 
ATOM      6  C   UNL     1      -4.293  -0.870   0.656  0.00  0.00    +0.000 A 
ATOM      7  C   UNL     1      -2.966  -1.025   0.237  0.00  0.00    +0.000 A 
ATOM      8  C   UNL     1      -2.264  -2.326   0.401  0.00  0.00    +0.000 C 
ATOM      9  C   UNL     1      -2.271   0.018  -0.340  0.00  0.00    +0.000 A 
ATOM     10  C   UNL     1      -2.912   1.234  -0.499  0.00  0.00    +0.000 A 
ATOM     11  C   UNL     1      -2.131   2.334  -1.123  0.00  0.00    +0.000 C 
ATOM     12  C   UNL     1      -4.213   1.366  -0.081  0.00  0.00    +0.000 A 
ENDBRANCH   1   9
BRANCH   2  13
ATOM     13  C   UNL     1       1.548  -0.176  -0.348  0.00  0.00    +0.000 A 
ATOM     14  C   UNL     1       1.794  -0.617  -1.627  0.00  0.00    +0.000 A 
ATOM     15  C   UNL     1       3.052  -0.835  -2.089  0.00  0.00    +0.000 A 
ATOM     16  C   UNL     1       4.127  -0.612  -1.262  0.00  0.00    +0.000 A 
ATOM     17  C   UNL     1       3.931  -0.170   0.030  0.00  0.00    +0.000 A 
ATOM     18  C   UNL     1       2.616   0.041   0.462  0.00  0.00    +0.000 A 
BRANCH  17  19
ATOM     19  N   UNL     1       5.031   0.065   0.896  0.00  0.00    +0.000 N 
ATOM     20  O   UNL     1       6.176  -0.135   0.469  0.00  0.00    +0.000 OA
ATOM     21  O   UNL     1       4.851   0.499   2.165  0.00  0.00    +0.000 OA
ENDBRANCH  17  19
ENDBRANCH   2  13
TORSDOF 3
