REMARK  Name = 
REMARK  3 active torsions:
REMARK  status: ('A' for Active; 'I' for Inactive)
REMARK    1  A    between atoms: C_4  and  N_5
REMARK    2  A    between atoms: N_11  and  C_12
REMARK    3  A    between atoms: C_12  and  C_13
REMARK                            x       y       z     vdW  Elec       q    Type
REMARK                         _______ _______ _______ _____ _____    ______ ____
ROOT
ATOM      1  N   UNL     1       0.493  -3.258   2.196  0.00  0.00    +0.000 NA
ATOM      2  C   UNL     1      -0.242  -2.277   1.437  0.00  0.00    +0.000 A 
ATOM      3  N   UNL     1      -1.496  -1.952   1.730  0.00  0.00    +0.000 NA
ATOM      4  C   UNL     1      -2.197  -1.029   1.022  0.00  0.00    +0.000 A 
ATOM      5  C   UNL     1      -1.501  -0.446  -0.039  0.00  0.00    +0.000 A 
ATOM      6  N   UNL     1      -1.911   0.487  -0.915  0.00  0.00    +0.000 NA
ATOM      7  C   UNL     1      -0.870   0.710  -1.738  0.00  0.00    +0.000 A 
ATOM      8  N   UNL     1       0.181  -0.053  -1.406  0.00  0.00    +0.000 N 
ATOM      9  C   UNL     1      -0.204  -0.779  -0.345  0.00  0.00    +0.000 A 
ATOM     10  N   UNL     1       0.399  -1.706   0.420  0.00  0.00    +0.000 NA
ENDROOT
BRANCH   4  11
ATOM     11  N   UNL     1      -3.525  -0.670   1.314  0.00  0.00    +0.000 N 
ATOM     12  C   UNL     1      -4.490   0.424   1.699  0.00  0.00    +0.000 C 
ATOM     13  C   UNL     1      -4.916  -0.914   1.493  0.00  0.00    +0.000 C 
ENDBRANCH   4  11
BRANCH   8  14
ATOM     14  C   UNL     1       1.443  -0.065  -2.070  0.00  0.00    +0.000 C 
BRANCH  14  15
ATOM     15  C   UNL     1       2.317   0.954  -1.414  0.00  0.00    +0.000 A 
ATOM     16  C   UNL     1       2.338   2.262  -1.864  0.00  0.00    +0.000 A 
ATOM     17  C   UNL     1       3.145   3.204  -1.259  0.00  0.00    +0.000 A 
ATOM     18  C   UNL     1       3.961   2.886  -0.186  0.00  0.00    +0.000 A 
ATOM     19  C   UNL     1       3.946   1.578   0.271  0.00  0.00    +0.000 A 
ATOM     20  C   UNL     1       3.131   0.643  -0.346  0.00  0.00    +0.000 A 
ENDBRANCH  14  15
ENDBRANCH   8  14
TORSDOF 3
