REMARK  Name = 
REMARK  4 active torsions:
REMARK  status: ('A' for Active; 'I' for Inactive)
REMARK    1  A    between atoms: C_2  and  C_4
REMARK    2  A    between atoms: C_9  and  N_10
REMARK    3  A    between atoms: C_11  and  C_13
REMARK    4  A    between atoms: C_18  and  N_19
REMARK                            x       y       z     vdW  Elec       q    Type
REMARK                         _______ _______ _______ _____ _____    ______ ____
ROOT
ATOM      1  N   UNL     1       0.429  -0.204  -0.179  0.00  0.00    +0.000 NA
ATOM      2  C   UNL     1      -0.394  -1.148   0.396  0.00  0.00    +0.000 C 
ATOM      3  O   UNL     1       0.199  -2.151   0.931  0.00  0.00    +0.000 OA
ENDROOT
BRANCH   1   9
ATOM      4  C   UNL     1       2.513   0.789  -0.927  0.00  0.00    +0.000 A 
ATOM      5  C   UNL     1       3.919   0.820  -0.947  0.00  0.00    +0.000 A 
ATOM      6  C   UNL     1       4.624  -0.133  -0.260  0.00  0.00    +0.000 A 
ATOM      7  C   UNL     1       3.967  -1.129   0.457  0.00  0.00    +0.000 A 
ATOM      8  C   UNL     1       2.594  -1.113   0.442  0.00  0.00    +0.000 A 
ATOM      9  C   UNL     1       1.833  -0.165  -0.242  0.00  0.00    +0.000 A 
BRANCH   4  11
ATOM     10  C   UNL     1       2.761   2.767  -2.404  0.00  0.00    +0.000 C 
ATOM     11  C   UNL     1       1.855   1.825  -1.693  0.00  0.00    +0.000 C 
ATOM     12  C   UNL     1       0.608   2.414  -1.174  0.00  0.00    +0.000 C 
ENDBRANCH   4  11
ENDBRANCH   1   9
BRANCH   2  13
ATOM     13  C   UNL     1      -1.843  -1.186   0.485  0.00  0.00    +0.000 A 
ATOM     14  C   UNL     1      -2.531  -2.396   0.322  0.00  0.00    +0.000 A 
ATOM     15  C   UNL     1      -3.909  -2.403   0.330  0.00  0.00    +0.000 A 
ATOM     16  C   UNL     1      -4.637  -1.252   0.496  0.00  0.00    +0.000 A 
ATOM     17  C   UNL     1      -3.990  -0.061   0.658  0.00  0.00    +0.000 A 
ATOM     18  C   UNL     1      -2.570  -0.062   0.647  0.00  0.00    +0.000 A 
BRANCH  18  19
ATOM     19  N   UNL     1      -1.959   1.193   0.842  0.00  0.00    +0.000 N 
ATOM     20  O   UNL     1      -0.897   1.285   1.456  0.00  0.00    +0.000 OA
ATOM     21  O   UNL     1      -2.573   2.310   0.363  0.00  0.00    +0.000 OA
ENDBRANCH  18  19
ENDBRANCH   2  13
TORSDOF 4
