REMARK  Name = 
REMARK  3 active torsions:
REMARK  status: ('A' for Active; 'I' for Inactive)
REMARK    1  A    between atoms: C_2  and  N_4
REMARK    2  A    between atoms: N_4  and  C_5
REMARK    3  A    between atoms: C_6  and  C_7
REMARK                            x       y       z     vdW  Elec       q    Type
REMARK                         _______ _______ _______ _____ _____    ______ ____
ROOT
ATOM      1  C   UNL     1      -0.700   0.299  -0.142  0.00  0.00    +0.000 A 
ATOM      2  C   UNL     1       0.215  -0.721   0.002  0.00  0.00    +0.000 A 
ATOM      3  N   UNL     1      -0.448  -1.887   0.112  0.00  0.00    +0.000 NA
ATOM      4  C   UNL     1      -1.766  -1.622   0.039  0.00  0.00    +0.000 A 
ATOM      5  C   UNL     1      -2.863  -2.444   0.095  0.00  0.00    +0.000 A 
ATOM      6  C   UNL     1      -4.148  -1.956  -0.003  0.00  0.00    +0.000 A 
ATOM      7  C   UNL     1      -4.281  -0.594  -0.161  0.00  0.00    +0.000 A 
ATOM      8  C   UNL     1      -3.166   0.204  -0.213  0.00  0.00    +0.000 A 
ATOM      9  N   UNL     1      -1.906  -0.294  -0.115  0.00  0.00    +0.000 N 
ENDROOT
BRANCH   2  10
ATOM     10  C   UNL     1       1.646  -0.511   0.026  0.00  0.00    +0.000 A 
ATOM     11  C   UNL     1       2.405  -1.162   0.989  0.00  0.00    +0.000 A 
ATOM     12  C   UNL     1       3.775  -1.002   1.063  0.00  0.00    +0.000 A 
ATOM     13  C   UNL     1       4.442  -0.183   0.175  0.00  0.00    +0.000 A 
ATOM     14  O   UNL     1       5.827  -0.002   0.225  0.00  0.00    +0.000 OA
ATOM     15  C   UNL     1       3.669   0.455  -0.775  0.00  0.00    +0.000 A 
ATOM     16  C   UNL     1       2.302   0.304  -0.860  0.00  0.00    +0.000 A 
ENDBRANCH   2  10
BRANCH   1  17
ATOM     17  N   UNL     1      -0.455   1.675  -0.291  0.00  0.00    +0.000 NA
BRANCH  17  19
ATOM     18  C   UNL     1      -0.814   4.038  -0.587  0.00  0.00    +0.000 C 
ATOM     19  C   UNL     1      -1.465   2.680  -0.432  0.00  0.00    +0.000 C 
ATOM     20  C   UNL     1      -2.269   2.725   0.853  0.00  0.00    +0.000 C 
ENDBRANCH  17  19
ENDBRANCH   1  17
TORSDOF 3
