REMARK  Name = 
REMARK  6 active torsions:
REMARK  status: ('A' for Active; 'I' for Inactive)
REMARK    1  A    between atoms: C_2  and  N_3
REMARK    2  A    between atoms: N_3  and  C_4
REMARK    3  A    between atoms: N_3  and  C_6
REMARK    4  A    between atoms: C_6  and  N_8
REMARK    5  A    between atoms: C_9  and  C_11
REMARK    6  A    between atoms: C_16  and  N_17
REMARK                            x       y       z     vdW  Elec       q    Type
REMARK                         _______ _______ _______ _____ _____    ______ ____
ROOT
ATOM      1  N   UNL     1       0.650  -0.873  -0.741  0.00  0.00    +0.000 NA
ATOM      2  C   UNL     1      -0.106  -0.279   0.248  0.00  0.00    +0.000 C 
ATOM      3  O   UNL     1       0.323   0.527   1.101  0.00  0.00    +0.000 OA
ENDROOT
BRANCH   2   4
ATOM      4  C   UNL     1      -1.551  -0.613   0.326  0.00  0.00    +0.000 A 
ATOM      5  C   UNL     1      -1.890  -1.946   0.620  0.00  0.00    +0.000 A 
ATOM      6  C   UNL     1      -3.189  -2.357   0.697  0.00  0.00    +0.000 A 
ATOM      7  C   UNL     1      -4.164  -1.389   0.467  0.00  0.00    +0.000 A 
ATOM      8  C   UNL     1      -3.833  -0.093   0.181  0.00  0.00    +0.000 A 
ATOM      9  C   UNL     1      -2.493   0.344   0.099  0.00  0.00    +0.000 A 
BRANCH   9  10
ATOM     10  N   UNL     1      -2.252   1.710  -0.212  0.00  0.00    +0.000 N 
ATOM     11  O   UNL     1      -3.129   2.326  -0.904  0.00  0.00    +0.000 OA
ATOM     12  O   UNL     1      -1.167   2.391   0.172  0.00  0.00    +0.000 OA
ENDBRANCH   9  10
ENDBRANCH   2   4
BRANCH   1  13
ATOM     13  C   UNL     1       1.992  -0.745  -1.044  0.00  0.00    +0.000 C 
ATOM     14  S   UNL     1       2.521  -1.682  -2.364  0.00  0.00    +0.000 S 
BRANCH  13  15
ATOM     15  N   UNL     1       2.973   0.040  -0.458  0.00  0.00    +0.000 N 
BRANCH  15  17
ATOM     16  C   UNL     1       4.557   1.351  -1.656  0.00  0.00    +0.000 C 
ATOM     17  C   UNL     1       4.348  -0.029  -1.000  0.00  0.00    +0.000 C 
ENDBRANCH  15  17
BRANCH  15  18
ATOM     18  C   UNL     1       2.807   0.955   0.640  0.00  0.00    +0.000 C 
ATOM     19  C   UNL     1       3.602   0.363   1.831  0.00  0.00    +0.000 C 
ENDBRANCH  15  18
ENDBRANCH  13  15
ENDBRANCH   1  13
TORSDOF 6
