REMARK  Name = 
REMARK  3 active torsions:
REMARK  status: ('A' for Active; 'I' for Inactive)
REMARK    1  A    between atoms: C_2  and  C_3
REMARK    2  A    between atoms: C_3  and  C_4
REMARK    3  A    between atoms: C_8  and  C_10
REMARK                            x       y       z     vdW  Elec       q    Type
REMARK                         _______ _______ _______ _____ _____    ______ ____
ROOT
ATOM      1  C   UNL     1       3.282  -1.087  -0.102  0.00  0.00    +0.000 A 
ATOM      2  S   UNL     1       1.804  -0.470  -0.704  0.00  0.00    +0.000 S 
ATOM      3  C   UNL     1       0.863  -0.637   0.710  0.00  0.00    +0.000 A 
ATOM      4  N   UNL     1      -0.517  -0.326   0.990  0.00  0.00    +0.000 NA
ATOM      5  C   UNL     1      -1.307   0.219  -0.041  0.00  0.00    +0.000 C 
ATOM      6  O   UNL     1      -0.774   0.408  -1.159  0.00  0.00    +0.000 OA
ATOM      7  N   UNL     1       1.727  -1.155   1.568  0.00  0.00    +0.000 NA
ATOM      8  C   UNL     1       2.942  -1.391   1.194  0.00  0.00    +0.000 A 
ATOM      9  C   UNL     1       3.980  -1.987   2.130  0.00  0.00    +0.000 C 
ENDROOT
BRANCH   5  10
ATOM     10  C   UNL     1      -2.709   0.568   0.142  0.00  0.00    +0.000 A 
ATOM     11  C   UNL     1      -3.354   0.380   1.355  0.00  0.00    +0.000 A 
ATOM     12  C   UNL     1      -4.680   0.714   1.514  0.00  0.00    +0.000 A 
ATOM     13  C   UNL     1      -5.410   1.248   0.466  0.00  0.00    +0.000 A 
ATOM     14  C   UNL     1      -4.752   1.425  -0.725  0.00  0.00    +0.000 A 
ATOM     15  C   UNL     1      -3.432   1.099  -0.902  0.00  0.00    +0.000 A 
ATOM     16  O   UNL     1      -2.787   1.290  -2.127  0.00  0.00    +0.000 OA
ENDBRANCH   5  10
BRANCH   1  17
ATOM     17  C   UNL     1       4.617  -1.264  -0.772  0.00  0.00    +0.000 C 
BRANCH  17  19
ATOM     18  C   UNL     1       4.932   1.140  -0.719  0.00  0.00    +0.000 C 
ATOM     19  C   UNL     1       5.575  -0.172  -0.314  0.00  0.00    +0.000 C 
ENDBRANCH  17  19
ENDBRANCH   1  17
TORSDOF 3
