REMARK  Name = 
REMARK  3 active torsions:
REMARK  status: ('A' for Active; 'I' for Inactive)
REMARK    1  A    between atoms: C_4  and  C_5
REMARK    2  A    between atoms: N_7  and  C_8
REMARK    3  A    between atoms: C_18  and  N_19
REMARK                            x       y       z     vdW  Elec       q    Type
REMARK                         _______ _______ _______ _____ _____    ______ ____
ROOT
ATOM      1  C   UNL     1      -0.287  -0.164  -0.669  0.00  0.00    +0.000 C 
ATOM      2  O   UNL     1      -0.676  -0.389  -1.841  0.00  0.00    +0.000 OA
ATOM      3  N   UNL     1      -1.282  -0.024   0.334  0.00  0.00    +0.000 NA
ENDROOT
BRANCH   3   4
ATOM      4  C   UNL     1      -2.671  -0.130   0.039  0.00  0.00    +0.000 A 
ATOM      5  C   UNL     1      -3.034  -0.374  -1.280  0.00  0.00    +0.000 A 
ATOM      6  C   UNL     1      -4.371  -0.478  -1.579  0.00  0.00    +0.000 A 
ATOM      7  C   UNL     1      -5.317  -0.343  -0.601  0.00  0.00    +0.000 A 
ATOM      8  C   UNL     1      -4.991  -0.097   0.738  0.00  0.00    +0.000 A 
ATOM      9  C   UNL     1      -6.012   0.048   1.801  0.00  0.00    +0.000 C 
ATOM     10  C   UNL     1      -3.639  -0.000   0.993  0.00  0.00    +0.000 A 
ATOM     11  C   UNL     1      -3.200   0.260   2.381  0.00  0.00    +0.000 C 
ENDBRANCH   3   4
BRANCH   1  15
ATOM     12  C   UNL     1       3.480   0.633   2.522  0.00  0.00    +0.000 C 
ATOM     13  C   UNL     1       2.943   0.322   1.150  0.00  0.00    +0.000 A 
ATOM     14  C   UNL     1       1.591   0.231   0.912  0.00  0.00    +0.000 A 
ATOM     15  C   UNL     1       1.125  -0.054  -0.350  0.00  0.00    +0.000 A 
ATOM     16  C   UNL     1       2.047  -0.237  -1.331  0.00  0.00    +0.000 A 
ATOM     17  C   UNL     1       3.405  -0.155  -1.139  0.00  0.00    +0.000 A 
ATOM     18  C   UNL     1       3.860   0.136   0.153  0.00  0.00    +0.000 A 
BRANCH  18  19
ATOM     19  N   UNL     1       5.260   0.212   0.318  0.00  0.00    +0.000 N 
ATOM     20  O   UNL     1       6.021  -0.423  -0.416  0.00  0.00    +0.000 OA
ATOM     21  O   UNL     1       5.747   1.026   1.334  0.00  0.00    +0.000 OA
ENDBRANCH  18  19
ENDBRANCH   1  15
TORSDOF 3
