REMARK  Name = 
REMARK  3 active torsions:
REMARK  status: ('A' for Active; 'I' for Inactive)
REMARK    1  A    between atoms: C_6  and  N_7
REMARK    2  A    between atoms: N_7  and  C_8
REMARK    3  A    between atoms: C_11  and  C_12
REMARK                            x       y       z     vdW  Elec       q    Type
REMARK                         _______ _______ _______ _____ _____    ______ ____
ROOT
ATOM      1  C   UNL     1       5.259  -1.811   0.632  0.00  0.00    +0.000 C 
ATOM      2  C   UNL     1       3.955  -1.107   0.374  0.00  0.00    +0.000 A 
ATOM      3  C   UNL     1       3.907   0.198  -0.073  0.00  0.00    +0.000 A 
ATOM      4  C   UNL     1       2.679   0.799  -0.296  0.00  0.00    +0.000 A 
ATOM      5  N   UNL     1       1.517   0.152  -0.090  0.00  0.00    +0.000 N 
ATOM      6  C   UNL     1       0.228   0.540  -0.241  0.00  0.00    +0.000 A 
ATOM      7  C   UNL     1      -0.594  -0.514   0.108  0.00  0.00    +0.000 A 
ATOM      8  N   UNL     1       0.242  -1.507   0.459  0.00  0.00    +0.000 NA
ATOM      9  C   UNL     1       1.528  -1.121   0.345  0.00  0.00    +0.000 A 
ATOM     10  C   UNL     1       2.749  -1.747   0.576  0.00  0.00    +0.000 A 
ENDROOT
BRANCH   7  11
ATOM     11  C   UNL     1      -2.065  -0.534   0.094  0.00  0.00    +0.000 A 
ATOM     12  C   UNL     1      -2.741   0.608  -0.305  0.00  0.00    +0.000 A 
ATOM     13  C   UNL     1      -4.112   0.616  -0.328  0.00  0.00    +0.000 A 
ATOM     14  C   UNL     1      -4.799  -0.515   0.050  0.00  0.00    +0.000 A 
ATOM     15  C   UNL     1      -4.128  -1.663   0.452  0.00  0.00    +0.000 A 
ATOM     16  C   UNL     1      -2.757  -1.654   0.468  0.00  0.00    +0.000 A 
ATOM     17  O   UNL     1      -2.084  -2.786   0.864  0.00  0.00    +0.000 OA
ENDBRANCH   7  11
BRANCH   6  18
ATOM     18  N   UNL     1      -0.287   1.786  -0.674  0.00  0.00    +0.000 NA
BRANCH  18  19
ATOM     19  C   UNL     1       0.521   2.905  -1.042  0.00  0.00    +0.000 C 
ATOM     20  C   UNL     1       1.377   3.340   0.127  0.00  0.00    +0.000 C 
ATOM     21  C   UNL     1      -0.396   4.016  -1.500  0.00  0.00    +0.000 C 
ENDBRANCH  18  19
ENDBRANCH   6  18
TORSDOF 3
