REMARK  Name = 
REMARK  4 active torsions:
REMARK  status: ('A' for Active; 'I' for Inactive)
REMARK    1  A    between atoms: C_2  and  O_3
REMARK    2  A    between atoms: O_3  and  C_4
REMARK    3  A    between atoms: C_4  and  C_6
REMARK    4  A    between atoms: C_8  and  C_9
REMARK                            x       y       z     vdW  Elec       q    Type
REMARK                         _______ _______ _______ _____ _____    ______ ____
ROOT
ATOM      1  C   UNL     1       2.254  -0.456   0.025  0.00  0.00    +0.000 A 
ATOM      2  S   UNL     1       0.985  -1.593   0.115  0.00  0.00    +0.000 S 
ATOM      3  C   UNL     1      -0.334  -0.499   0.184  0.00  0.00    +0.000 A 
ATOM      4  N   UNL     1       0.276   0.678   0.133  0.00  0.00    +0.000 NA
ATOM      5  C   UNL     1       1.566   0.731   0.054  0.00  0.00    +0.000 A 
ATOM      6  C   UNL     1       2.339   2.040  -0.008  0.00  0.00    +0.000 C 
ENDROOT
BRANCH   3   7
ATOM      7  C   UNL     1      -1.781  -0.787   0.276  0.00  0.00    +0.000 A 
ATOM      8  C   UNL     1      -2.280  -2.085   0.320  0.00  0.00    +0.000 A 
ATOM      9  N   UNL     1      -3.632  -1.942   0.402  0.00  0.00    +0.000 NA
ATOM     10  C   UNL     1      -3.968  -0.646   0.408  0.00  0.00    +0.000 A 
ATOM     11  C   UNL     1      -5.222  -0.027   0.477  0.00  0.00    +0.000 A 
ATOM     12  C   UNL     1      -5.286   1.334   0.466  0.00  0.00    +0.000 A 
ATOM     13  C   UNL     1      -4.152   2.085   0.389  0.00  0.00    +0.000 A 
ATOM     14  C   UNL     1      -2.897   1.455   0.319  0.00  0.00    +0.000 A 
ATOM     15  C   UNL     1      -2.814   0.092   0.329  0.00  0.00    +0.000 A 
ENDBRANCH   3   7
BRANCH   1  16
ATOM     16  C   UNL     1       3.705  -0.684  -0.061  0.00  0.00    +0.000 C 
ATOM     17  O   UNL     1       4.104  -1.861  -0.072  0.00  0.00    +0.000 OA
BRANCH  16  18
ATOM     18  O   UNL     1       4.574   0.364  -0.126  0.00  0.00    +0.000 OA
BRANCH  18  20
ATOM     19  C   UNL     1       6.564   1.613  -0.262  0.00  0.00    +0.000 C 
ATOM     20  C   UNL     1       5.997   0.189  -0.211  0.00  0.00    +0.000 C 
ENDBRANCH  18  20
ENDBRANCH  16  18
ENDBRANCH   1  16
TORSDOF 4
