REMARK  Name = 
REMARK  2 active torsions:
REMARK  status: ('A' for Active; 'I' for Inactive)
REMARK    1  A    between atoms: C_2  and  C_15
REMARK    2  A    between atoms: N_3  and  N_4
REMARK                            x       y       z     vdW  Elec       q    Type
REMARK                         _______ _______ _______ _____ _____    ______ ____
ROOT
ATOM      1  N   UNL     1      -0.511  -1.449   0.525  0.00  0.00    +0.000 NA
ATOM      2  C   UNL     1      -1.533  -0.747   0.252  0.00  0.00    +0.000 C 
ATOM      3  C   UNL     1      -2.841  -1.127   0.847  0.00  0.00    +0.000 C 
ATOM      4  C   UNL     1      -3.807  -1.286  -0.336  0.00  0.00    +0.000 C 
ATOM      5  C   UNL     1      -3.786  -0.093  -1.236  0.00  0.00    +0.000 C 
ATOM      6  C   UNL     1      -4.248   1.117  -0.472  0.00  0.00    +0.000 C 
ATOM      7  C   UNL     1      -3.310   1.299   0.725  0.00  0.00    +0.000 C 
ATOM      8  C   UNL     1      -3.333   0.086   1.621  0.00  0.00    +0.000 C 
ATOM      9  C   UNL     1      -1.945   1.627   0.202  0.00  0.00    +0.000 C 
ATOM     10  C   UNL     1      -1.485   0.427  -0.628  0.00  0.00    +0.000 C 
ATOM     11  C   UNL     1      -2.418   0.211  -1.800  0.00  0.00    +0.000 C 
ENDROOT
BRANCH   1  14
ATOM     12  O   UNL     1       1.319   0.335   1.639  0.00  0.00    +0.000 OA
ATOM     13  C   UNL     1       1.674  -0.291   0.608  0.00  0.00    +0.000 C 
ATOM     14  N   UNL     1       0.770  -1.194   0.029  0.00  0.00    +0.000 NA
BRANCH  13  15
ATOM     15  C   UNL     1       3.008  -0.030   0.085  0.00  0.00    +0.000 A 
ATOM     16  C   UNL     1       3.853   0.861   0.686  0.00  0.00    +0.000 A 
ATOM     17  C   UNL     1       5.098   1.076   0.161  0.00  0.00    +0.000 A 
ATOM     18  C   UNL     1       5.472   0.384  -0.968  0.00  0.00    +0.000 A 
ATOM     19  N   UNL     1       4.619  -0.498  -1.552  0.00  0.00    +0.000 NA
ATOM     20  C   UNL     1       3.401  -0.708  -1.039  0.00  0.00    +0.000 A 
ENDBRANCH  13  15
ENDBRANCH   1  14
TORSDOF 2
