REMARK  Name = 
REMARK  3 active torsions:
REMARK  status: ('A' for Active; 'I' for Inactive)
REMARK    1  A    between atoms: O_2  and  C_3
REMARK    2  A    between atoms: C_3  and  C_5
REMARK    3  A    between atoms: C_16  and  C_17
REMARK                            x       y       z     vdW  Elec       q    Type
REMARK                         _______ _______ _______ _____ _____    ______ ____
ROOT
ATOM      1  C   UNL     1       0.021   1.379  -0.347  0.00  0.00    +0.000 C 
ATOM      2  C   UNL     1       0.383   1.298  -1.540  0.00  0.00    +0.000 C 
ATOM      3  N   UNL     1      -0.121   2.329  -2.441  0.00  0.00    +0.000 NA
ATOM      4  O   UNL     1       1.203   0.304  -1.975  0.00  0.00    +0.000 OA
ATOM      5  C   UNL     1       1.660  -0.644  -1.113  0.00  0.00    +0.000 C 
ATOM      6  C   UNL     1       1.364  -0.667   0.117  0.00  0.00    +0.000 C 
ATOM      7  C   UNL     1       1.871  -1.710   1.053  0.00  0.00    +0.000 C 
ATOM      8  O   UNL     1       1.149  -2.209   1.924  0.00  0.00    +0.000 OA
ATOM      9  C   UNL     1       3.290  -2.060   0.817  0.00  0.00    +0.000 C 
ATOM     10  C   UNL     1       3.682  -2.017  -0.619  0.00  0.00    +0.000 C 
ATOM     11  C   UNL     1       2.578  -1.765  -1.582  0.00  0.00    +0.000 C 
ATOM     12  C   UNL     1       0.414   0.395   0.839  0.00  0.00    +0.000 C 
ENDROOT
BRANCH  12  13
ATOM     13  C   UNL     1      -0.909  -0.503   0.864  0.00  0.00    +0.000 A 
ATOM     14  C   UNL     1      -1.600  -0.890  -0.165  0.00  0.00    +0.000 A 
ATOM     15  C   UNL     1      -2.719  -1.660  -0.015  0.00  0.00    +0.000 A 
ATOM     16  C   UNL     1      -3.094  -2.014   1.258  0.00  0.00    +0.000 A 
ATOM     17  C   UNL     1      -2.370  -1.612   2.372  0.00  0.00    +0.000 A 
ATOM     18  C   UNL     1      -1.236  -0.825   2.136  0.00  0.00    +0.000 A 
ENDBRANCH  12  13
BRANCH   1  19
ATOM     19  C   UNL     1      -0.878   2.469   0.131  0.00  0.00    +0.000 C 
ATOM     20  O   UNL     1      -1.254   2.576   1.301  0.00  0.00    +0.000 OA
BRANCH  19  22
ATOM     21  C   UNL     1      -2.141   4.447  -0.444  0.00  0.00    +0.000 C 
ATOM     22  O   UNL     1      -1.293   3.380  -0.785  0.00  0.00    +0.000 OA
ENDBRANCH  19  22
ENDBRANCH   1  19
TORSDOF 3
