REMARK  Name = 
REMARK  3 active torsions:
REMARK  status: ('A' for Active; 'I' for Inactive)
REMARK    1  A    between atoms: N_6  and  N_7
REMARK    2  A    between atoms: C_8  and  C_9
REMARK    3  A    between atoms: C_18  and  C_19
REMARK                            x       y       z     vdW  Elec       q    Type
REMARK                         _______ _______ _______ _____ _____    ______ ____
ROOT
ATOM      1  C   UNL     1      -5.026  -1.107   0.803  0.00  0.00    +0.000 C 
ATOM      2  C   UNL     1      -3.568  -0.886   0.528  0.00  0.00    +0.000 A 
ATOM      3  C   UNL     1      -2.664  -1.875   0.850  0.00  0.00    +0.000 A 
ATOM      4  C   UNL     1      -1.329  -1.661   0.594  0.00  0.00    +0.000 A 
ATOM      5  C   UNL     1      -0.407  -2.787   0.974  0.00  0.00    +0.000 C 
ATOM      6  N   UNL     1      -0.878  -0.533   0.045  0.00  0.00    +0.000 N 
ATOM      7  C   UNL     1      -1.743   0.432  -0.271  0.00  0.00    +0.000 A 
ATOM      8  O   UNL     1      -1.361   1.536  -0.800  0.00  0.00    +0.000 OA
ATOM      9  C   UNL     1      -3.098   0.272  -0.036  0.00  0.00    +0.000 A 
ENDROOT
BRANCH   9  10
ATOM     10  C   UNL     1      -4.036   1.335  -0.386  0.00  0.00    +0.000 C 
ATOM     11  N   UNL     1      -5.423   1.180  -0.149  0.00  0.00    +0.000 NA
ATOM     12  O   UNL     1      -3.586   2.405  -0.908  0.00  0.00    +0.000 OA
ENDBRANCH   9  10
BRANCH   6  13
ATOM     13  N   UNL     1       0.480  -0.377  -0.189  0.00  0.00    +0.000 NA
ATOM     14  C   UNL     1       1.333   0.018   0.691  0.00  0.00    +0.000 C 
BRANCH  14  15
ATOM     15  C   UNL     1       2.739   0.146   0.335  0.00  0.00    +0.000 A 
ATOM     16  C   UNL     1       3.696   0.564   1.233  0.00  0.00    +0.000 A 
ATOM     17  C   UNL     1       5.022   0.675   0.865  0.00  0.00    +0.000 A 
ATOM     18  C   UNL     1       5.447   0.375  -0.413  0.00  0.00    +0.000 A 
ATOM     19  F   UNL     1       6.761   0.487  -0.772  0.00  0.00    +0.000 F 
ATOM     20  C   UNL     1       4.486  -0.043  -1.310  0.00  0.00    +0.000 A 
ATOM     21  C   UNL     1       3.155  -0.156  -0.944  0.00  0.00    +0.000 A 
ENDBRANCH  14  15
ENDBRANCH   6  13
TORSDOF 3
