REMARK  Name = 
REMARK  2 active torsions:
REMARK  status: ('A' for Active; 'I' for Inactive)
REMARK    1  A    between atoms: C_10  and  N_11
REMARK    2  A    between atoms: N_11  and  C_12
REMARK                            x       y       z     vdW  Elec       q    Type
REMARK                         _______ _______ _______ _____ _____    ______ ____
ROOT
ATOM      1  C   UNL     1      -4.175   2.842   0.429  0.00  0.00    +0.000 C 
ATOM      2  C   UNL     1      -3.587   1.503   0.279  0.00  0.00    +0.000 A 
ATOM      3  C   UNL     1      -4.388   0.391   0.183  0.00  0.00    +0.000 A 
ATOM      4  C   UNL     1      -3.843  -0.889   0.040  0.00  0.00    +0.000 A 
ATOM      5  C   UNL     1      -2.462  -1.034  -0.006  0.00  0.00    +0.000 A 
ATOM      6  N   UNL     1      -1.892  -2.258  -0.144  0.00  0.00    +0.000 NA
ATOM      7  C   UNL     1      -0.562  -2.418  -0.190  0.00  0.00    +0.000 A 
ATOM      8  C   UNL     1      -0.012  -3.796  -0.343  0.00  0.00    +0.000 C 
ATOM      9  C   UNL     1       0.251  -1.307  -0.094  0.00  0.00    +0.000 A 
ATOM     10  C   UNL     1      -0.274  -0.043   0.047  0.00  0.00    +0.000 A 
ATOM     11  C   UNL     1      -1.656   0.082   0.090  0.00  0.00    +0.000 A 
ATOM     12  C   UNL     1      -2.233   1.330   0.231  0.00  0.00    +0.000 A 
ENDROOT
BRANCH  10  13
ATOM     13  N   UNL     1       0.505   1.126   0.149  0.00  0.00    +0.000 NA
BRANCH  13  14
ATOM     14  C   UNL     1       1.924   1.108   0.116  0.00  0.00    +0.000 A 
ATOM     15  C   UNL     1       2.686   2.242   0.214  0.00  0.00    +0.000 A 
ATOM     16  C   UNL     1       4.064   2.105   0.170  0.00  0.00    +0.000 A 
ATOM     17  C   UNL     1       4.663   0.886   0.032  0.00  0.00    +0.000 A 
ATOM     18  C   UNL     1       3.902  -0.248  -0.067  0.00  0.00    +0.000 A 
ATOM     19  O   UNL     1       4.548  -1.488  -0.209  0.00  0.00    +0.000 OA
ATOM     20  C   UNL     1       2.540  -0.135  -0.025  0.00  0.00    +0.000 A 
ENDBRANCH  13  14
ENDBRANCH  10  13
TORSDOF 2
