REMARK  Name = 
REMARK  3 active torsions:
REMARK  status: ('A' for Active; 'I' for Inactive)
REMARK    1  A    between atoms: C_5  and  C_6
REMARK    2  A    between atoms: N_8  and  C_9
REMARK    3  A    between atoms: C_11  and  C_12
REMARK                            x       y       z     vdW  Elec       q    Type
REMARK                         _______ _______ _______ _____ _____    ______ ____
ROOT
ATOM      1  C   UNL     1       0.708  -0.616   1.013  0.00  0.00    +0.000 C 
ATOM      2  O   UNL     1       1.193  -1.468   1.903  0.00  0.00    +0.000 OA
ATOM      3  N   UNL     1      -0.648  -0.603   0.962  0.00  0.00    +0.000 NA
ENDROOT
BRANCH   1   8
ATOM      4  C   UNL     1       4.631   2.301  -1.909  0.00  0.00    +0.000 C 
ATOM      5  C   UNL     1       3.580   1.548  -1.156  0.00  0.00    +0.000 A 
ATOM      6  C   UNL     1       2.252   1.732  -1.379  0.00  0.00    +0.000 A 
ATOM      7  N   UNL     1       1.362   0.998  -0.640  0.00  0.00    +0.000 NA
ATOM      8  C   UNL     1       1.724   0.101   0.297  0.00  0.00    +0.000 A 
ATOM      9  C   UNL     1       3.076  -0.030   0.465  0.00  0.00    +0.000 A 
ATOM     10  N   UNL     1       3.547  -0.954   1.433  0.00  0.00    +0.000 NA
ATOM     11  N   UNL     1       3.980   0.664  -0.231  0.00  0.00    +0.000 NA
ENDBRANCH   1   8
BRANCH   3  12
ATOM     12  C   UNL     1      -1.419  -1.582   1.938  0.00  0.00    +0.000 C 
ATOM     13  C   UNL     1      -2.049  -2.671   0.692  0.00  0.00    +0.000 C 
ATOM     14  C   UNL     1      -3.065  -1.434   1.395  0.00  0.00    +0.000 C 
BRANCH  14  15
ATOM     15  C   UNL     1      -3.081  -0.382   0.254  0.00  0.00    +0.000 A 
ATOM     16  C   UNL     1      -2.483   0.808   0.331  0.00  0.00    +0.000 A 
ATOM     17  C   UNL     1      -2.526   1.702  -0.703  0.00  0.00    +0.000 A 
ATOM     18  C   UNL     1      -3.201   1.369  -1.849  0.00  0.00    +0.000 A 
ATOM     19  C   UNL     1      -3.821   0.154  -1.952  0.00  0.00    +0.000 A 
ATOM     20  C   UNL     1      -3.759  -0.749  -0.865  0.00  0.00    +0.000 A 
ENDBRANCH  14  15
ENDBRANCH   3  12
TORSDOF 3
