REMARK  Name = 
REMARK  4 active torsions:
REMARK  status: ('A' for Active; 'I' for Inactive)
REMARK    1  A    between atoms: C_2  and  C_3
REMARK    2  A    between atoms: C_4  and  N_5
REMARK    3  A    between atoms: N_5  and  C_6
REMARK    4  A    between atoms: C_11  and  N_12
REMARK                            x       y       z     vdW  Elec       q    Type
REMARK                         _______ _______ _______ _____ _____    ______ ____
ROOT
ATOM      1  C   UNL     1       1.702  -0.243  -0.703  0.00  0.00    +0.000 A 
ATOM      2  C   UNL     1       0.485  -0.144  -0.095  0.00  0.00    +0.000 A 
ATOM      3  S   UNL     1       0.849  -0.259   1.561  0.00  0.00    +0.000 S 
ATOM      4  C   UNL     1       2.532  -0.430   1.463  0.00  0.00    +0.000 A 
ATOM      5  C   UNL     1       2.777  -0.393   0.107  0.00  0.00    +0.000 A 
ATOM      6  C   UNL     1       4.229  -0.533  -0.344  0.00  0.00    +0.000 C 
ATOM      7  C   UNL     1       5.103   0.194   0.575  0.00  0.00    +0.000 C 
ATOM      8  C   UNL     1       4.675   0.482   1.952  0.00  0.00    +0.000 C 
ATOM      9  C   UNL     1       3.712  -0.590   2.414  0.00  0.00    +0.000 C 
ENDROOT
BRANCH   1  11
ATOM     10  N   UNL     1       1.784  -0.124  -3.347  0.00  0.00    +0.000 NA
ATOM     11  C   UNL     1       1.755  -0.179  -2.173  0.00  0.00    +0.000 C 
ENDBRANCH   1  11
BRANCH   2  12
ATOM     12  N   UNL     1      -0.824   0.019  -0.656  0.00  0.00    +0.000 NA
BRANCH  12  13
ATOM     13  C   UNL     1      -1.973   0.101   0.167  0.00  0.00    +0.000 A 
ATOM     14  C   UNL     1      -1.807   0.025   1.541  0.00  0.00    +0.000 A 
ATOM     15  C   UNL     1      -2.897   0.102   2.371  0.00  0.00    +0.000 A 
ATOM     16  C   UNL     1      -4.155   0.254   1.812  0.00  0.00    +0.000 A 
ATOM     17  C   UNL     1      -4.276   0.324   0.468  0.00  0.00    +0.000 A 
ATOM     18  C   UNL     1      -3.194   0.251  -0.419  0.00  0.00    +0.000 A 
BRANCH  18  19
ATOM     19  N   UNL     1      -3.401   0.333  -1.819  0.00  0.00    +0.000 N 
ATOM     20  O   UNL     1      -2.637  -0.286  -2.579  0.00  0.00    +0.000 OA
ATOM     21  O   UNL     1      -4.440   1.095  -2.297  0.00  0.00    +0.000 OA
ENDBRANCH  18  19
ENDBRANCH  12  13
ENDBRANCH   2  12
TORSDOF 4
