REMARK  Name = 
REMARK  4 active torsions:
REMARK  status: ('A' for Active; 'I' for Inactive)
REMARK    1  A    between atoms: C_2  and  C_3
REMARK    2  A    between atoms: C_3  and  C_4
REMARK    3  A    between atoms: C_3  and  C_15
REMARK    4  A    between atoms: N_6  and  C_7
REMARK                            x       y       z     vdW  Elec       q    Type
REMARK                         _______ _______ _______ _____ _____    ______ ____
ROOT
ATOM      1  C   UNL     1       0.411  -0.373   0.415  0.00  0.00    +0.000 C 
ATOM      2  O   UNL     1       0.407   0.227  -0.652  0.00  0.00    +0.000 OA
ATOM      3  N   UNL     1      -0.787  -0.833   0.987  0.00  0.00    +0.000 NA
ENDROOT
BRANCH   3   4
ATOM      4  C   UNL     1      -2.056  -0.666   0.431  0.00  0.00    +0.000 A 
ATOM      5  C   UNL     1      -2.194  -0.009  -0.764  0.00  0.00    +0.000 A 
ATOM      6  C   UNL     1      -3.458   0.166  -1.334  0.00  0.00    +0.000 A 
ATOM      7  C   UNL     1      -3.645   0.873  -2.628  0.00  0.00    +0.000 C 
ATOM      8  C   UNL     1      -4.563  -0.331  -0.678  0.00  0.00    +0.000 A 
ATOM      9  C   UNL     1      -4.423  -0.994   0.529  0.00  0.00    +0.000 A 
ATOM     10  C   UNL     1      -3.155  -1.157   1.079  0.00  0.00    +0.000 A 
ATOM     11  O   UNL     1      -3.068  -1.839   2.308  0.00  0.00    +0.000 OA
ENDBRANCH   3   4
BRANCH   1  12
ATOM     12  C   UNL     1       1.772  -0.643   1.173  0.00  0.00    +0.000 C 
BRANCH  12  13
ATOM     13  C   UNL     1       2.755   0.033   0.173  0.00  0.00    +0.000 A 
ATOM     14  C   UNL     1       3.717   0.903   0.553  0.00  0.00    +0.000 A 
ATOM     15  C   UNL     1       4.589   1.499  -0.350  0.00  0.00    +0.000 A 
ATOM     16  C   UNL     1       4.442   1.171  -1.664  0.00  0.00    +0.000 A 
ATOM     17  C   UNL     1       3.472   0.292  -2.059  0.00  0.00    +0.000 A 
ATOM     18  C   UNL     1       2.595  -0.304  -1.128  0.00  0.00    +0.000 A 
ENDBRANCH  12  13
BRANCH  12  20
ATOM     19  C   UNL     1       1.560   1.866   1.392  0.00  0.00    +0.000 C 
ATOM     20  C   UNL     1       1.629   0.634   2.217  0.00  0.00    +0.000 C 
ENDBRANCH  12  20
ENDBRANCH   1  12
TORSDOF 4
