REMARK  Name = 
REMARK  3 active torsions:
REMARK  status: ('A' for Active; 'I' for Inactive)
REMARK    1  A    between atoms: C_2  and  N_4
REMARK    2  A    between atoms: C_11  and  C_12
REMARK    3  A    between atoms: C_16  and  N_17
REMARK                            x       y       z     vdW  Elec       q    Type
REMARK                         _______ _______ _______ _____ _____    ______ ____
ROOT
ATOM      1  N   UNL     1      -3.037   0.399   0.544  0.00  0.00    +0.000 N 
ATOM      2  C   UNL     1      -4.157   0.470  -0.202  0.00  0.00    +0.000 A 
ATOM      3  O   UNL     1      -5.345   0.713   0.193  0.00  0.00    +0.000 OA
ATOM      4  N   UNL     1      -3.812   0.233  -1.484  0.00  0.00    +0.000 NA
ATOM      5  C   UNL     1      -2.499   0.016  -1.557  0.00  0.00    +0.000 A 
ATOM      6  C   UNL     1      -1.631  -0.268  -2.592  0.00  0.00    +0.000 A 
ATOM      7  C   UNL     1      -0.294  -0.440  -2.328  0.00  0.00    +0.000 A 
ATOM      8  C   UNL     1       0.230  -0.341  -1.053  0.00  0.00    +0.000 A 
ATOM      9  C   UNL     1      -0.649  -0.058  -0.032  0.00  0.00    +0.000 A 
ATOM     10  C   UNL     1      -2.002   0.123  -0.253  0.00  0.00    +0.000 A 
ENDROOT
BRANCH   8  11
ATOM     11  C   UNL     1       1.677  -0.534  -0.814  0.00  0.00    +0.000 A 
ATOM     12  C   UNL     1       2.347  -1.401  -1.611  0.00  0.00    +0.000 A 
ATOM     13  C   UNL     1       3.720  -1.622  -1.435  0.00  0.00    +0.000 A 
ATOM     14  C   UNL     1       4.369  -0.939  -0.434  0.00  0.00    +0.000 A 
ATOM     15  C   UNL     1       3.716  -0.056   0.388  0.00  0.00    +0.000 A 
ATOM     16  C   UNL     1       2.352   0.138   0.182  0.00  0.00    +0.000 A 
BRANCH  15  17
ATOM     17  N   UNL     1       4.351   0.664   1.425  0.00  0.00    +0.000 N 
ATOM     18  O   UNL     1       5.569   0.515   1.628  0.00  0.00    +0.000 OA
ATOM     19  O   UNL     1       3.656   1.533   2.221  0.00  0.00    +0.000 OA
ENDBRANCH  15  17
ENDBRANCH   8  11
BRANCH   1  21
ATOM     20  C   UNL     1      -1.636   0.682   2.541  0.00  0.00    +0.000 C 
ATOM     21  C   UNL     1      -3.034   0.599   1.980  0.00  0.00    +0.000 C 
ATOM     22  C   UNL     1      -3.890  -0.426   2.693  0.00  0.00    +0.000 C 
ENDBRANCH   1  21
TORSDOF 3
