REMARK  Name = 
REMARK  4 active torsions:
REMARK  status: ('A' for Active; 'I' for Inactive)
REMARK    1  A    between atoms: C_2  and  C_3
REMARK    2  A    between atoms: C_8  and  N_9
REMARK    3  A    between atoms: C_10  and  C_12
REMARK    4  A    between atoms: C_15  and  N_16
REMARK                            x       y       z     vdW  Elec       q    Type
REMARK                         _______ _______ _______ _____ _____    ______ ____
ROOT
ATOM      1  N   UNL     1       1.419   0.185  -0.305  0.00  0.00    +0.000 NA
ATOM      2  C   UNL     1       0.511  -0.775   0.218  0.00  0.00    +0.000 C 
ATOM      3  O   UNL     1       0.996  -1.758   0.834  0.00  0.00    +0.000 OA
ENDROOT
BRANCH   2   4
ATOM      4  C   UNL     1      -0.929  -0.641   0.055  0.00  0.00    +0.000 A 
ATOM      5  C   UNL     1      -1.792  -1.579   0.573  0.00  0.00    +0.000 A 
ATOM      6  C   UNL     1      -3.171  -1.462   0.424  0.00  0.00    +0.000 A 
ATOM      7  C   UNL     1      -3.712  -0.396  -0.250  0.00  0.00    +0.000 A 
ATOM      8  C   UNL     1      -2.840   0.537  -0.764  0.00  0.00    +0.000 A 
ATOM      9  C   UNL     1      -3.426   1.689  -1.493  0.00  0.00    +0.000 C 
ATOM     10  C   UNL     1      -1.476   0.429  -0.622  0.00  0.00    +0.000 A 
BRANCH   7  11
ATOM     11  N   UNL     1      -5.109  -0.226  -0.431  0.00  0.00    +0.000 N 
ATOM     12  O   UNL     1      -5.891  -0.719   0.412  0.00  0.00    +0.000 OA
ATOM     13  O   UNL     1      -5.560   0.473  -1.524  0.00  0.00    +0.000 OA
ENDBRANCH   7  11
ENDBRANCH   2   4
BRANCH   1  19
ATOM     14  C   UNL     1       3.718   0.945  -0.627  0.00  0.00    +0.000 A 
ATOM     15  C   UNL     1       5.062   0.735  -0.424  0.00  0.00    +0.000 A 
ATOM     16  C   UNL     1       5.540  -0.361   0.258  0.00  0.00    +0.000 A 
ATOM     17  C   UNL     1       4.647  -1.284   0.758  0.00  0.00    +0.000 A 
ATOM     18  C   UNL     1       3.305  -1.078   0.557  0.00  0.00    +0.000 A 
ATOM     19  C   UNL     1       2.842   0.028  -0.130  0.00  0.00    +0.000 A 
BRANCH  14  21
ATOM     20  C   UNL     1       2.655   3.128  -0.385  0.00  0.00    +0.000 C 
ATOM     21  C   UNL     1       3.214   2.131  -1.364  0.00  0.00    +0.000 C 
ENDBRANCH  14  21
ENDBRANCH   1  19
TORSDOF 4
