REMARK  Name = 
REMARK  3 active torsions:
REMARK  status: ('A' for Active; 'I' for Inactive)
REMARK    1  A    between atoms: C_7  and  N_8
REMARK    2  A    between atoms: N_8  and  C_9
REMARK    3  A    between atoms: C_13  and  C_14
REMARK                            x       y       z     vdW  Elec       q    Type
REMARK                         _______ _______ _______ _____ _____    ______ ____
ROOT
ATOM      1  C   UNL     1       3.376  -2.898  -0.344  0.00  0.00    +0.000 C 
ATOM      2  C   UNL     1       3.119  -1.477  -0.089  0.00  0.00    +0.000 A 
ATOM      3  C   UNL     1       4.155  -0.640   0.055  0.00  0.00    +0.000 A 
ATOM      4  C   UNL     1       3.935   0.722   0.295  0.00  0.00    +0.000 A 
ATOM      5  C   UNL     1       2.639   1.146   0.367  0.00  0.00    +0.000 A 
ATOM      6  N   UNL     1       1.590   0.234   0.206  0.00  0.00    +0.000 N 
ATOM      7  C   UNL     1       0.255   0.420   0.273  0.00  0.00    +0.000 A 
ATOM      8  C   UNL     1      -0.386  -0.763   0.092  0.00  0.00    +0.000 A 
ATOM      9  N   UNL     1       0.591  -1.683  -0.098  0.00  0.00    +0.000 NA
ATOM     10  C   UNL     1       1.815  -1.034  -0.014  0.00  0.00    +0.000 A 
ENDROOT
BRANCH   8  11
ATOM     11  C   UNL     1      -1.824  -1.015   0.021  0.00  0.00    +0.000 A 
ATOM     12  C   UNL     1      -2.359  -1.676   1.142  0.00  0.00    +0.000 A 
ATOM     13  C   UNL     1      -3.679  -2.144   1.270  0.00  0.00    +0.000 A 
ATOM     14  C   UNL     1      -4.473  -1.888   0.124  0.00  0.00    +0.000 A 
ATOM     15  C   UNL     1      -3.978  -1.249  -0.958  0.00  0.00    +0.000 A 
ATOM     16  C   UNL     1      -2.665  -0.822  -1.006  0.00  0.00    +0.000 A 
ATOM     17  O   UNL     1      -2.234  -0.183  -2.137  0.00  0.00    +0.000 OA
ENDBRANCH   8  11
BRANCH   7  18
ATOM     18  N   UNL     1      -0.446   1.635   0.323  0.00  0.00    +0.000 NA
BRANCH  18  19
ATOM     19  C   UNL     1       0.015   2.968   0.244  0.00  0.00    +0.000 C 
ATOM     20  C   UNL     1       0.831   3.478   1.383  0.00  0.00    +0.000 C 
ATOM     21  C   UNL     1      -1.169   3.860  -0.104  0.00  0.00    +0.000 C 
ATOM     22  C   UNL     1       0.892   3.010  -1.045  0.00  0.00    +0.000 C 
ENDBRANCH  18  19
ENDBRANCH   7  18
TORSDOF 3
