REMARK  Name = 
REMARK  3 active torsions:
REMARK  status: ('A' for Active; 'I' for Inactive)
REMARK    1  A    between atoms: C_11  and  C_13
REMARK    2  A    between atoms: C_13  and  C_14
REMARK    3  A    between atoms: C_14  and  C_15
REMARK                            x       y       z     vdW  Elec       q    Type
REMARK                         _______ _______ _______ _____ _____    ______ ____
ROOT
ATOM      1  O   UNL     1      -3.485  -1.125  -2.560  0.00  0.00    +0.000 OA
ATOM      2  C   UNL     1      -3.208  -0.580  -1.493  0.00  0.00    +0.000 C 
ATOM      3  C   UNL     1      -3.778   0.670  -1.138  0.00  0.00    +0.000 C 
ATOM      4  C   UNL     1      -2.856   1.510  -0.361  0.00  0.00    +0.000 C 
ATOM      5  C   UNL     1      -1.645   1.020   0.145  0.00  0.00    +0.000 C 
ATOM      6  C   UNL     1      -0.976  -0.198  -0.632  0.00  0.00    +0.000 C 
ATOM      7  C   UNL     1      -2.190  -1.363  -0.570  0.00  0.00    +0.000 C 
ATOM      8  C   UNL     1      -2.873  -1.010   0.844  0.00  0.00    +0.000 C 
ATOM      9  C   UNL     1      -2.004  -1.706   1.864  0.00  0.00    +0.000 C 
ATOM     10  C   UNL     1      -0.646  -1.922   1.240  0.00  0.00    +0.000 C 
ATOM     11  C   UNL     1      -0.081  -0.732   0.580  0.00  0.00    +0.000 C 
ATOM     12  O   UNL     1       1.062  -1.195  -0.117  0.00  0.00    +0.000 OA
ENDROOT
BRANCH  11  13
ATOM     13  C   UNL     1       0.252   0.287   1.548  0.00  0.00    +0.000 C 
BRANCH  13  14
ATOM     14  C   UNL     1       0.992   1.495   1.198  0.00  0.00    +0.000 C 
BRANCH  14  15
ATOM     15  C   UNL     1       2.321   1.142   0.658  0.00  0.00    +0.000 A 
ATOM     16  C   UNL     1       2.528   0.992  -0.693  0.00  0.00    +0.000 A 
ATOM     17  C   UNL     1       3.748   0.665  -1.223  0.00  0.00    +0.000 A 
ATOM     18  C   UNL     1       4.824   0.474  -0.388  0.00  0.00    +0.000 A 
ATOM     19  C   UNL     1       4.613   0.626   0.963  0.00  0.00    +0.000 A 
ATOM     20  C   UNL     1       3.403   0.951   1.494  0.00  0.00    +0.000 A 
ENDBRANCH  14  15
ENDBRANCH  13  14
ENDBRANCH  11  13
TORSDOF 3
