REMARK  Name = 
REMARK  3 active torsions:
REMARK  status: ('A' for Active; 'I' for Inactive)
REMARK    1  A    between atoms: C_2  and  C_13
REMARK    2  A    between atoms: N_3  and  C_4
REMARK    3  A    between atoms: C_8  and  N_9
REMARK                            x       y       z     vdW  Elec       q    Type
REMARK                         _______ _______ _______ _____ _____    ______ ____
ROOT
ATOM      1  O   UNL     1      -0.148   1.456   0.483  0.00  0.00    +0.000 OA
ATOM      2  C   UNL     1       0.445   0.397   0.177  0.00  0.00    +0.000 C 
ATOM      3  N   UNL     1      -0.318  -0.746  -0.151  0.00  0.00    +0.000 NA
ENDROOT
BRANCH   2   4
ATOM      4  C   UNL     1       1.921   0.274   0.140  0.00  0.00    +0.000 C 
ATOM      5  C   UNL     1       2.608   1.566   0.510  0.00  0.00    +0.000 C 
ATOM      6  C   UNL     1       4.096   1.323   0.461  0.00  0.00    +0.000 C 
ATOM      7  C   UNL     1       4.478   0.194   1.408  0.00  0.00    +0.000 C 
ATOM      8  C   UNL     1       3.756  -1.083   1.033  0.00  0.00    +0.000 C 
ATOM      9  C   UNL     1       4.131  -1.527  -0.382  0.00  0.00    +0.000 C 
ATOM     10  C   UNL     1       3.772  -0.397  -1.327  0.00  0.00    +0.000 C 
ATOM     11  C   UNL     1       4.455   0.892  -0.935  0.00  0.00    +0.000 C 
ATOM     12  C   UNL     1       2.294  -0.176  -1.265  0.00  0.00    +0.000 C 
ATOM     13  C   UNL     1       2.283  -0.839   1.127  0.00  0.00    +0.000 C 
ENDBRANCH   2   4
BRANCH   3  14
ATOM     14  C   UNL     1      -1.720  -0.802  -0.165  0.00  0.00    +0.000 A 
ATOM     15  C   UNL     1      -2.298  -2.017  -0.513  0.00  0.00    +0.000 A 
ATOM     16  C   UNL     1      -3.649  -2.213  -0.568  0.00  0.00    +0.000 A 
ATOM     17  C   UNL     1      -4.460  -1.135  -0.256  0.00  0.00    +0.000 A 
ATOM     18  C   UNL     1      -3.927   0.105   0.099  0.00  0.00    +0.000 A 
ATOM     19  C   UNL     1      -2.564   0.232   0.134  0.00  0.00    +0.000 A 
BRANCH  18  20
ATOM     20  N   UNL     1      -4.771   1.196   0.414  0.00  0.00    +0.000 N 
ATOM     21  O   UNL     1      -4.256   2.281   0.726  0.00  0.00    +0.000 OA
ATOM     22  O   UNL     1      -6.128   1.020   0.366  0.00  0.00    +0.000 OA
ENDBRANCH  18  20
ENDBRANCH   3  14
TORSDOF 3
