REMARK  Name = 
REMARK  4 active torsions:
REMARK  status: ('A' for Active; 'I' for Inactive)
REMARK    1  A    between atoms: O_2  and  C_3
REMARK    2  A    between atoms: C_10  and  S_11
REMARK    3  A    between atoms: S_11  and  C_12
REMARK    4  A    between atoms: C_12  and  C_13
REMARK                            x       y       z     vdW  Elec       q    Type
REMARK                         _______ _______ _______ _____ _____    ______ ____
ROOT
ATOM      1  C   UNL     1      -3.993   0.816  -0.924  0.00  0.00    +0.000 A 
ATOM      2  C   UNL     1      -4.096  -0.032  -2.008  0.00  0.00    +0.000 A 
ATOM      3  C   UNL     1      -3.035  -0.874  -2.277  0.00  0.00    +0.000 A 
ATOM      4  C   UNL     1      -1.906  -0.868  -1.485  0.00  0.00    +0.000 A 
ATOM      5  N   UNL     1      -0.776  -1.593  -1.564  0.00  0.00    +0.000 NA
ATOM      6  C   UNL     1       0.065  -1.247  -0.566  0.00  0.00    +0.000 A 
ATOM      7  N   UNL     1       1.308  -1.648  -0.180  0.00  0.00    +0.000 NA
ATOM      8  C   UNL     1       1.935  -1.117   0.890  0.00  0.00    +0.000 A 
ATOM      9  N   UNL     1       1.262  -0.159   1.565  0.00  0.00    +0.000 NA
ATOM     10  N   UNL     1       0.046   0.255   1.213  0.00  0.00    +0.000 NA
ATOM     11  C   UNL     1      -0.592  -0.266   0.148  0.00  0.00    +0.000 A 
ATOM     12  C   UNL     1      -1.829  -0.006  -0.404  0.00  0.00    +0.000 A 
ATOM     13  C   UNL     1      -2.876   0.844  -0.116  0.00  0.00    +0.000 A 
ENDROOT
BRANCH   1  15
ATOM     14  C   UNL     1      -5.164   2.572   0.360  0.00  0.00    +0.000 C 
ATOM     15  O   UNL     1      -5.095   1.645  -0.700  0.00  0.00    +0.000 OA
ENDBRANCH   1  15
BRANCH   8  16
ATOM     16  S   UNL     1       3.557  -1.643   1.395  0.00  0.00    +0.000 S 
BRANCH  16  17
ATOM     17  C   UNL     1       4.888  -0.721   0.637  0.00  0.00    +0.000 C 
BRANCH  17  18
ATOM     18  C   UNL     1       4.947   0.727   1.054  0.00  0.00    +0.000 C 
ATOM     19  C   UNL     1       5.142   0.783   2.558  0.00  0.00    +0.000 C 
ATOM     20  C   UNL     1       6.213   1.296   0.405  0.00  0.00    +0.000 C 
ENDBRANCH  17  18
ENDBRANCH  16  17
ENDBRANCH   8  16
TORSDOF 4
