REMARK  Name = 
REMARK  2 active torsions:
REMARK  status: ('A' for Active; 'I' for Inactive)
REMARK    1  A    between atoms: C_2  and  C_3
REMARK    2  A    between atoms: C_6  and  C_7
REMARK                            x       y       z     vdW  Elec       q    Type
REMARK                         _______ _______ _______ _____ _____    ______ ____
ROOT
ATOM      1  C   UNL     1       0.233  -1.809  -0.667  0.00  0.00    +0.000 C 
ATOM      2  C   UNL     1      -0.958  -1.675  -0.163  0.00  0.00    +0.000 C 
ATOM      3  C   UNL     1      -1.978  -2.746  -0.019  0.00  0.00    +0.000 C 
ATOM      4  O   UNL     1      -1.792  -3.922  -0.399  0.00  0.00    +0.000 OA
ATOM      5  N   UNL     1      -3.087  -2.123   0.599  0.00  0.00    +0.000 NA
ATOM      6  C   UNL     1      -2.799  -0.753   0.834  0.00  0.00    +0.000 A 
ATOM      7  C   UNL     1      -3.589   0.209   1.413  0.00  0.00    +0.000 A 
ATOM      8  C   UNL     1      -3.124   1.494   1.559  0.00  0.00    +0.000 A 
ATOM      9  C   UNL     1      -1.841   1.786   1.107  0.00  0.00    +0.000 A 
ATOM     10 CL   UNL     1      -1.319   3.452   1.330  0.00  0.00    +0.000 Cl
ATOM     11  C   UNL     1      -1.041   0.839   0.527  0.00  0.00    +0.000 A 
ATOM     12  C   UNL     1      -1.520  -0.455   0.384  0.00  0.00    +0.000 A 
ENDROOT
BRANCH   1  16
ATOM     13  C   UNL     1       3.321   1.087  -0.945  0.00  0.00    +0.000 A 
ATOM     14  C   UNL     1       2.055   1.409  -1.308  0.00  0.00    +0.000 A 
ATOM     15  C   UNL     1       1.022   0.515  -1.238  0.00  0.00    +0.000 A 
ATOM     16  C   UNL     1       1.192  -0.768  -0.797  0.00  0.00    +0.000 A 
ATOM     17  C   UNL     1       2.505  -1.096  -0.423  0.00  0.00    +0.000 A 
ATOM     18  C   UNL     1       3.549  -0.210  -0.487  0.00  0.00    +0.000 A 
BRANCH  13  20
ATOM     19  C   UNL     1       4.689   2.771   0.281  0.00  0.00    +0.000 C 
ATOM     20  C   UNL     1       4.483   1.993  -0.992  0.00  0.00    +0.000 C 
ENDBRANCH  13  20
ENDBRANCH   1  16
TORSDOF 2
