REMARK  Name = 
REMARK  5 active torsions:
REMARK  status: ('A' for Active; 'I' for Inactive)
REMARK    1  A    between atoms: O_2  and  C_3
REMARK    2  A    between atoms: C_3  and  C_5
REMARK    3  A    between atoms: C_6  and  C_7
REMARK    4  A    between atoms: C_10  and  O_11
REMARK    5  A    between atoms: C_13  and  O_14
REMARK                            x       y       z     vdW  Elec       q    Type
REMARK                         _______ _______ _______ _____ _____    ______ ____
ROOT
ATOM      1  C   UNL     1       2.141  -0.210   0.017  0.00  0.00    +0.000 A 
ATOM      2  C   UNL     1       1.168  -1.063   0.366  0.00  0.00    +0.000 A 
ATOM      3  C   UNL     1       1.552  -2.235   0.973  0.00  0.00    +0.000 A 
ATOM      4  S   UNL     1       3.238  -2.116   1.039  0.00  0.00    +0.000 S 
ATOM      5  C   UNL     1       3.435  -0.595   0.303  0.00  0.00    +0.000 A 
ATOM      6  N   UNL     1       4.662   0.136   0.034  0.00  0.00    +0.000 NA
ENDROOT
BRANCH   2   7
ATOM      7  C   UNL     1      -0.298  -0.839   0.183  0.00  0.00    +0.000 A 
ATOM      8  C   UNL     1      -1.061  -1.804  -0.466  0.00  0.00    +0.000 A 
ATOM      9  C   UNL     1      -2.423  -1.630  -0.618  0.00  0.00    +0.000 A 
ATOM     10  C   UNL     1      -3.045  -0.505  -0.132  0.00  0.00    +0.000 A 
ATOM     11  C   UNL     1      -2.293   0.443   0.505  0.00  0.00    +0.000 A 
ATOM     12  C   UNL     1      -0.936   0.255   0.649  0.00  0.00    +0.000 A 
BRANCH  10  13
ATOM     13  O   UNL     1      -4.432  -0.344  -0.296  0.00  0.00    +0.000 OA
ATOM     14  C   UNL     1      -5.179  -1.344  -0.960  0.00  0.00    +0.000 C 
ENDBRANCH  10  13
BRANCH  11  15
ATOM     15  O   UNL     1      -2.851   1.594   1.016  0.00  0.00    +0.000 OA
ATOM     16  C   UNL     1      -2.088   2.564   1.668  0.00  0.00    +0.000 C 
ENDBRANCH  11  15
ENDBRANCH   2   7
BRANCH   1  17
ATOM     17  C   UNL     1       1.917   1.094  -0.663  0.00  0.00    +0.000 C 
ATOM     18  O   UNL     1       0.769   1.484  -0.949  0.00  0.00    +0.000 OA
BRANCH  17  20
ATOM     19  C   UNL     1       2.771   3.172  -1.654  0.00  0.00    +0.000 C 
ATOM     20  O   UNL     1       2.952   1.942  -1.015  0.00  0.00    +0.000 OA
ENDBRANCH  17  20
ENDBRANCH   1  17
TORSDOF 5
