REMARK  Name = 
REMARK  3 active torsions:
REMARK  status: ('A' for Active; 'I' for Inactive)
REMARK    1  A    between atoms: C_7  and  N_8
REMARK    2  A    between atoms: C_9  and  C_11
REMARK    3  A    between atoms: C_15  and  N_16
REMARK                            x       y       z     vdW  Elec       q    Type
REMARK                         _______ _______ _______ _____ _____    ______ ____
ROOT
ATOM      1  N   UNL     1      -0.921  -0.380  -0.107  0.00  0.00    +0.000 NA
ATOM      2  C   UNL     1       0.002  -0.088   0.897  0.00  0.00    +0.000 C 
ATOM      3  O   UNL     1      -0.415   0.295   2.039  0.00  0.00    +0.000 OA
ENDROOT
BRANCH   1  10
ATOM      4  C   UNL     1      -4.745   0.516   2.806  0.00  0.00    +0.000 C 
ATOM      5  C   UNL     1      -4.181   0.126   1.468  0.00  0.00    +0.000 A 
ATOM      6  C   UNL     1      -5.092  -0.164   0.496  0.00  0.00    +0.000 A 
ATOM      7  C   UNL     1      -4.599  -0.524  -0.735  0.00  0.00    +0.000 A 
ATOM      8  C   UNL     1      -3.220  -0.601  -1.008  0.00  0.00    +0.000 A 
ATOM      9  C   UNL     1      -2.656  -1.003  -2.298  0.00  0.00    +0.000 C 
ATOM     10  C   UNL     1      -2.332  -0.296   0.040  0.00  0.00    +0.000 A 
ATOM     11  C   UNL     1      -2.835   0.061   1.256  0.00  0.00    +0.000 A 
ENDBRANCH   1  10
BRANCH   2  12
ATOM     12  C   UNL     1       1.438  -0.229   0.707  0.00  0.00    +0.000 A 
ATOM     13  C   UNL     1       2.221  -0.998   1.553  0.00  0.00    +0.000 A 
ATOM     14  C   UNL     1       3.596  -1.160   1.284  0.00  0.00    +0.000 A 
ATOM     15  C   UNL     1       4.168  -0.565   0.203  0.00  0.00    +0.000 A 
ATOM     16  C   UNL     1       3.400   0.219  -0.660  0.00  0.00    +0.000 A 
ATOM     17  C   UNL     1       2.078   0.363  -0.393  0.00  0.00    +0.000 A 
ATOM     18  C   UNL     1       1.280   1.209  -1.350  0.00  0.00    +0.000 C 
BRANCH  16  19
ATOM     19  N   UNL     1       4.037   0.870  -1.768  0.00  0.00    +0.000 N 
ATOM     20  O   UNL     1       3.434   1.109  -2.811  0.00  0.00    +0.000 OA
ATOM     21  O   UNL     1       5.342   1.240  -1.618  0.00  0.00    +0.000 OA
ENDBRANCH  16  19
ENDBRANCH   2  12
TORSDOF 3
