REMARK  Name = 
REMARK  2 active torsions:
REMARK  status: ('A' for Active; 'I' for Inactive)
REMARK    1  A    between atoms: C_2  and  C_11
REMARK    2  A    between atoms: N_3  and  C_4
REMARK                            x       y       z     vdW  Elec       q    Type
REMARK                         _______ _______ _______ _____ _____    ______ ____
ROOT
ATOM      1  O   UNL     1       0.697   0.884  -1.641  0.00  0.00    +0.000 OA
ATOM      2  C   UNL     1       0.194   0.658  -0.512  0.00  0.00    +0.000 C 
ATOM      3  N   UNL     1       1.026   0.004   0.461  0.00  0.00    +0.000 NA
ENDROOT
BRANCH   2   4
ATOM      4  C   UNL     1      -1.206   1.062  -0.230  0.00  0.00    +0.000 A 
ATOM      5  C   UNL     1      -1.443   2.439  -0.389  0.00  0.00    +0.000 A 
ATOM      6  S   UNL     1      -3.090   2.587   0.078  0.00  0.00    +0.000 S 
ATOM      7  C   UNL     1      -3.412   0.969   0.446  0.00  0.00    +0.000 A 
ATOM      8  C   UNL     1      -2.222   0.332   0.197  0.00  0.00    +0.000 A 
ATOM      9  C   UNL     1      -2.312  -1.178   0.438  0.00  0.00    +0.000 C 
ATOM     10  C   UNL     1      -3.571  -1.572  -0.325  0.00  0.00    +0.000 C 
ATOM     11  C   UNL     1      -4.756  -1.115   0.489  0.00  0.00    +0.000 C 
ATOM     12  C   UNL     1      -4.659   0.333   0.906  0.00  0.00    +0.000 C 
ENDBRANCH   2   4
BRANCH   3  13
ATOM     13  C   UNL     1       2.358  -0.360   0.121  0.00  0.00    +0.000 A 
ATOM     14  C   UNL     1       2.776  -0.296  -1.196  0.00  0.00    +0.000 A 
ATOM     15  C   UNL     1       4.065  -0.688  -1.560  0.00  0.00    +0.000 A 
ATOM     16  C   UNL     1       4.927  -1.143  -0.613  0.00  0.00    +0.000 A 
ATOM     17  C   UNL     1       4.555  -1.225   0.701  0.00  0.00    +0.000 A 
ATOM     18  C   UNL     1       3.250  -0.819   1.038  0.00  0.00    +0.000 A 
ATOM     19  O   UNL     1       2.822  -0.869   2.380  0.00  0.00    +0.000 OA
ENDBRANCH   3  13
TORSDOF 2
