REMARK  Name = 
REMARK  3 active torsions:
REMARK  status: ('A' for Active; 'I' for Inactive)
REMARK    1  A    between atoms: C_5  and  C_6
REMARK    2  A    between atoms: N_8  and  C_9
REMARK    3  A    between atoms: C_15  and  C_16
REMARK                            x       y       z     vdW  Elec       q    Type
REMARK                         _______ _______ _______ _____ _____    ______ ____
ROOT
ATOM      1  C   UNL     1       1.031  -0.662   0.120  0.00  0.00    +0.000 C 
ATOM      2  O   UNL     1       0.817  -1.867   0.273  0.00  0.00    +0.000 OA
ATOM      3  N   UNL     1      -0.036   0.119   0.057  0.00  0.00    +0.000 NA
ENDROOT
BRANCH   1   8
ATOM      4  C   UNL     1       6.602   0.704  -0.216  0.00  0.00    +0.000 C 
ATOM      5  C   UNL     1       5.137   0.394  -0.134  0.00  0.00    +0.000 A 
ATOM      6  C   UNL     1       4.181   1.383  -0.225  0.00  0.00    +0.000 A 
ATOM      7  C   UNL     1       2.816   1.076  -0.146  0.00  0.00    +0.000 A 
ATOM      8  C   UNL     1       2.442  -0.232   0.025  0.00  0.00    +0.000 A 
ATOM      9  C   UNL     1       3.408  -1.192   0.112  0.00  0.00    +0.000 A 
ATOM     10  C   UNL     1       4.760  -0.903   0.035  0.00  0.00    +0.000 A 
ENDBRANCH   1   8
BRANCH   3  11
ATOM     11  C   UNL     1      -1.362   0.336   0.071  0.00  0.00    +0.000 A 
ATOM     12  S   UNL     1      -1.812   2.023  -0.120  0.00  0.00    +0.000 S 
ATOM     13  C   UNL     1      -3.487   1.889  -0.053  0.00  0.00    +0.000 A 
ATOM     14  C   UNL     1      -4.532   2.978  -0.154  0.00  0.00    +0.000 C 
ATOM     15  C   UNL     1      -3.674   0.554   0.115  0.00  0.00    +0.000 A 
ATOM     16  C   UNL     1      -5.135   0.077   0.217  0.00  0.00    +0.000 C 
ATOM     17  C   UNL     1      -2.581  -0.255   0.180  0.00  0.00    +0.000 A 
BRANCH  17  18
ATOM     18  C   UNL     1      -2.739  -1.690   0.359  0.00  0.00    +0.000 C 
ATOM     19  N   UNL     1      -4.032  -2.260   0.467  0.00  0.00    +0.000 NA
ATOM     20  O   UNL     1      -1.803  -2.471   0.425  0.00  0.00    +0.000 OA
ENDBRANCH  17  18
ENDBRANCH   3  11
TORSDOF 3
