REMARK  Name = 
REMARK  3 active torsions:
REMARK  status: ('A' for Active; 'I' for Inactive)
REMARK    1  A    between atoms: C_2  and  N_3
REMARK    2  A    between atoms: C_8  and  C_9
REMARK    3  A    between atoms: C_9  and  C_11
REMARK                            x       y       z     vdW  Elec       q    Type
REMARK                         _______ _______ _______ _____ _____    ______ ____
ROOT
ATOM      1  C   UNL     1      -0.103  -0.691   0.728  0.00  0.00    +0.000 C 
ATOM      2  C   UNL     1      -0.177  -1.950   1.695  0.00  0.00    +0.000 C 
ENDROOT
BRANCH   1   3
ATOM      3  C   UNL     1      -1.451  -0.721  -0.004  0.00  0.00    +0.000 A 
ATOM      4  C   UNL     1      -2.188  -1.536  -0.734  0.00  0.00    +0.000 A 
ATOM      5  N   UNL     1      -3.389  -0.956  -1.045  0.00  0.00    +0.000 NA
ATOM      6  C   UNL     1      -3.400   0.252  -0.504  0.00  0.00    +0.000 A 
ATOM      7  C   UNL     1      -4.363   1.262  -0.612  0.00  0.00    +0.000 A 
ATOM      8  C   UNL     1      -4.058   2.468  -0.003  0.00  0.00    +0.000 A 
ATOM      9  C   UNL     1      -2.909   2.717   0.668  0.00  0.00    +0.000 A 
ATOM     10  C   UNL     1      -1.951   1.667   0.742  0.00  0.00    +0.000 A 
ATOM     11  C   UNL     1      -2.231   0.459   0.153  0.00  0.00    +0.000 A 
ENDBRANCH   1   3
BRANCH   1  17
ATOM     12  N   UNL     1       4.069   0.790  -1.179  0.00  0.00    +0.000 NA
ATOM     13  C   UNL     1       3.050  -0.066  -0.721  0.00  0.00    +0.000 C 
ATOM     14  N   UNL     1       3.099  -1.039   0.059  0.00  0.00    +0.000 NA
ATOM     15  C   UNL     1       1.977  -1.748   0.371  0.00  0.00    +0.000 C 
ATOM     16  O   UNL     1       1.993  -2.615   1.338  0.00  0.00    +0.000 OA
ATOM     17  C   UNL     1       0.762  -1.491  -0.447  0.00  0.00    +0.000 C 
ATOM     18  S   UNL     1       1.372   0.104  -1.285  0.00  0.00    +0.000 S 
BRANCH  12  20
ATOM     19  C   UNL     1       4.675   1.981   0.791  0.00  0.00    +0.000 C 
ATOM     20  C   UNL     1       5.224   1.112  -0.343  0.00  0.00    +0.000 C 
ENDBRANCH  12  20
ENDBRANCH   1  17
TORSDOF 3
