REMARK  Name = 
REMARK  2 active torsions:
REMARK  status: ('A' for Active; 'I' for Inactive)
REMARK    1  A    between atoms: C_9  and  N_10
REMARK    2  A    between atoms: N_10  and  C_11
REMARK                            x       y       z     vdW  Elec       q    Type
REMARK                         _______ _______ _______ _____ _____    ______ ____
ROOT
ATOM      1  C   UNL     1      -1.105  -4.449  -0.087  0.00  0.00    +0.000 C 
ATOM      2  C   UNL     1      -1.550  -3.035  -0.332  0.00  0.00    +0.000 A 
ATOM      3  C   UNL     1      -2.596  -2.747  -1.179  0.00  0.00    +0.000 A 
ATOM      4  C   UNL     1      -3.031  -1.469  -1.427  0.00  0.00    +0.000 A 
ATOM      5  C   UNL     1      -2.400  -0.398  -0.804  0.00  0.00    +0.000 A 
ATOM      6  N   UNL     1      -2.788   0.868  -1.014  0.00  0.00    +0.000 NA
ATOM      7  C   UNL     1      -2.202   1.927  -0.430  0.00  0.00    +0.000 A 
ATOM      8  C   UNL     1      -1.143   1.692   0.432  0.00  0.00    +0.000 A 
ATOM      9  C   UNL     1      -0.730   0.401   0.660  0.00  0.00    +0.000 A 
ATOM     10  C   UNL     1      -1.356  -0.661   0.043  0.00  0.00    +0.000 A 
ATOM     11  C   UNL     1      -0.923  -1.976   0.286  0.00  0.00    +0.000 A 
ATOM     12  C   UNL     1      -0.641   2.982   0.966  0.00  0.00    +0.000 C 
ATOM     13  C   UNL     1      -1.280   4.032   0.086  0.00  0.00    +0.000 C 
ATOM     14  C   UNL     1      -2.477   3.376  -0.529  0.00  0.00    +0.000 C 
ENDROOT
BRANCH   9  15
ATOM     15  N   UNL     1       0.348   0.093   1.531  0.00  0.00    +0.000 NA
BRANCH  15  16
ATOM     16  C   UNL     1       1.700   0.010   1.077  0.00  0.00    +0.000 A 
ATOM     17  C   UNL     1       2.019   0.229  -0.247  0.00  0.00    +0.000 A 
ATOM     18  C   UNL     1       3.323   0.153  -0.709  0.00  0.00    +0.000 A 
ATOM     19  C   UNL     1       4.365  -0.146   0.142  0.00  0.00    +0.000 A 
ATOM     20  O   UNL     1       5.681  -0.229  -0.291  0.00  0.00    +0.000 OA
ATOM     21  C   UNL     1       4.048  -0.365   1.466  0.00  0.00    +0.000 A 
ATOM     22  C   UNL     1       2.738  -0.290   1.934  0.00  0.00    +0.000 A 
ENDBRANCH  15  16
ENDBRANCH   9  15
TORSDOF 2
