REMARK  Name = 
REMARK  4 active torsions:
REMARK  status: ('A' for Active; 'I' for Inactive)
REMARK    1  A    between atoms: C_6  and  C_7
REMARK    2  A    between atoms: N_8  and  N_9
REMARK    3  A    between atoms: C_10  and  C_12
REMARK    4  A    between atoms: C_14  and  C_15
REMARK                            x       y       z     vdW  Elec       q    Type
REMARK                         _______ _______ _______ _____ _____    ______ ____
ROOT
ATOM      1  N   UNL     1      -0.526  -1.401   0.685  0.00  0.00    +0.000 NA
ATOM      2  C   UNL     1       0.090  -0.531  -0.252  0.00  0.00    +0.000 C 
ATOM      3  O   UNL     1      -0.536   0.004  -1.261  0.00  0.00    +0.000 OA
ENDROOT
BRANCH   2   4
ATOM      4  C   UNL     1       1.522  -0.173  -0.247  0.00  0.00    +0.000 A 
ATOM      5  C   UNL     1       2.681  -0.316  -0.758  0.00  0.00    +0.000 A 
ATOM      6  C   UNL     1       3.669   0.439  -0.052  0.00  0.00    +0.000 A 
ATOM      7  N   UNL     1       2.944   0.947   0.894  0.00  0.00    +0.000 NA
ATOM      8  N   UNL     1       1.763   0.732   0.906  0.00  0.00    +0.000 NA
BRANCH   6   9
ATOM      9  C   UNL     1       5.095   0.515  -0.334  0.00  0.00    +0.000 C 
ATOM     10  C   UNL     1       5.737   0.416   1.088  0.00  0.00    +0.000 C 
ATOM     11  C   UNL     1       5.643   1.676  -0.989  0.00  0.00    +0.000 C 
ATOM     12  C   UNL     1       5.569  -0.769  -0.999  0.00  0.00    +0.000 C 
ENDBRANCH   6   9
ENDBRANCH   2   4
BRANCH   1  14
ATOM     13  C   UNL     1      -2.456  -0.339   0.989  0.00  0.00    +0.000 C 
ATOM     14  N   UNL     1      -2.021  -1.623   0.306  0.00  0.00    +0.000 NA
BRANCH  13  20
ATOM     15  C   UNL     1      -3.946   1.998  -0.074  0.00  0.00    +0.000 C 
ATOM     16  N   UNL     1      -4.497   0.711   0.134  0.00  0.00    +0.000 N 
ATOM     17  C   UNL     1      -5.838   0.394  -0.183  0.00  0.00    +0.000 A 
ATOM     18  C   UNL     1      -6.165  -0.913   0.361  0.00  0.00    +0.000 A 
ATOM     19  C   UNL     1      -4.807  -1.383   0.889  0.00  0.00    +0.000 A 
ATOM     20  C   UNL     1      -3.920  -0.384   0.730  0.00  0.00    +0.000 A 
ENDBRANCH  13  20
ENDBRANCH   1  14
TORSDOF 4
