REMARK  Name = 
REMARK  4 active torsions:
REMARK  status: ('A' for Active; 'I' for Inactive)
REMARK    1  A    between atoms: C_6  and  C_7
REMARK    2  A    between atoms: N_9  and  N_10
REMARK    3  A    between atoms: C_11  and  C_12
REMARK    4  A    between atoms: C_15  and  C_16
REMARK                            x       y       z     vdW  Elec       q    Type
REMARK                         _______ _______ _______ _____ _____    ______ ____
ROOT
ATOM      1  N   UNL     1      -0.729   0.585  -0.698  0.00  0.00    +0.000 NA
ATOM      2  C   UNL     1      -0.079   0.419   0.375  0.00  0.00    +0.000 C 
ENDROOT
BRANCH   2   3
ATOM      3  C   UNL     1       1.397   0.296   0.215  0.00  0.00    +0.000 A 
ATOM      4  C   UNL     1       2.205   0.163   1.314  0.00  0.00    +0.000 A 
ATOM      5  C   UNL     1       3.586   0.024   1.175  0.00  0.00    +0.000 A 
ATOM      6  C   UNL     1       4.196   0.014  -0.067  0.00  0.00    +0.000 A 
ATOM      7  C   UNL     1       3.375   0.148  -1.149  0.00  0.00    +0.000 A 
ATOM      8  C   UNL     1       1.983   0.291  -1.044  0.00  0.00    +0.000 A 
BRANCH   6   9
ATOM      9  C   UNL     1       5.641  -0.140  -0.242  0.00  0.00    +0.000 C 
ATOM     10  C   UNL     1       6.094  -1.535   0.176  0.00  0.00    +0.000 C 
ATOM     11  C   UNL     1       6.475   0.814   0.597  0.00  0.00    +0.000 C 
ATOM     12  C   UNL     1       6.021   0.032  -1.699  0.00  0.00    +0.000 C 
ENDBRANCH   6   9
ENDBRANCH   2   3
BRANCH   1  15
ATOM     13  C   UNL     1      -2.947  -0.353  -0.224  0.00  0.00    +0.000 C 
ATOM     14  O   UNL     1      -2.278  -1.330   0.227  0.00  0.00    +0.000 OA
ATOM     15  N   UNL     1      -2.154   0.718  -0.737  0.00  0.00    +0.000 NA
BRANCH  13  21
ATOM     16  C   UNL     1      -4.943   2.035  -0.746  0.00  0.00    +0.000 C 
ATOM     17  C   UNL     1      -5.321   0.621  -0.435  0.00  0.00    +0.000 A 
ATOM     18  O   UNL     1      -6.548   0.154  -0.337  0.00  0.00    +0.000 OA
ATOM     19  C   UNL     1      -6.452  -1.097  -0.057  0.00  0.00    +0.000 A 
ATOM     20  C   UNL     1      -5.144  -1.507   0.042  0.00  0.00    +0.000 A 
ATOM     21  C   UNL     1      -4.379  -0.351  -0.212  0.00  0.00    +0.000 A 
ENDBRANCH  13  21
ENDBRANCH   1  15
TORSDOF 4
