REMARK  Name = 
REMARK  2 active torsions:
REMARK  status: ('A' for Active; 'I' for Inactive)
REMARK    1  A    between atoms: C_11  and  N_12
REMARK    2  A    between atoms: N_12  and  C_13
REMARK                            x       y       z     vdW  Elec       q    Type
REMARK                         _______ _______ _______ _____ _____    ______ ____
ROOT
ATOM      1  C   UNL     1      -3.343  -2.891  -2.270  0.00  0.00    +0.000 C 
ATOM      2  C   UNL     1      -3.035  -1.672  -1.442  0.00  0.00    +0.000 A 
ATOM      3  C   UNL     1      -4.035  -0.832  -1.012  0.00  0.00    +0.000 A 
ATOM      4  C   UNL     1      -3.801   0.293  -0.253  0.00  0.00    +0.000 A 
ATOM      5  C   UNL     1      -4.886   1.200   0.211  0.00  0.00    +0.000 C 
ATOM      6  C   UNL     1      -2.507   0.611   0.105  0.00  0.00    +0.000 A 
ATOM      7  N   UNL     1      -2.192   1.677   0.836  0.00  0.00    +0.000 NA
ATOM      8  C   UNL     1      -0.915   1.948   1.161  0.00  0.00    +0.000 A 
ATOM      9  C   UNL     1      -0.607   3.167   1.990  0.00  0.00    +0.000 C 
ATOM     10  C   UNL     1       0.128   1.126   0.747  0.00  0.00    +0.000 A 
ATOM     11  C   UNL     1      -0.167   0.014  -0.011  0.00  0.00    +0.000 A 
ATOM     12  C   UNL     1      -1.483  -0.241  -0.330  0.00  0.00    +0.000 A 
ATOM     13  C   UNL     1      -1.741  -1.361  -1.088  0.00  0.00    +0.000 A 
ENDROOT
BRANCH  11  14
ATOM     14  N   UNL     1       0.858  -0.859  -0.459  0.00  0.00    +0.000 NA
BRANCH  14  15
ATOM     15  C   UNL     1       2.219  -0.603  -0.134  0.00  0.00    +0.000 A 
ATOM     16  C   UNL     1       2.615   0.491   0.624  0.00  0.00    +0.000 A 
ATOM     17  C   UNL     1       3.950   0.704   0.919  0.00  0.00    +0.000 A 
ATOM     18  C   UNL     1       4.924  -0.144   0.481  0.00  0.00    +0.000 A 
ATOM     19  O   UNL     1       6.274   0.064   0.773  0.00  0.00    +0.000 OA
ATOM     20  C   UNL     1       4.536  -1.241  -0.279  0.00  0.00    +0.000 A 
ATOM     21  C   UNL     1       3.209  -1.450  -0.570  0.00  0.00    +0.000 A 
ENDBRANCH  14  15
ENDBRANCH  11  14
TORSDOF 2
