REMARK  Name = 
REMARK  1 active torsions:
REMARK  status: ('A' for Active; 'I' for Inactive)
REMARK    1  A    between atoms: C_19  and  C_21
REMARK                            x       y       z     vdW  Elec       q    Type
REMARK                         _______ _______ _______ _____ _____    ______ ____
ROOT
ATOM      1  C   UNL     1       1.037  -1.223  -2.137  0.00  0.00    +0.000 C 
ATOM      2  C   UNL     1       0.802  -0.672  -0.631  0.00  0.00    +0.000 C 
ATOM      3  C   UNL     1       1.131  -1.746   0.218  0.00  0.00    +0.000 C 
ATOM      4  C   UNL     1       2.237  -1.896   0.852  0.00  0.00    +0.000 C 
ATOM      5  C   UNL     1       3.220  -0.845   0.688  0.00  0.00    +0.000 A 
ATOM      6  O   UNL     1       4.442  -0.775   1.176  0.00  0.00    +0.000 OA
ATOM      7  C   UNL     1       5.020   0.315   0.777  0.00  0.00    +0.000 A 
ATOM      8  C   UNL     1       4.106   1.001  -0.024  0.00  0.00    +0.000 A 
ATOM      9  C   UNL     1       2.956   0.214  -0.048  0.00  0.00    +0.000 A 
ATOM     10  C   UNL     1       1.581   0.643  -0.661  0.00  0.00    +0.000 C 
ATOM     11  C   UNL     1       1.066   1.418   0.652  0.00  0.00    +0.000 C 
ATOM     12  C   UNL     1       0.043   0.644   1.379  0.00  0.00    +0.000 C 
ATOM     13  C   UNL     1      -1.078   0.456   0.504  0.00  0.00    +0.000 C 
ATOM     14  C   UNL     1      -1.748   1.700   0.116  0.00  0.00    +0.000 C 
ATOM     15  C   UNL     1      -3.075   1.175  -0.663  0.00  0.00    +0.000 C 
ATOM     16  C   UNL     1      -2.327   0.711  -2.014  0.00  0.00    +0.000 C 
ATOM     17  C   UNL     1      -0.850   0.633  -1.871  0.00  0.00    +0.000 C 
ATOM     18  C   UNL     1      -0.780  -0.500  -0.726  0.00  0.00    +0.000 C 
ATOM     19  C   UNL     1      -3.183  -0.257   0.069  0.00  0.00    +0.000 C 
ATOM     20  O   UNL     1      -3.126  -1.273  -0.786  0.00  0.00    +0.000 OA
ATOM     21  C   UNL     1      -2.219  -0.224   1.198  0.00  0.00    +0.000 C 
ENDROOT
BRANCH  19  22
ATOM     22  C   UNL     1      -4.568  -0.271   0.738  0.00  0.00    +0.000 C 
ATOM     23  O   UNL     1      -4.688   0.773   1.646  0.00  0.00    +0.000 OA
ENDBRANCH  19  22
TORSDOF 1
