REMARK  Name = 
REMARK  3 active torsions:
REMARK  status: ('A' for Active; 'I' for Inactive)
REMARK    1  A    between atoms: C_6  and  C_7
REMARK    2  A    between atoms: N_9  and  C_10
REMARK    3  A    between atoms: C_10  and  C_11
REMARK                            x       y       z     vdW  Elec       q    Type
REMARK                         _______ _______ _______ _____ _____    ______ ____
ROOT
ATOM      1  N   UNL     1      -0.561  -3.288  -0.310  0.00  0.00    +0.000 NA
ATOM      2  C   UNL     1      -1.343  -2.122   0.055  0.00  0.00    +0.000 A 
ATOM      3  S   UNL     1      -2.892  -2.042   0.760  0.00  0.00    +0.000 S 
ATOM      4  C   UNL     1      -3.064  -0.354   0.853  0.00  0.00    +0.000 A 
ATOM      5  C   UNL     1      -1.894   0.114   0.325  0.00  0.00    +0.000 A 
ATOM      6  C   UNL     1      -0.995  -0.808  -0.092  0.00  0.00    +0.000 A 
ATOM      7  C   UNL     1      -1.815   1.639   0.303  0.00  0.00    +0.000 C 
ATOM      8  C   UNL     1      -3.079   2.089  -0.389  0.00  0.00    +0.000 C 
ATOM      9  C   UNL     1      -4.317   1.738   0.374  0.00  0.00    +0.000 C 
ATOM     10  C   UNL     1      -4.126   0.608   1.344  0.00  0.00    +0.000 C 
ENDROOT
BRANCH   6  11
ATOM     11  C   UNL     1       0.323  -0.442  -0.687  0.00  0.00    +0.000 C 
ATOM     12  O   UNL     1       1.129  -1.316  -1.061  0.00  0.00    +0.000 OA
ATOM     13  N   UNL     1       0.721   0.906  -0.857  0.00  0.00    +0.000 NA
BRANCH  13  14
ATOM     14  C   UNL     1       1.961   1.341  -1.416  0.00  0.00    +0.000 C 
BRANCH  14  15
ATOM     15  C   UNL     1       3.118   0.833  -0.620  0.00  0.00    +0.000 A 
ATOM     16  C   UNL     1       3.717  -0.368  -0.908  0.00  0.00    +0.000 A 
ATOM     17  C   UNL     1       4.726  -0.507   0.014  0.00  0.00    +0.000 A 
ATOM     18  C   UNL     1       4.675   0.610   0.799  0.00  0.00    +0.000 A 
ATOM     19  O   UNL     1       3.717   1.370   0.393  0.00  0.00    +0.000 OA
ENDBRANCH  14  15
ENDBRANCH  13  14
ENDBRANCH   6  11
TORSDOF 3
