REMARK  Name = 
REMARK  4 active torsions:
REMARK  status: ('A' for Active; 'I' for Inactive)
REMARK    1  A    between atoms: C_2  and  O_5
REMARK    2  A    between atoms: O_5  and  C_6
REMARK    3  A    between atoms: CA_11  and  CB_12
REMARK    4  A    between atoms: CB_12  and  CG_13
REMARK                            x       y       z     vdW  Elec       q    Type
REMARK                         _______ _______ _______ _____ _____    ______ ____
ROOT
ATOM      1  C   UNK A   0       2.759  -0.377  -0.212  0.00  0.00    +0.000 C 
ATOM      2  O   UNK A   0       3.139  -0.869  -1.276  0.00  0.00    +0.000 OA
ATOM      3  N   TRP A   1       1.516  -0.516   0.265  0.00  0.00    +0.000 N 
ATOM      4  C   TRP A   1       0.454  -0.223   1.401  0.00  0.00    +0.000 C 
ATOM      5  O   TRP A   1       0.279   0.322   2.455  0.00  0.00    +0.000 OA
ATOM      6  CA  TRP A   1       0.044  -1.085   0.135  0.00  0.00    +0.000 C 
ENDROOT
BRANCH   1   7
ATOM      7  O   UNK A   0       3.745   0.322   0.417  0.00  0.00    +0.000 OA
BRANCH   7   9
ATOM      8  C   UNK A   0       5.865  -0.715  -0.210  0.00  0.00    +0.000 C 
ATOM      9  C   UNK A   0       5.045   0.507  -0.016  0.00  0.00    +0.000 C 
ATOM     10  C   UNK A   0       5.668   1.246   1.190  0.00  0.00    +0.000 C 
ATOM     11  C   UNK A   0       5.215   1.453  -1.166  0.00  0.00    +0.000 C 
ENDBRANCH   7   9
ENDBRANCH   1   7
BRANCH   6  12
ATOM     12  CB  TRP A   1      -0.492   0.195  -0.779  0.00  0.00    +0.000 C 
BRANCH  12  13
ATOM     13  CG  TRP A   1      -1.920  -0.072  -1.071  0.00  0.00    +0.000 A 
ATOM     14  CD1 TRP A   1      -2.511  -0.509  -2.229  0.00  0.00    +0.000 A 
ATOM     15  NE1 TRP A   1      -3.864  -0.617  -2.048  0.00  0.00    +0.000 NA
ATOM     16  CE2 TRP A   1      -4.175  -0.257  -0.783  0.00  0.00    +0.000 A 
ATOM     17  CZ2 TRP A   1      -5.383  -0.185  -0.083  0.00  0.00    +0.000 A 
ATOM     18  CH2 TRP A   1      -5.308   0.235   1.222  0.00  0.00    +0.000 A 
ATOM     19  CZ3 TRP A   1      -4.146   0.575   1.849  0.00  0.00    +0.000 A 
ATOM     20  CE3 TRP A   1      -2.963   0.495   1.136  0.00  0.00    +0.000 A 
ATOM     21  CD2 TRP A   1      -2.968   0.075  -0.197  0.00  0.00    +0.000 A 
ENDBRANCH  12  13
ENDBRANCH   6  12
TORSDOF 4
