REMARK  Name = 
REMARK  2 active torsions:
REMARK  status: ('A' for Active; 'I' for Inactive)
REMARK    1  A    between atoms: C_2  and  C_3
REMARK    2  A    between atoms: C_3  and  C_5
REMARK                            x       y       z     vdW  Elec       q    Type
REMARK                         _______ _______ _______ _____ _____    ______ ____
ROOT
ATOM      1  C   UNL     1      -1.653   0.165  -0.498  0.00  0.00    +0.000 A 
ATOM      2  C   UNL     1      -2.947  -0.402  -0.504  0.00  0.00    +0.000 A 
ATOM      3  C   UNL     1      -3.142  -1.593   0.135  0.00  0.00    +0.000 A 
ATOM      4  N   UNL     1      -4.393  -2.269   0.202  0.00  0.00    +0.000 NA
ATOM      5  N   UNL     1      -2.093  -2.167   0.737  0.00  0.00    +0.000 NA
ATOM      6  C   UNL     1      -0.864  -1.638   0.748  0.00  0.00    +0.000 A 
ATOM      7  N   UNL     1       0.307  -1.986   1.251  0.00  0.00    +0.000 NA
ATOM      8  C   UNL     1       1.238  -1.070   0.962  0.00  0.00    +0.000 A 
ATOM      9  C   UNL     1       2.596  -1.001   1.272  0.00  0.00    +0.000 A 
ATOM     10  C   UNL     1       3.316   0.075   0.836  0.00  0.00    +0.000 A 
ATOM     11  C   UNL     1       4.758   0.153   1.163  0.00  0.00    +0.000 C 
ATOM     12  C   UNL     1       2.729   1.093   0.097  0.00  0.00    +0.000 A 
ATOM     13  C   UNL     1       3.593   2.220  -0.332  0.00  0.00    +0.000 C 
ATOM     14  C   UNL     1       1.408   0.960  -0.167  0.00  0.00    +0.000 A 
ATOM     15  C   UNL     1       0.609  -0.079   0.227  0.00  0.00    +0.000 A 
ATOM     16  N   UNL     1      -0.693  -0.442   0.101  0.00  0.00    +0.000 N 
ENDROOT
BRANCH   1  17
ATOM     17  C   UNL     1      -1.571   1.535  -1.268  0.00  0.00    +0.000 C 
ATOM     18  C   UNL     1      -0.313   1.338  -2.253  0.00  0.00    +0.000 C 
BRANCH  17  20
ATOM     19  C   UNL     1      -1.977   2.687   0.912  0.00  0.00    +0.000 C 
ATOM     20  C   UNL     1      -0.909   2.419  -0.096  0.00  0.00    +0.000 C 
ENDBRANCH  17  20
ENDBRANCH   1  17
TORSDOF 2
