REMARK  Name = 
REMARK  0 active torsions:
REMARK  status: ('A' for Active; 'I' for Inactive)
REMARK                            x       y       z     vdW  Elec       q    Type
REMARK                         _______ _______ _______ _____ _____    ______ ____
ROOT
ATOM      1  C   UNL     1      -2.131   1.395  -2.063  0.00  0.00    +0.000 C 
ATOM      2  C   UNL     1      -2.449   0.413  -0.991  0.00  0.00    +0.000 A 
ATOM      3  C   UNL     1      -3.748   0.140  -0.645  0.00  0.00    +0.000 A 
ATOM      4  C   UNL     1      -4.066  -0.768   0.345  0.00  0.00    +0.000 A 
ATOM      5  O   UNL     1      -5.420  -0.989   0.641  0.00  0.00    +0.000 OA
ATOM      6  C   UNL     1      -3.051  -1.405   0.986  0.00  0.00    +0.000 A 
ATOM      7  C   UNL     1      -1.729  -1.118   0.621  0.00  0.00    +0.000 A 
ATOM      8  C   UNL     1      -1.388  -0.268  -0.302  0.00  0.00    +0.000 A 
ATOM      9  C   UNL     1      -0.000   0.280  -0.757  0.00  0.00    +0.000 C 
ATOM     10  C   UNL     1       0.212   1.490   0.341  0.00  0.00    +0.000 C 
ATOM     11  C   UNL     1       1.371   2.106  -0.408  0.00  0.00    +0.000 C 
ATOM     12  C   UNL     1       2.574   1.253  -0.192  0.00  0.00    +0.000 C 
ATOM     13  C   UNL     1       3.644   1.964   0.593  0.00  0.00    +0.000 C 
ATOM     14  C   UNL     1       3.083   0.491  -1.293  0.00  0.00    +0.000 C 
ATOM     15  O   UNL     1       3.114   0.758  -2.470  0.00  0.00    +0.000 OA
ATOM     16  C   UNL     1       3.613  -0.784  -0.743  0.00  0.00    +0.000 C 
ATOM     17  C   UNL     1       3.348  -0.772   0.721  0.00  0.00    +0.000 C 
ATOM     18  C   UNL     1       2.020   0.137   0.845  0.00  0.00    +0.000 C 
ATOM     19  C   UNL     1       1.121  -0.778  -0.265  0.00  0.00    +0.000 C 
ATOM     20  C   UNL     1       0.508  -1.674   0.790  0.00  0.00    +0.000 C 
ATOM     21  C   UNL     1      -0.625  -1.871   1.201  0.00  0.00    +0.000 C 
ENDROOT
TORSDOF 0
