REMARK  Name = 
REMARK  6 active torsions:
REMARK  status: ('A' for Active; 'I' for Inactive)
REMARK    1  A    between atoms: C_2  and  C_3
REMARK    2  A    between atoms: C_4  and  C_5
REMARK    3  A    between atoms: N_7  and  C_9
REMARK    4  A    between atoms: C_9  and  C_10
REMARK    5  A    between atoms: C_10  and  C_11
REMARK    6  A    between atoms: N_19  and  C_20
REMARK                            x       y       z     vdW  Elec       q    Type
REMARK                         _______ _______ _______ _____ _____    ______ ____
ROOT
ATOM      1  C   UNL     1       0.475  -0.392  -1.027  0.00  0.00    +0.000 A 
ATOM      2  C   UNL     1      -0.717  -0.855  -0.522  0.00  0.00    +0.000 A 
ATOM      3  N   UNL     1      -0.478  -1.030   0.807  0.00  0.00    +0.000 NA
ATOM      4  N   UNL     1       0.780  -0.687   1.054  0.00  0.00    +0.000 NA
ATOM      5  N   UNL     1       1.393  -0.291  -0.045  0.00  0.00    +0.000 N 
ENDROOT
BRANCH   5   6
ATOM      6  C   UNL     1       2.738   0.150  -0.200  0.00  0.00    +0.000 A 
ATOM      7  C   UNL     1       3.323   0.234  -1.454  0.00  0.00    +0.000 A 
ATOM      8  C   UNL     1       4.627   0.659  -1.594  0.00  0.00    +0.000 A 
ATOM      9  C   UNL     1       5.416   1.019  -0.525  0.00  0.00    +0.000 A 
ATOM     10  C   UNL     1       4.825   0.934   0.735  0.00  0.00    +0.000 A 
ATOM     11  C   UNL     1       3.520   0.509   0.879  0.00  0.00    +0.000 A 
ATOM     12  O   UNL     1       5.627   1.298   1.805  0.00  0.00    +0.000 OA
ATOM     13  C   UNL     1       6.881   1.897   1.714  0.00  0.00    +0.000 C 
ATOM     14  C   UNL     1       7.291   2.332   0.346  0.00  0.00    +0.000 C 
ATOM     15  O   UNL     1       6.732   1.450  -0.639  0.00  0.00    +0.000 OA
ENDBRANCH   5   6
BRANCH   2  16
ATOM     16  C   UNL     1      -1.981  -1.125  -1.192  0.00  0.00    +0.000 C 
ATOM     17  O   UNL     1      -2.040  -0.912  -2.425  0.00  0.00    +0.000 OA
ATOM     18  N   UNL     1      -3.128  -1.607  -0.532  0.00  0.00    +0.000 N 
ATOM     19  C   UNL     1      -4.335  -1.851  -1.269  0.00  0.00    +0.000 C 
BRANCH  18  20
ATOM     20  C   UNL     1      -3.084  -1.872   0.876  0.00  0.00    +0.000 C 
BRANCH  20  21
ATOM     21  C   UNL     1      -3.424  -0.723   1.745  0.00  0.00    +0.000 C 
BRANCH  21  22
ATOM     22  C   UNL     1      -4.761  -0.166   1.613  0.00  0.00    +0.000 A 
ATOM     23  C   UNL     1      -5.082   0.943   2.386  0.00  0.00    +0.000 A 
ATOM     24  C   UNL     1      -6.349   1.471   2.282  0.00  0.00    +0.000 A 
ATOM     25  C   UNL     1      -7.284   0.931   1.442  0.00  0.00    +0.000 A 
ATOM     26  C   UNL     1      -6.913  -0.180   0.688  0.00  0.00    +0.000 A 
ATOM     27  N   UNL     1      -5.664  -0.694   0.796  0.00  0.00    +0.000 NA
ENDBRANCH  21  22
ENDBRANCH  20  21
ENDBRANCH  18  20
ENDBRANCH   2  16
BRANCH   1  29
ATOM     28  C   UNL     1       0.882  -1.392  -3.171  0.00  0.00    +0.000 C 
ATOM     29  C   UNL     1       0.726  -0.050  -2.442  0.00  0.00    +0.000 C 
ENDBRANCH   1  29
TORSDOF 6
