REMARK  Name = 
REMARK  3 active torsions:
REMARK  status: ('A' for Active; 'I' for Inactive)
REMARK    1  A    between atoms: C_2  and  C_3
REMARK    2  A    between atoms: C_3  and  N_4
REMARK    3  A    between atoms: C_15  and  O_16
REMARK                            x       y       z     vdW  Elec       q    Type
REMARK                         _______ _______ _______ _____ _____    ______ ____
ROOT
ATOM      1  N   UNL     1       3.118   1.286   0.009  0.00  0.00    +0.000 NA
ATOM      2  C   UNL     1       2.048   0.644  -0.670  0.00  0.00    +0.000 A 
ATOM      3  N   UNL     1       2.170   0.146  -1.913  0.00  0.00    +0.000 NA
ATOM      4  C   UNL     1       1.136  -0.456  -2.527  0.00  0.00    +0.000 A 
ATOM      5  N   UNL     1      -0.080  -0.590  -1.927  0.00  0.00    +0.000 NA
ATOM      6  C   UNL     1      -0.252  -0.107  -0.681  0.00  0.00    +0.000 A 
ATOM      7  C   UNL     1       0.826   0.518  -0.046  0.00  0.00    +0.000 A 
ATOM      8  N   UNL     1       0.446   0.925   1.179  0.00  0.00    +0.000 NA
ATOM      9  C   UNL     1      -0.852   0.584   1.364  0.00  0.00    +0.000 A 
ATOM     10  C   UNL     1      -1.761   0.734   2.391  0.00  0.00    +0.000 A 
ATOM     11  C   UNL     1      -3.067   0.269   2.296  0.00  0.00    +0.000 A 
ATOM     12  C   UNL     1      -3.483  -0.369   1.133  0.00  0.00    +0.000 A 
ATOM     13  C   UNL     1      -2.594  -0.531   0.094  0.00  0.00    +0.000 A 
ATOM     14  C   UNL     1      -1.300  -0.056   0.222  0.00  0.00    +0.000 A 
ENDROOT
BRANCH  12  15
ATOM     15  O   UNL     1      -4.791  -0.811   1.095  0.00  0.00    +0.000 OA
ATOM     16  C   UNL     1      -5.386  -1.471   0.017  0.00  0.00    +0.000 C 
ENDBRANCH  12  15
BRANCH   1  17
ATOM     17  C   UNL     1       4.423   1.471  -0.541  0.00  0.00    +0.000 C 
BRANCH  17  19
ATOM     18  C   UNL     1       4.399  -1.000  -0.646  0.00  0.00    +0.000 C 
ATOM     19  C   UNL     1       4.999   0.144  -0.849  0.00  0.00    +0.000 C 
ENDBRANCH  17  19
ENDBRANCH   1  17
TORSDOF 3
