REMARK  Name = 
REMARK  0 active torsions:
REMARK  status: ('A' for Active; 'I' for Inactive)
REMARK                            x       y       z     vdW  Elec       q    Type
REMARK                         _______ _______ _______ _____ _____    ______ ____
ROOT
ATOM      1  C   UNL     1      -3.487   1.729   0.000  0.00  0.00    +0.000 C 
ATOM      2  C   UNL     1      -2.659   0.478   0.000  0.00  0.00    +0.000 C 
ATOM      3  C   UNL     1      -1.853   1.743   0.000  0.00  0.00    +0.000 C 
ATOM      4  C   UNL     1      -0.354   1.677   0.000  0.00  0.00    +0.000 C 
ATOM      5  F   UNL     1       0.452   2.942   0.000  0.00  0.00    +0.000 F 
ATOM      6  C   UNL     1       0.338   0.347   0.000  0.00  0.00    +0.000 A 
ATOM      7  C   UNL     1      -0.468  -0.918   0.000  0.00  0.00    +0.000 A 
ATOM      8  C   UNL     1       0.224  -2.249   0.000  0.00  0.00    +0.000 A 
ATOM      9  C   UNL     1       1.723  -2.315   0.000  0.00  0.00    +0.000 A 
ATOM     10  C   UNL     1       2.529  -1.050   0.000  0.00  0.00    +0.000 A 
ATOM     11  C   UNL     1       4.027  -1.115   0.000  0.00  0.00    +0.000 A 
ATOM     12  C   UNL     1       4.834   0.149   0.000  0.00  0.00    +0.000 A 
ATOM     13  O   UNL     1       6.332   0.084   0.000  0.00  0.00    +0.000 OA
ATOM     14  C   UNL     1       4.141   1.480   0.000  0.00  0.00    +0.000 A 
ATOM     15  C   UNL     1       2.643   1.546   0.000  0.00  0.00    +0.000 A 
ATOM     16  C   UNL     1       1.837   0.281   0.000  0.00  0.00    +0.000 A 
ATOM     17  C   UNL     1      -1.967  -0.852   0.000  0.00  0.00    +0.000 C 
ATOM     18  C   UNL     1      -1.566  -2.298   0.000  0.00  0.00    +0.000 C 
ATOM     19  C   UNL     1      -3.018  -1.922   0.000  0.00  0.00    +0.000 C 
ATOM     20  C   UNL     1      -4.361  -1.252   0.000  0.00  0.00    +0.000 C 
ATOM     21  C   UNL     1      -4.139   0.231   0.000  0.00  0.00    +0.000 C 
ATOM     22  O   UNL     1      -5.208   1.283   0.000  0.00  0.00    +0.000 OA
ENDROOT
TORSDOF 0
