REMARK  Name = 
REMARK  3 active torsions:
REMARK  status: ('A' for Active; 'I' for Inactive)
REMARK    1  A    between atoms: C_7  and  N_8
REMARK    2  A    between atoms: C_9  and  C_11
REMARK    3  A    between atoms: C_16  and  N_17
REMARK                            x       y       z     vdW  Elec       q    Type
REMARK                         _______ _______ _______ _____ _____    ______ ____
ROOT
ATOM      1  N   UNL     1       0.991  -0.449   0.207  0.00  0.00    +0.000 NA
ATOM      2  C   UNL     1       0.413   0.826   0.017  0.00  0.00    +0.000 C 
ATOM      3  O   UNL     1       1.153   1.822  -0.120  0.00  0.00    +0.000 OA
ENDROOT
BRANCH   1  10
ATOM      4  C   UNL     1       5.365   1.727  -0.068  0.00  0.00    +0.000 C 
ATOM      5  C   UNL     1       4.577   0.466   0.108  0.00  0.00    +0.000 A 
ATOM      6  C   UNL     1       5.146  -0.754   0.289  0.00  0.00    +0.000 A 
ATOM      7  C   UNL     1       4.386  -1.904   0.448  0.00  0.00    +0.000 A 
ATOM      8  C   UNL     1       3.015  -1.791   0.420  0.00  0.00    +0.000 A 
ATOM      9  C   UNL     1       2.135  -2.969   0.584  0.00  0.00    +0.000 C 
ATOM     10  C   UNL     1       2.406  -0.545   0.235  0.00  0.00    +0.000 A 
ATOM     11  C   UNL     1       3.187   0.568   0.081  0.00  0.00    +0.000 A 
ENDBRANCH   1  10
BRANCH   2  12
ATOM     12  C   UNL     1      -1.050   0.958  -0.017  0.00  0.00    +0.000 A 
ATOM     13  C   UNL     1      -1.612   2.212  -0.201  0.00  0.00    +0.000 A 
ATOM     14  C   UNL     1      -2.982   2.300  -0.228  0.00  0.00    +0.000 A 
ATOM     15  C   UNL     1      -3.787   1.194  -0.081  0.00  0.00    +0.000 A 
ATOM     16  F   UNL     1      -5.136   1.255  -0.106  0.00  0.00    +0.000 F 
ATOM     17  C   UNL     1      -3.236  -0.073   0.104  0.00  0.00    +0.000 A 
ATOM     18  C   UNL     1      -1.861  -0.152   0.130  0.00  0.00    +0.000 A 
BRANCH  17  19
ATOM     19  N   UNL     1      -4.073  -1.219   0.255  0.00  0.00    +0.000 N 
ATOM     20  O   UNL     1      -3.694  -2.222   0.894  0.00  0.00    +0.000 OA
ATOM     21  O   UNL     1      -5.343  -1.250  -0.309  0.00  0.00    +0.000 OA
ENDBRANCH  17  19
ENDBRANCH   2  12
TORSDOF 3
