REMARK  Name = 
REMARK  2 active torsions:
REMARK  status: ('A' for Active; 'I' for Inactive)
REMARK    1  A    between atoms: C_2  and  C_3
REMARK    2  A    between atoms: C_3  and  C_4
REMARK                            x       y       z     vdW  Elec       q    Type
REMARK                         _______ _______ _______ _____ _____    ______ ____
ROOT
ATOM      1  C   UNL     1      -1.559  -0.614  -0.633  0.00  0.00    +0.000 A 
ATOM      2  C   UNL     1      -2.904  -0.247  -0.743  0.00  0.00    +0.000 A 
ATOM      3  C   UNL     1      -3.329   1.032  -0.432  0.00  0.00    +0.000 A 
ATOM      4  O   UNL     1      -4.556   1.356  -0.532  0.00  0.00    +0.000 OA
ATOM      5  O   UNL     1      -2.423   1.871  -0.035  0.00  0.00    +0.000 OA
ATOM      6  C   UNL     1      -1.140   1.608   0.096  0.00  0.00    +0.000 A 
ATOM      7  C   UNL     1      -0.245   2.568   0.523  0.00  0.00    +0.000 A 
ATOM      8  C   UNL     1       1.097   2.346   0.672  0.00  0.00    +0.000 A 
ATOM      9  O   UNL     1       2.004   3.315   1.105  0.00  0.00    +0.000 OA
ATOM     10  C   UNL     1       1.553   1.073   0.369  0.00  0.00    +0.000 A 
ATOM     11  C   UNL     1       0.687   0.088  -0.063  0.00  0.00    +0.000 A 
ATOM     12  C   UNL     1      -0.668   0.340  -0.205  0.00  0.00    +0.000 A 
ATOM     13  O   UNL     1       1.189  -1.160  -0.356  0.00  0.00    +0.000 OA
ATOM     14  C   UNL     1       2.536  -1.521  -0.212  0.00  0.00    +0.000 C 
ATOM     15  C   UNL     1       3.011  -2.088  -1.533  0.00  0.00    +0.000 C 
ATOM     16  C   UNL     1       2.586  -2.695   0.779  0.00  0.00    +0.000 C 
ATOM     17  C   UNL     1       3.403  -0.428   0.250  0.00  0.00    +0.000 C 
ATOM     18  C   UNL     1       2.962   0.780   0.523  0.00  0.00    +0.000 C 
ENDROOT
BRANCH   1  19
ATOM     19  C   UNL     1      -1.088  -1.981  -0.954  0.00  0.00    +0.000 C 
BRANCH  19  21
ATOM     20  C   UNL     1      -2.235  -2.849   1.048  0.00  0.00    +0.000 C 
ATOM     21  C   UNL     1      -0.881  -2.794   0.332  0.00  0.00    +0.000 C 
ENDBRANCH  19  21
ENDBRANCH   1  19
TORSDOF 2
