REMARK  Name = 
REMARK  3 active torsions:
REMARK  status: ('A' for Active; 'I' for Inactive)
REMARK    1  A    between atoms: C_2  and  N_3
REMARK    2  A    between atoms: C_8  and  C_9
REMARK    3  A    between atoms: C_9  and  C_11
REMARK                            x       y       z     vdW  Elec       q    Type
REMARK                         _______ _______ _______ _____ _____    ______ ____
ROOT
ATOM      1  N   UNL     1       4.080   0.416   0.868  0.00  0.00    +0.000 NA
ATOM      2  C   UNL     1       2.910   0.032   0.107  0.00  0.00    +0.000 A 
ATOM      3  N   UNL     1       2.861  -0.557  -1.079  0.00  0.00    +0.000 NA
ATOM      4  C   UNL     1       1.718  -0.828  -1.615  0.00  0.00    +0.000 A 
ATOM      5  N   UNL     1       1.591  -1.473  -2.911  0.00  0.00    +0.000 NA
ATOM      6  C   UNL     1       0.590  -0.486  -0.918  0.00  0.00    +0.000 A 
ATOM      7  S   UNL     1       1.254   0.216   0.488  0.00  0.00    +0.000 S 
ENDROOT
BRANCH   1   9
ATOM      8  C   UNL     1       5.298   1.333   2.688  0.00  0.00    +0.000 C 
ATOM      9  C   UNL     1       3.911   1.056   2.157  0.00  0.00    +0.000 C 
ENDBRANCH   1   9
BRANCH   6  10
ATOM     10  C   UNL     1      -0.823  -0.673  -1.287  0.00  0.00    +0.000 C 
ATOM     11  O   UNL     1      -1.124  -1.216  -2.378  0.00  0.00    +0.000 OA
BRANCH  10  12
ATOM     12  C   UNL     1      -1.881  -0.241  -0.412  0.00  0.00    +0.000 A 
ATOM     13  C   UNL     1      -1.613   0.652   0.594  0.00  0.00    +0.000 A 
ATOM     14  C   UNL     1      -2.616   1.069   1.435  0.00  0.00    +0.000 A 
ATOM     15  C   UNL     1      -3.887   0.598   1.275  0.00  0.00    +0.000 A 
ATOM     16  C   UNL     1      -4.926   1.100   2.231  0.00  0.00    +0.000 C 
ATOM     17  C   UNL     1      -4.177  -0.293   0.280  0.00  0.00    +0.000 A 
ATOM     18  C   UNL     1      -3.164  -0.704  -0.557  0.00  0.00    +0.000 A 
ENDBRANCH  10  12
ENDBRANCH   6  10
TORSDOF 3
