REMARK  Name = 
REMARK  2 active torsions:
REMARK  status: ('A' for Active; 'I' for Inactive)
REMARK    1  A    between atoms: C_2  and  C_3
REMARK    2  A    between atoms: C_3  and  N_4
REMARK                            x       y       z     vdW  Elec       q    Type
REMARK                         _______ _______ _______ _____ _____    ______ ____
ROOT
ATOM      1  N   UNL     1       3.612   0.724  -0.269  0.00  0.00    +0.000 N 
ATOM      2  C   UNL     1       4.853   1.510  -0.369  0.00  0.00    +0.000 C 
ATOM      3  C   UNL     1       2.891   0.743  -1.506  0.00  0.00    +0.000 C 
ATOM      4  C   UNL     1       1.509   1.271  -1.345  0.00  0.00    +0.000 C 
ATOM      5  N   UNL     1       0.840   0.675  -0.216  0.00  0.00    +0.000 N 
ATOM      6  C   UNL     1      -0.531   0.272  -0.281  0.00  0.00    +0.000 A 
ATOM      7  N   UNL     1      -1.129  -0.384  -1.278  0.00  0.00    +0.000 NA
ATOM      8  C   UNL     1      -2.425  -0.558  -0.922  0.00  0.00    +0.000 A 
ATOM      9  C   UNL     1      -3.510  -1.151  -1.524  0.00  0.00    +0.000 A 
ATOM     10  C   UNL     1      -4.743  -1.182  -0.913  0.00  0.00    +0.000 A 
ATOM     11  C   UNL     1      -4.906  -0.611   0.321  0.00  0.00    +0.000 A 
ATOM     12  O   UNL     1      -6.104  -0.594   1.007  0.00  0.00    +0.000 OA
ATOM     13  C   UNL     1      -3.836  -0.007   0.952  0.00  0.00    +0.000 A 
ATOM     14  C   UNL     1      -2.591   0.017   0.326  0.00  0.00    +0.000 A 
ATOM     15  O   UNL     1      -1.424   0.495   0.649  0.00  0.00    +0.000 OA
ATOM     16  C   UNL     1       1.611   0.486   1.002  0.00  0.00    +0.000 C 
ATOM     17  C   UNL     1       2.890   1.272   0.839  0.00  0.00    +0.000 C 
ENDROOT
BRANCH   1  18
ATOM     18  C   UNL     1       3.922  -0.668   0.012  0.00  0.00    +0.000 C 
BRANCH  18  20
ATOM     19  C   UNL     1       4.601   0.296   2.139  0.00  0.00    +0.000 C 
ATOM     20  C   UNL     1       4.470  -0.775   1.376  0.00  0.00    +0.000 C 
ENDBRANCH  18  20
ENDBRANCH   1  18
TORSDOF 2
