REMARK  Name = 
REMARK  2 active torsions:
REMARK  status: ('A' for Active; 'I' for Inactive)
REMARK    1  A    between atoms: N_6  and  C_7
REMARK    2  A    between atoms: C_12  and  N_13
REMARK                            x       y       z     vdW  Elec       q    Type
REMARK                         _______ _______ _______ _____ _____    ______ ____
ROOT
ATOM      1  C   UNL     1      -0.518   0.557   0.670  0.00  0.00    +0.000 A 
ATOM      2  C   UNL     1      -1.132   0.754   1.879  0.00  0.00    +0.000 A 
ATOM      3  C   UNL     1      -0.492   0.423   3.047  0.00  0.00    +0.000 A 
ATOM      4  C   UNL     1       0.772  -0.113   3.083  0.00  0.00    +0.000 A 
ATOM      5  C   UNL     1       1.413  -0.319   1.865  0.00  0.00    +0.000 A 
ATOM      6  C   UNL     1       0.746   0.023   0.692  0.00  0.00    +0.000 A 
ENDROOT
BRANCH   1  12
ATOM      7  C   UNL     1      -2.972  -1.903  -0.495  0.00  0.00    +0.000 C 
ATOM      8  N   UNL     1      -2.946  -0.486  -0.256  0.00  0.00    +0.000 N 
ATOM      9  C   UNL     1      -3.722   0.056   0.829  0.00  0.00    +0.000 C 
ATOM     10  C   UNL     1      -2.182   0.399  -1.057  0.00  0.00    +0.000 C 
ATOM     11  N   UNL     1      -2.602   0.814  -2.352  0.00  0.00    +0.000 NA
ATOM     12  N   UNL     1      -1.087   0.838  -0.583  0.00  0.00    +0.000 NA
ENDBRANCH   1  12
BRANCH   6  13
ATOM     13  N   UNL     1       1.488  -0.210  -0.516  0.00  0.00    +0.000 N 
ATOM     14  C   UNL     1       1.126  -1.256  -1.450  0.00  0.00    +0.000 C 
ATOM     15  C   UNL     1       2.156  -2.378  -1.336  0.00  0.00    +0.000 C 
ATOM     16  S   UNL     1       3.797  -1.590  -1.443  0.00  0.00    +0.000 S 
ATOM     17  C   UNL     1       3.526   0.163  -1.828  0.00  0.00    +0.000 C 
ATOM     18  C   UNL     1       2.629   0.694  -0.749  0.00  0.00    +0.000 C 
ENDBRANCH   6  13
TORSDOF 2
