REMARK  Name = 
REMARK  2 active torsions:
REMARK  status: ('A' for Active; 'I' for Inactive)
REMARK    1  A    between atoms: C_2  and  C_3
REMARK    2  A    between atoms: C_13  and  C_14
REMARK                            x       y       z     vdW  Elec       q    Type
REMARK                         _______ _______ _______ _____ _____    ______ ____
ROOT
ATOM      1  C   UNL     1      -0.406  -0.642   1.431  0.00  0.00    +0.000 C 
ATOM      2  C   UNL     1      -1.054   0.350   1.922  0.00  0.00    +0.000 C 
ATOM      3  N   UNL     1      -1.001   0.662   3.360  0.00  0.00    +0.000 NA
ATOM      4  O   UNL     1      -1.857   1.226   1.196  0.00  0.00    +0.000 OA
ATOM      5  C   UNL     1      -1.904   0.928  -0.157  0.00  0.00    +0.000 C 
ATOM      6  C   UNL     1      -1.291  -0.043  -0.741  0.00  0.00    +0.000 C 
ATOM      7  C   UNL     1      -1.486  -0.185  -2.251  0.00  0.00    +0.000 C 
ATOM      8  C   UNL     1      -2.944  -0.234  -2.481  0.00  0.00    +0.000 C 
ATOM      9  C   UNL     1      -3.684   0.911  -1.879  0.00  0.00    +0.000 C 
ATOM     10  C   UNL     1      -2.741   1.792  -1.090  0.00  0.00    +0.000 C 
ATOM     11  C   UNL     1      -0.415  -1.014  -0.012  0.00  0.00    +0.000 C 
ENDROOT
BRANCH  11  12
ATOM     12  C   UNL     1       1.042  -0.745  -0.479  0.00  0.00    +0.000 A 
ATOM     13  C   UNL     1       1.792  -1.533  -1.259  0.00  0.00    +0.000 A 
ATOM     14  C   UNL     1       3.076  -1.184  -1.605  0.00  0.00    +0.000 A 
ATOM     15  C   UNL     1       3.615  -0.019  -1.157  0.00  0.00    +0.000 A 
ATOM     16  C   UNL     1       2.881   0.823  -0.353  0.00  0.00    +0.000 A 
ATOM     17  F   UNL     1       3.429   1.980   0.086  0.00  0.00    +0.000 F 
ATOM     18  C   UNL     1       1.574   0.421  -0.028  0.00  0.00    +0.000 A 
ENDBRANCH  11  12
BRANCH   1  20
ATOM     19  N   UNL     1       1.002  -2.066   3.118  0.00  0.00    +0.000 NA
ATOM     20  C   UNL     1       0.373  -1.427   2.378  0.00  0.00    +0.000 C 
ENDBRANCH   1  20
TORSDOF 2
