REMARK  Name = 
REMARK  4 active torsions:
REMARK  status: ('A' for Active; 'I' for Inactive)
REMARK    1  A    between atoms: C_6  and  C_7
REMARK    2  A    between atoms: C_7  and  C_9
REMARK    3  A    between atoms: C_9  and  O_10
REMARK    4  A    between atoms: O_10  and  C_11
REMARK                            x       y       z     vdW  Elec       q    Type
REMARK                         _______ _______ _______ _____ _____    ______ ____
ROOT
ATOM      1  C   UNL     1      -0.043   0.638   0.011  0.00  0.00    +0.000 C 
ATOM      2  O   UNL     1       0.615   0.882  -1.019  0.00  0.00    +0.000 OA
ENDROOT
BRANCH   1   8
ATOM      3  C   UNL     1      -5.797   0.264  -0.171  0.00  0.00    +0.000 C 
ATOM      4  C   UNL     1      -4.306   0.361  -0.124  0.00  0.00    +0.000 A 
ATOM      5  C   UNL     1      -3.606   0.186   1.052  0.00  0.00    +0.000 A 
ATOM      6  C   UNL     1      -2.232   0.271   1.120  0.00  0.00    +0.000 A 
ATOM      7  C   UNL     1      -1.552   0.071   2.417  0.00  0.00    +0.000 C 
ATOM      8  C   UNL     1      -1.493   0.540  -0.012  0.00  0.00    +0.000 A 
ATOM      9  C   UNL     1      -2.216   0.715  -1.194  0.00  0.00    +0.000 A 
ATOM     10  C   UNL     1      -3.583   0.631  -1.267  0.00  0.00    +0.000 A 
ATOM     11  C   UNL     1      -4.330   0.821  -2.537  0.00  0.00    +0.000 C 
ENDBRANCH   1   8
BRANCH   1  12
ATOM     12  C   UNL     1       0.645   0.440   1.301  0.00  0.00    +0.000 C 
BRANCH  12  13
ATOM     13  O   UNL     1       2.029   0.538   1.258  0.00  0.00    +0.000 OA
BRANCH  13  14
ATOM     14  C   UNL     1       2.782  -0.314   0.468  0.00  0.00    +0.000 A 
ATOM     15  C   UNL     1       2.167  -1.268  -0.282  0.00  0.00    +0.000 A 
ATOM     16  C   UNL     1       2.852  -2.160  -1.099  0.00  0.00    +0.000 A 
ATOM     17  C   UNL     1       4.232  -2.045  -1.129  0.00  0.00    +0.000 A 
ATOM     18  C   UNL     1       4.863  -1.083  -0.375  0.00  0.00    +0.000 A 
ATOM     19  C   UNL     1       4.151  -0.223   0.418  0.00  0.00    +0.000 A 
ATOM     20  O   UNL     1       4.823   0.733   1.164  0.00  0.00    +0.000 OA
ENDBRANCH  13  14
ENDBRANCH  12  13
ENDBRANCH   1  12
TORSDOF 4
