REMARK  Name = 
REMARK  3 active torsions:
REMARK  status: ('A' for Active; 'I' for Inactive)
REMARK    1  A    between atoms: O_2  and  C_3
REMARK    2  A    between atoms: C_8  and  O_9
REMARK    3  A    between atoms: C_11  and  C_12
REMARK                            x       y       z     vdW  Elec       q    Type
REMARK                         _______ _______ _______ _____ _____    ______ ____
ROOT
ATOM      1  C   UNL     1      -2.813   0.124  -0.146  0.00  0.00    +0.000 A 
ATOM      2  C   UNL     1      -2.252   1.372  -0.240  0.00  0.00    +0.000 A 
ATOM      3  C   UNL     1      -0.871   1.571  -0.056  0.00  0.00    +0.000 A 
ATOM      4  C   UNL     1      -0.116   0.487   0.220  0.00  0.00    +0.000 A 
ATOM      5  C   UNL     1      -0.626  -0.745   0.319  0.00  0.00    +0.000 A 
ATOM      6  C   UNL     1      -1.979  -0.935   0.137  0.00  0.00    +0.000 A 
ATOM      7  C   UNL     1       1.427   0.740   0.517  0.00  0.00    +0.000 C 
ATOM      8  C   UNL     1       1.716   1.754  -0.731  0.00  0.00    +0.000 C 
ATOM      9  C   UNL     1       1.073   2.991  -0.135  0.00  0.00    +0.000 C 
ATOM     10  O   UNL     1       1.762   3.859   0.352  0.00  0.00    +0.000 OA
ATOM     11  N   UNL     1      -0.349   2.924  -0.256  0.00  0.00    +0.000 NA
ENDROOT
BRANCH   7  12
ATOM     12  C   UNL     1       2.052  -0.546  -0.114  0.00  0.00    +0.000 A 
ATOM     13  S   UNL     1       1.976  -1.225  -1.641  0.00  0.00    +0.000 S 
ATOM     14  C   UNL     1       2.974  -2.617  -1.379  0.00  0.00    +0.000 A 
ATOM     15  C   UNL     1       3.315  -2.465  -0.086  0.00  0.00    +0.000 A 
ATOM     16  C   UNL     1       2.840  -1.385   0.591  0.00  0.00    +0.000 A 
ATOM     17  C   UNL     1       3.224  -1.212   2.049  0.00  0.00    +0.000 C 
ENDBRANCH   7  12
BRANCH   1  19
ATOM     18  C   UNL     1      -5.063   0.959  -0.615  0.00  0.00    +0.000 C 
ATOM     19  O   UNL     1      -4.159  -0.092  -0.322  0.00  0.00    +0.000 OA
ENDBRANCH   1  19
BRANCH   6  20
ATOM     20  O   UNL     1      -2.490  -2.240   0.246  0.00  0.00    +0.000 OA
ATOM     21  C   UNL     1      -1.639  -3.317   0.533  0.00  0.00    +0.000 C 
ENDBRANCH   6  20
TORSDOF 3
