REMARK  Name = 
REMARK  3 active torsions:
REMARK  status: ('A' for Active; 'I' for Inactive)
REMARK    1  A    between atoms: C_2  and  O_3
REMARK    2  A    between atoms: O_3  and  C_4
REMARK    3  A    between atoms: C_10  and  C_11
REMARK                            x       y       z     vdW  Elec       q    Type
REMARK                         _______ _______ _______ _____ _____    ______ ____
ROOT
ATOM      1  C   UNL     1      -2.848   0.351  -0.083  0.00  0.00    +0.000 A 
ATOM      2  C   UNL     1      -3.388  -0.144   1.086  0.00  0.00    +0.000 A 
ATOM      3  C   UNL     1      -2.602  -0.689   2.084  0.00  0.00    +0.000 A 
ATOM      4  C   UNL     1      -1.236  -0.730   1.885  0.00  0.00    +0.000 A 
ATOM      5  N   UNL     1      -0.234  -1.253   2.615  0.00  0.00    +0.000 NA
ATOM      6  C   UNL     1       0.911  -1.110   1.963  0.00  0.00    +0.000 A 
ATOM      7  C   UNL     1       0.687  -0.456   0.733  0.00  0.00    +0.000 A 
ATOM      8  C   UNL     1      -0.649  -0.239   0.722  0.00  0.00    +0.000 A 
ATOM      9  C   UNL     1      -1.482   0.282  -0.209  0.00  0.00    +0.000 A 
ENDROOT
BRANCH   7  10
ATOM     10  C   UNL     1       1.739  -0.051  -0.225  0.00  0.00    +0.000 A 
ATOM     11  N   UNL     1       3.017  -0.104   0.155  0.00  0.00    +0.000 NA
ATOM     12  C   UNL     1       3.968   0.265  -0.660  0.00  0.00    +0.000 A 
ATOM     13  N   UNL     1       5.369   0.205  -0.365  0.00  0.00    +0.000 NA
ATOM     14  C   UNL     1       6.320   0.596  -1.377  0.00  0.00    +0.000 C 
ATOM     15  S   UNL     1       3.115   0.734  -2.056  0.00  0.00    +0.000 S 
ATOM     16  C   UNL     1       1.504   0.410  -1.486  0.00  0.00    +0.000 A 
ATOM     17  C   UNL     1       0.238   0.641  -2.256  0.00  0.00    +0.000 C 
ENDBRANCH   7  10
BRANCH   1  18
ATOM     18  O   UNL     1      -3.700   0.886  -1.075  0.00  0.00    +0.000 OA
BRANCH  18  20
ATOM     19  C   UNL     1      -5.630  -0.487  -0.621  0.00  0.00    +0.000 C 
ATOM     20  C   UNL     1      -5.097   0.889  -0.829  0.00  0.00    +0.000 C 
ENDBRANCH  18  20
ENDBRANCH   1  18
TORSDOF 3
