REMARK  Name = 
REMARK  2 active torsions:
REMARK  status: ('A' for Active; 'I' for Inactive)
REMARK    1  A    between atoms: C_4  and  N_5
REMARK    2  A    between atoms: C_6  and  C_8
REMARK                            x       y       z     vdW  Elec       q    Type
REMARK                         _______ _______ _______ _____ _____    ______ ____
ROOT
ATOM      1  N   UNL     1       0.133  -0.514   0.153  0.00  0.00    +0.000 NA
ATOM      2  C   UNL     1      -0.719   0.550  -0.247  0.00  0.00    +0.000 C 
ATOM      3  O   UNL     1      -0.176   1.625  -0.604  0.00  0.00    +0.000 OA
ENDROOT
BRANCH   1   7
ATOM      4  C   UNL     1       4.147   2.179  -0.646  0.00  0.00    +0.000 C 
ATOM      5  C   UNL     1       3.519   0.917  -0.228  0.00  0.00    +0.000 A 
ATOM      6  C   UNL     1       2.136   0.763  -0.223  0.00  0.00    +0.000 A 
ATOM      7  C   UNL     1       1.536  -0.403   0.163  0.00  0.00    +0.000 A 
ATOM      8  C   UNL     1       2.311  -1.457   0.558  0.00  0.00    +0.000 A 
ATOM      9  C   UNL     1       1.687  -2.757   0.989  0.00  0.00    +0.000 C 
ATOM     10  C   UNL     1       3.680  -1.331   0.562  0.00  0.00    +0.000 A 
ATOM     11  C   UNL     1       4.266  -0.154   0.172  0.00  0.00    +0.000 A 
ATOM     12  O   UNL     1       5.658  -0.090   0.198  0.00  0.00    +0.000 OA
ENDBRANCH   1   7
BRANCH   2  13
ATOM     13  C   UNL     1      -2.157   0.357  -0.231  0.00  0.00    +0.000 A 
ATOM     14  C   UNL     1      -3.024   1.363  -0.612  0.00  0.00    +0.000 A 
ATOM     15  C   UNL     1      -4.388   1.158  -0.588  0.00  0.00    +0.000 A 
ATOM     16  C   UNL     1      -4.948  -0.037  -0.191  0.00  0.00    +0.000 A 
ATOM     17 BR   UNL     1      -6.847  -0.286  -0.170  0.00  0.00    +0.000 Br
ATOM     18  C   UNL     1      -4.088  -1.047   0.192  0.00  0.00    +0.000 A 
ATOM     19  C   UNL     1      -2.725  -0.836   0.166  0.00  0.00    +0.000 A 
ENDBRANCH   2  13
TORSDOF 2
