REMARK  Name = 
REMARK  2 active torsions:
REMARK  status: ('A' for Active; 'I' for Inactive)
REMARK    1  A    between atoms: C_5  and  N_6
REMARK    2  A    between atoms: C_7  and  C_9
REMARK                            x       y       z     vdW  Elec       q    Type
REMARK                         _______ _______ _______ _____ _____    ______ ____
ROOT
ATOM      1  C   UNL     1       4.105  -1.725   1.927  0.00  0.00    +0.000 C 
ATOM      2  C   UNL     1       3.314  -0.936   0.959  0.00  0.00    +0.000 A 
ATOM      3  N   UNL     1       1.972  -0.845   0.922  0.00  0.00    +0.000 NA
ATOM      4  C   UNL     1       1.599  -0.041  -0.091  0.00  0.00    +0.000 A 
ATOM      5  C   UNL     1       0.364   0.355  -0.527  0.00  0.00    +0.000 A 
ATOM      6  C   UNL     1       0.286   1.202  -1.614  0.00  0.00    +0.000 A 
ATOM      7  C   UNL     1       1.415   1.655  -2.265  0.00  0.00    +0.000 A 
ATOM      8  C   UNL     1       2.666   1.262  -1.835  0.00  0.00    +0.000 A 
ATOM      9  C   UNL     1       2.732   0.414  -0.746  0.00  0.00    +0.000 A 
ATOM     10  C   UNL     1       3.799  -0.160  -0.071  0.00  0.00    +0.000 A 
ATOM     11  C   UNL     1       5.235   0.020  -0.390  0.00  0.00    +0.000 C 
ENDROOT
BRANCH   5  12
ATOM     12  N   UNL     1      -0.843  -0.092   0.122  0.00  0.00    +0.000 NA
ATOM     13  C   UNL     1      -2.100   0.321  -0.334  0.00  0.00    +0.000 C 
ATOM     14  O   UNL     1      -2.151   1.093  -1.326  0.00  0.00    +0.000 OA
BRANCH  13  15
ATOM     15  C   UNL     1      -3.338  -0.123   0.313  0.00  0.00    +0.000 A 
ATOM     16  C   UNL     1      -3.543  -0.941   1.379  0.00  0.00    +0.000 A 
ATOM     17  C   UNL     1      -4.793  -1.177   1.759  0.00  0.00    +0.000 A 
ATOM     18  C   UNL     1      -5.799  -0.580   1.050  0.00  0.00    +0.000 A 
ATOM     19  S   UNL     1      -4.921   0.299  -0.135  0.00  0.00    +0.000 S 
ENDBRANCH  13  15
ENDBRANCH   5  12
TORSDOF 2
