REMARK  Name = 
REMARK  3 active torsions:
REMARK  status: ('A' for Active; 'I' for Inactive)
REMARK    1  A    between atoms: O_2  and  C_3
REMARK    2  A    between atoms: C_9  and  N_10
REMARK    3  A    between atoms: C_18  and  C_19
REMARK                            x       y       z     vdW  Elec       q    Type
REMARK                         _______ _______ _______ _____ _____    ______ ____
ROOT
ATOM      1  N   UNL     1       0.308   0.013  -0.569  0.00  0.00    +0.000 NA
ATOM      2  C   UNL     1      -0.977  -0.031   0.027  0.00  0.00    +0.000 A 
ATOM      3  N   UNL     1      -1.192  -0.045   1.339  0.00  0.00    +0.000 NA
ATOM      4  C   UNL     1      -2.443  -0.088   1.849  0.00  0.00    +0.000 A 
ATOM      5  C   UNL     1      -2.667  -0.104   3.331  0.00  0.00    +0.000 C 
ATOM      6  C   UNL     1      -3.543  -0.117   1.022  0.00  0.00    +0.000 A 
ATOM      7  C   UNL     1      -3.356  -0.103  -0.344  0.00  0.00    +0.000 A 
ATOM      8  C   UNL     1      -4.535  -0.134  -1.272  0.00  0.00    +0.000 C 
ATOM      9  C   UNL     1      -2.060  -0.059  -0.837  0.00  0.00    +0.000 A 
ENDROOT
BRANCH   1  16
ATOM     10  C   UNL     1       2.703   0.088  -0.551  0.00  0.00    +0.000 A 
ATOM     11  C   UNL     1       3.936   0.122   0.061  0.00  0.00    +0.000 A 
ATOM     12  C   UNL     1       4.019   0.117   1.431  0.00  0.00    +0.000 A 
ATOM     13  C   UNL     1       2.854   0.076   2.155  0.00  0.00    +0.000 A 
ATOM     14  C   UNL     1       2.956   0.070   3.638  0.00  0.00    +0.000 C 
ATOM     15  C   UNL     1       1.608   0.041   1.528  0.00  0.00    +0.000 A 
ATOM     16  C   UNL     1       1.516   0.046   0.151  0.00  0.00    +0.000 A 
BRANCH  10  18
ATOM     17  C   UNL     1       3.820   0.136  -2.730  0.00  0.00    +0.000 C 
ATOM     18  O   UNL     1       2.656   0.095  -1.959  0.00  0.00    +0.000 OA
ENDBRANCH  10  18
ENDBRANCH   1  16
BRANCH   9  19
ATOM     19  C   UNL     1      -1.878  -0.045  -2.288  0.00  0.00    +0.000 C 
ATOM     20  N   UNL     1      -2.988  -0.074  -3.172  0.00  0.00    +0.000 NA
ATOM     21  O   UNL     1      -0.735  -0.006  -2.809  0.00  0.00    +0.000 OA
ENDBRANCH   9  19
TORSDOF 3
