REMARK  Name = 
REMARK  2 active torsions:
REMARK  status: ('A' for Active; 'I' for Inactive)
REMARK    1  A    between atoms: C_4  and  N_5
REMARK    2  A    between atoms: N_5  and  N_6
REMARK                            x       y       z     vdW  Elec       q    Type
REMARK                         _______ _______ _______ _____ _____    ______ ____
ROOT
ATOM      1  N   UNL     1       0.695  -1.127  -0.982  0.00  0.00    +0.000 NA
ATOM      2  C   UNL     1      -0.482  -0.807  -0.553  0.00  0.00    +0.000 A 
ATOM      3  C   UNL     1      -0.705  -0.954   0.800  0.00  0.00    +0.000 A 
ATOM      4  C   UNL     1      -1.950  -0.621   1.284  0.00  0.00    +0.000 A 
ATOM      5  C   UNL     1      -2.917  -0.157   0.407  0.00  0.00    +0.000 A 
ATOM      6  C   UNL     1      -4.154   0.172   0.901  0.00  0.00    +0.000 A 
ATOM      7  C   UNL     1      -5.136   0.636   0.053  0.00  0.00    +0.000 A 
ATOM      8  C   UNL     1      -4.909   0.781  -1.296  0.00  0.00    +0.000 A 
ATOM      9  C   UNL     1      -3.669   0.448  -1.775  0.00  0.00    +0.000 A 
ATOM     10  C   UNL     1      -2.675  -0.017  -0.942  0.00  0.00    +0.000 A 
ATOM     11  N   UNL     1      -1.452  -0.349  -1.392  0.00  0.00    +0.000 NA
ENDROOT
BRANCH   1  12
ATOM     12  N   UNL     1       1.700  -1.601  -0.115  0.00  0.00    +0.000 NA
BRANCH  12  16
ATOM     13  C   UNL     1       3.292   2.834   0.198  0.00  0.00    +0.000 C 
ATOM     14  C   UNL     1       3.631   1.466   1.096  0.00  0.00    +0.000 C 
ATOM     15  C   UNL     1       2.395   0.646   0.442  0.00  0.00    +0.000 C 
ATOM     16  C   UNL     1       2.626  -0.666   0.409  0.00  0.00    +0.000 C 
ATOM     17  C   UNL     1       3.907  -1.204   0.939  0.00  0.00    +0.000 C 
ATOM     18  C   UNL     1       5.099  -0.398   0.529  0.00  0.00    +0.000 C 
ATOM     19  C   UNL     1       4.703   0.916  -0.064  0.00  0.00    +0.000 C 
ENDBRANCH  12  16
ENDBRANCH   1  12
TORSDOF 2
