REMARK  Name = 
REMARK  5 active torsions:
REMARK  status: ('A' for Active; 'I' for Inactive)
REMARK    1  A    between atoms: C_2  and  O_3
REMARK    2  A    between atoms: O_3  and  C_4
REMARK    3  A    between atoms: C_10  and  C_11
REMARK    4  A    between atoms: C_13  and  C_14
REMARK    5  A    between atoms: C_17  and  O_18
REMARK                            x       y       z     vdW  Elec       q    Type
REMARK                         _______ _______ _______ _____ _____    ______ ____
ROOT
ATOM      1  C   UNL     1      -1.620  -0.802  -0.528  0.00  0.00    +0.000 C 
ATOM      2  C   UNL     1      -2.201  -1.097   0.562  0.00  0.00    +0.000 C 
ATOM      3  C   UNL     1      -2.662  -2.542   0.845  0.00  0.00    +0.000 C 
ATOM      4  O   UNL     1      -2.469  -0.196   1.561  0.00  0.00    +0.000 OA
ATOM      5  C   UNL     1      -2.071   1.109   1.345  0.00  0.00    +0.000 C 
ATOM      6  N   UNL     1      -2.341   2.063   2.374  0.00  0.00    +0.000 NA
ATOM      7  C   UNL     1      -1.476   1.510   0.275  0.00  0.00    +0.000 C 
ATOM      8  C   UNL     1      -1.121   0.587  -0.919  0.00  0.00    +0.000 C 
ENDROOT
BRANCH   8   9
ATOM      9  C   UNL     1       0.444   0.377  -0.570  0.00  0.00    +0.000 A 
ATOM     10  C   UNL     1       1.333   0.853  -1.486  0.00  0.00    +0.000 A 
ATOM     11  C   UNL     1       2.687   0.669  -1.179  0.00  0.00    +0.000 A 
ATOM     12  C   UNL     1       3.052   0.039  -0.007  0.00  0.00    +0.000 A 
ATOM     13  C   UNL     1       2.100  -0.419   0.878  0.00  0.00    +0.000 A 
ATOM     14  C   UNL     1       0.755  -0.239   0.577  0.00  0.00    +0.000 A 
BRANCH  12  15
ATOM     15  O   UNL     1       4.393  -0.146   0.303  0.00  0.00    +0.000 OA
ATOM     16  C   UNL     1       4.820  -0.781   1.481  0.00  0.00    +0.000 C 
ENDBRANCH  12  15
ENDBRANCH   8   9
BRANCH   7  17
ATOM     17  C   UNL     1      -1.092   2.873   0.116  0.00  0.00    +0.000 C 
ATOM     18  N   UNL     1      -0.763   3.982  -0.005  0.00  0.00    +0.000 NA
ENDBRANCH   7  17
BRANCH   1  19
ATOM     19  O   UNL     1      -1.389  -1.780  -1.488  0.00  0.00    +0.000 OA
BRANCH  19  21
ATOM     20  C   UNL     1      -0.131  -3.444  -0.235  0.00  0.00    +0.000 C 
ATOM     21  C   UNL     1      -0.247  -2.615  -1.475  0.00  0.00    +0.000 C 
ENDBRANCH  19  21
ENDBRANCH   1  19
TORSDOF 5
