REMARK  Name = 
REMARK  3 active torsions:
REMARK  status: ('A' for Active; 'I' for Inactive)
REMARK    1  A    between atoms: C_2  and  C_12
REMARK    2  A    between atoms: N_3  and  N_4
REMARK    3  A    between atoms: N_4  and  C_5
REMARK                            x       y       z     vdW  Elec       q    Type
REMARK                         _______ _______ _______ _____ _____    ______ ____
ROOT
ATOM      1  O   UNL     1      -0.553   0.867   1.125  0.00  0.00    +0.000 OA
ATOM      2  C   UNL     1      -1.151   0.163   0.279  0.00  0.00    +0.000 C 
ATOM      3  N   UNL     1      -0.362  -0.505  -0.733  0.00  0.00    +0.000 NA
ENDROOT
BRANCH   2   4
ATOM      4  C   UNL     1      -2.591   0.026   0.322  0.00  0.00    +0.000 A 
ATOM      5  C   UNL     1      -3.156  -1.131  -0.132  0.00  0.00    +0.000 A 
ATOM      6  C   UNL     1      -4.549  -1.318  -0.132  0.00  0.00    +0.000 A 
ATOM      7  C   UNL     1      -5.314  -0.280   0.350  0.00  0.00    +0.000 A 
ATOM      8  C   UNL     1      -4.735   0.879   0.805  0.00  0.00    +0.000 A 
ATOM      9  C   UNL     1      -3.366   1.059   0.803  0.00  0.00    +0.000 A 
ATOM     10 BR   UNL     1      -2.485   2.615   1.429  0.00  0.00    +0.000 Br
ENDBRANCH   2   4
BRANCH   3  11
ATOM     11  N   UNL     1       0.982  -0.339  -0.734  0.00  0.00    +0.000 NA
BRANCH  11  12
ATOM     12  C   UNL     1       2.029  -1.187  -0.364  0.00  0.00    +0.000 C 
ATOM     13  C   UNL     1       3.259  -0.843  -0.637  0.00  0.00    +0.000 C 
ATOM     14  C   UNL     1       3.524   0.435  -1.330  0.00  0.00    +0.000 C 
ATOM     15  C   UNL     1       4.076   1.374  -0.262  0.00  0.00    +0.000 C 
ATOM     16  C   UNL     1       4.575   0.519   0.890  0.00  0.00    +0.000 C 
ATOM     17  C   UNL     1       5.402  -0.668   0.395  0.00  0.00    +0.000 C 
ATOM     18  C   UNL     1       4.416  -1.667  -0.261  0.00  0.00    +0.000 C 
ENDBRANCH  11  12
ENDBRANCH   3  11
TORSDOF 3
