REMARK  Name = 
REMARK  6 active torsions:
REMARK  status: ('A' for Active; 'I' for Inactive)
REMARK    1  A    between atoms: C_2  and  C_3
REMARK    2  A    between atoms: C_2  and  N_8
REMARK    3  A    between atoms: C_3  and  C_4
REMARK    4  A    between atoms: C_4  and  C_5
REMARK    5  A    between atoms: N_8  and  N_9
REMARK    6  A    between atoms: C_10  and  C_12
REMARK                            x       y       z     vdW  Elec       q    Type
REMARK                         _______ _______ _______ _____ _____    ______ ____
ROOT
ATOM      1  N   UNL     1      -0.081   0.874  -0.074  0.00  0.00    +0.000 NA
ATOM      2  C   UNL     1      -1.080   0.200  -0.806  0.00  0.00    +0.000 C 
ATOM      3  O   UNL     1      -0.775  -0.394  -1.853  0.00  0.00    +0.000 OA
ENDROOT
BRANCH   2   4
ATOM      4  C   UNL     1      -2.443   0.203  -0.340  0.00  0.00    +0.000 A 
ATOM      5  C   UNL     1      -3.341   1.182  -0.685  0.00  0.00    +0.000 A 
ATOM      6  C   UNL     1      -4.640   1.201  -0.231  0.00  0.00    +0.000 A 
ATOM      7  C   UNL     1      -5.101   0.215   0.606  0.00  0.00    +0.000 A 
ATOM      8  C   UNL     1      -4.221  -0.783   0.968  0.00  0.00    +0.000 A 
ATOM      9  C   UNL     1      -2.926  -0.785   0.505  0.00  0.00    +0.000 A 
ATOM     10 CL   UNL     1      -1.765  -2.059   0.934  0.00  0.00    +0.000 Cl
ENDBRANCH   2   4
BRANCH   1  11
ATOM     11  N   UNL     1       1.250   0.813  -0.590  0.00  0.00    +0.000 NA
BRANCH  11  13
ATOM     12  C   UNL     1       1.884  -1.418  -1.210  0.00  0.00    +0.000 C 
ATOM     13  C   UNL     1       1.855  -0.472  -0.311  0.00  0.00    +0.000 C 
BRANCH  13  14
ATOM     14  C   UNL     1       2.400  -0.645   1.054  0.00  0.00    +0.000 C 
BRANCH  14  15
ATOM     15  C   UNL     1       3.588   0.303   1.228  0.00  0.00    +0.000 C 
BRANCH  15  16
ATOM     16  C   UNL     1       4.585  -0.154   0.151  0.00  0.00    +0.000 C 
ATOM     17  C   UNL     1       5.851   0.658   0.160  0.00  0.00    +0.000 C 
ATOM     18  C   UNL     1       4.962  -1.596   0.494  0.00  0.00    +0.000 C 
ENDBRANCH  15  16
ENDBRANCH  14  15
ENDBRANCH  13  14
ENDBRANCH  11  13
ENDBRANCH   1  11
TORSDOF 6
