REMARK  Name = 
REMARK  2 active torsions:
REMARK  status: ('A' for Active; 'I' for Inactive)
REMARK    1  A    between atoms: C_2  and  C_4
REMARK    2  A    between atoms: C_10  and  C_12
REMARK                            x       y       z     vdW  Elec       q    Type
REMARK                         _______ _______ _______ _____ _____    ______ ____
ROOT
ATOM      1  C   UNL     1       2.719   1.055   0.536  0.00  0.00    +0.000 A 
ATOM      2  C   UNL     1       2.887  -0.065   1.320  0.00  0.00    +0.000 A 
ATOM      3  C   UNL     1       1.889  -0.981   1.516  0.00  0.00    +0.000 A 
ATOM      4  C   UNL     1       0.634  -0.790   0.902  0.00  0.00    +0.000 A 
ATOM      5  C   UNL     1       0.440   0.313   0.119  0.00  0.00    +0.000 A 
ATOM      6  C   UNL     1       1.499   1.229  -0.053  0.00  0.00    +0.000 A 
ATOM      7  C   UNL     1      -0.844   0.563  -0.544  0.00  0.00    +0.000 C 
ATOM      8  O   UNL     1      -1.365   1.786  -0.045  0.00  0.00    +0.000 OA
ATOM      9  C   UNL     1      -1.860  -0.460  -0.287  0.00  0.00    +0.000 A 
ATOM     10  C   UNL     1      -3.103  -0.259  -0.902  0.00  0.00    +0.000 A 
ATOM     11  C   UNL     1      -4.148  -1.143  -0.745  0.00  0.00    +0.000 A 
ATOM     12  C   UNL     1      -3.950  -2.261   0.049  0.00  0.00    +0.000 A 
ATOM     13  C   UNL     1      -2.739  -2.467   0.655  0.00  0.00    +0.000 A 
ATOM     14  C   UNL     1      -1.703  -1.582   0.494  0.00  0.00    +0.000 A 
ATOM     15  C   UNL     1      -0.406  -1.797   1.140  0.00  0.00    +0.000 C 
ATOM     16  O   UNL     1      -0.192  -2.797   1.864  0.00  0.00    +0.000 OA
ENDROOT
BRANCH   1  18
ATOM     17  C   UNL     1       3.768   2.572  -1.090  0.00  0.00    +0.000 C 
ATOM     18  C   UNL     1       3.838   2.043   0.342  0.00  0.00    +0.000 C 
ATOM     19  C   UNL     1       5.183   1.363   0.482  0.00  0.00    +0.000 C 
ENDBRANCH   1  18
BRANCH   7  20
ATOM     20  C   UNL     1      -0.692   0.761  -2.039  0.00  0.00    +0.000 C 
ATOM     21  C   UNL     1       0.204   1.939  -2.356  0.00  0.00    +0.000 C 
ATOM     22  C   UNL     1      -2.059   0.977  -2.646  0.00  0.00    +0.000 C 
ENDBRANCH   7  20
TORSDOF 2
