REMARK  Name = 
REMARK  3 active torsions:
REMARK  status: ('A' for Active; 'I' for Inactive)
REMARK    1  A    between atoms: C_2  and  C_13
REMARK    2  A    between atoms: N_3  and  N_4
REMARK    3  A    between atoms: C_5  and  C_6
REMARK                            x       y       z     vdW  Elec       q    Type
REMARK                         _______ _______ _______ _____ _____    ______ ____
ROOT
ATOM      1  O   UNL     1       0.673  -0.884  -0.380  0.00  0.00    +0.000 OA
ATOM      2  C   UNL     1       0.981   0.303  -0.659  0.00  0.00    +0.000 C 
ATOM      3  N   UNL     1      -0.058   1.264  -0.714  0.00  0.00    +0.000 NA
ENDROOT
BRANCH   2   4
ATOM      4  C   UNL     1       2.394   0.695  -0.926  0.00  0.00    +0.000 A 
ATOM      5  C   UNL     1       2.658   1.628  -1.886  0.00  0.00    +0.000 A 
ATOM      6  S   UNL     1       4.355   1.759  -1.846  0.00  0.00    +0.000 S 
ATOM      7  C   UNL     1       4.687   0.630  -0.616  0.00  0.00    +0.000 A 
ATOM      8  C   UNL     1       3.446   0.174  -0.264  0.00  0.00    +0.000 A 
ATOM      9  C   UNL     1       3.462  -0.872   0.845  0.00  0.00    +0.000 C 
ATOM     10  C   UNL     1       4.497  -1.895   0.411  0.00  0.00    +0.000 C 
ATOM     11  C   UNL     1       5.871  -1.317   0.394  0.00  0.00    +0.000 C 
ATOM     12  C   UNL     1       5.942   0.131   0.044  0.00  0.00    +0.000 C 
ENDBRANCH   2   4
BRANCH   3  13
ATOM     13  N   UNL     1      -1.386   0.974  -0.479  0.00  0.00    +0.000 NA
ATOM     14  C   UNL     1      -1.868   0.509   0.613  0.00  0.00    +0.000 C 
BRANCH  14  15
ATOM     15  C   UNL     1      -3.311   0.260   0.685  0.00  0.00    +0.000 A 
ATOM     16  C   UNL     1      -4.140   0.514  -0.387  0.00  0.00    +0.000 A 
ATOM     17  C   UNL     1      -5.496   0.277  -0.311  0.00  0.00    +0.000 A 
ATOM     18  C   UNL     1      -6.084  -0.223   0.833  0.00  0.00    +0.000 A 
ATOM     19  O   UNL     1      -7.462  -0.462   0.904  0.00  0.00    +0.000 OA
ATOM     20  C   UNL     1      -5.259  -0.479   1.908  0.00  0.00    +0.000 A 
ATOM     21  C   UNL     1      -3.902  -0.241   1.832  0.00  0.00    +0.000 A 
ENDBRANCH  14  15
ENDBRANCH   3  13
TORSDOF 3
