REMARK  Name = 
REMARK  4 active torsions:
REMARK  status: ('A' for Active; 'I' for Inactive)
REMARK    1  A    between atoms: N_2  and  C_4
REMARK    2  A    between atoms: C_7  and  C_8
REMARK    3  A    between atoms: C_8  and  N_9
REMARK    4  A    between atoms: N_9  and  C_10
REMARK                            x       y       z     vdW  Elec       q    Type
REMARK                         _______ _______ _______ _____ _____    ______ ____
ROOT
ATOM      1  N   UNL     1      -0.154  -0.238   0.454  0.00  0.00    +0.000 NA
ENDROOT
BRANCH   1   2
ATOM      2  C   UNL     1      -1.578  -0.266   0.376  0.00  0.00    +0.000 A 
ATOM      3  C   UNL     1      -2.341  -0.798   1.409  0.00  0.00    +0.000 A 
ATOM      4  C   UNL     1      -3.717  -0.821   1.325  0.00  0.00    +0.000 A 
ATOM      5  C   UNL     1      -4.392  -0.321   0.224  0.00  0.00    +0.000 A 
ATOM      6  C   UNL     1      -3.649   0.207  -0.802  0.00  0.00    +0.000 A 
ATOM      7  C   UNL     1      -2.268   0.227  -0.713  0.00  0.00    +0.000 A 
ATOM      8  O   UNL     1      -4.325   0.709  -1.908  0.00  0.00    +0.000 OA
ATOM      9  C   UNL     1      -5.689   1.083  -1.849  0.00  0.00    +0.000 C 
ATOM     10  C   UNL     1      -6.439  -0.020  -1.101  0.00  0.00    +0.000 C 
ATOM     11  O   UNL     1      -5.761  -0.326   0.104  0.00  0.00    +0.000 OA
ENDBRANCH   1   2
BRANCH   1  12
ATOM     12  C   UNL     1       0.567   0.335  -0.666  0.00  0.00    +0.000 C 
BRANCH  12  16
ATOM     13  C   UNL     1       4.703  -0.012   0.310  0.00  0.00    +0.000 A 
ATOM     14  C   UNL     1       4.056  -1.026  -0.371  0.00  0.00    +0.000 A 
ATOM     15  C   UNL     1       2.722  -0.892  -0.675  0.00  0.00    +0.000 A 
ATOM     16  C   UNL     1       2.027   0.231  -0.312  0.00  0.00    +0.000 A 
ATOM     17  C   UNL     1       2.670   1.234   0.361  0.00  0.00    +0.000 A 
ATOM     18  C   UNL     1       4.004   1.097   0.664  0.00  0.00    +0.000 A 
BRANCH  13  20
ATOM     19  O   UNL     1       6.756  -1.135   0.324  0.00  0.00    +0.000 OA
ATOM     20  N   UNL     1       6.079  -0.135   0.630  0.00  0.00    +0.000 N 
ATOM     21  O   UNL     1       6.730   0.867   1.306  0.00  0.00    +0.000 OA
ENDBRANCH  13  20
ENDBRANCH  12  16
ENDBRANCH   1  12
TORSDOF 4
