REMARK  Name = 
REMARK  2 active torsions:
REMARK  status: ('A' for Active; 'I' for Inactive)
REMARK    1  A    between atoms: C_4  and  C_6
REMARK    2  A    between atoms: C_11  and  C_13
REMARK                            x       y       z     vdW  Elec       q    Type
REMARK                         _______ _______ _______ _____ _____    ______ ____
ROOT
ATOM      1  C   UNL     1      -1.816   3.324  -1.617  0.00  0.00    +0.000 C 
ATOM      2  C   UNL     1      -1.656   1.916  -1.133  0.00  0.00    +0.000 C 
ATOM      3  C   UNL     1      -2.564   0.979  -0.995  0.00  0.00    +0.000 C 
ATOM      4  C   UNL     1      -1.960  -0.272  -0.477  0.00  0.00    +0.000 C 
ATOM      5  O   UNL     1      -2.217  -1.268  -1.401  0.00  0.00    +0.000 OA
ATOM      6  N   UNL     1      -0.566   0.018  -0.362  0.00  0.00    +0.000 N 
ATOM      7  C   UNL     1       0.517  -0.821   0.042  0.00  0.00    +0.000 C 
ATOM      8  O   UNL     1       0.327  -2.032   0.368  0.00  0.00    +0.000 OA
ATOM      9  N   UNL     1      -0.411   1.372  -0.753  0.00  0.00    +0.000 NA
ENDROOT
BRANCH   7  10
ATOM     10  C   UNL     1       1.862  -0.269   0.079  0.00  0.00    +0.000 A 
ATOM     11  C   UNL     1       2.080   1.044  -0.272  0.00  0.00    +0.000 A 
ATOM     12  C   UNL     1       3.358   1.591  -0.243  0.00  0.00    +0.000 A 
ATOM     13  C   UNL     1       4.407   0.802   0.141  0.00  0.00    +0.000 A 
ATOM     14  C   UNL     1       4.232  -0.519   0.501  0.00  0.00    +0.000 A 
ATOM     15  C   UNL     1       2.952  -1.024   0.460  0.00  0.00    +0.000 A 
ATOM     16  O   UNL     1       2.758  -2.353   0.819  0.00  0.00    +0.000 OA
ENDBRANCH   7  10
BRANCH   4  17
ATOM     17  C   UNL     1      -2.642  -0.567   0.845  0.00  0.00    +0.000 C 
ATOM     18  C   UNL     1      -2.141  -1.819   1.503  0.00  0.00    +0.000 C 
ATOM     19  C   UNL     1      -4.127  -0.678   0.671  0.00  0.00    +0.000 C 
ATOM     20  C   UNL     1      -2.394   0.577   1.822  0.00  0.00    +0.000 C 
ENDBRANCH   4  17
TORSDOF 2
