REMARK  Name = 
REMARK  4 active torsions:
REMARK  status: ('A' for Active; 'I' for Inactive)
REMARK    1  A    between atoms: C_2  and  N_3
REMARK    2  A    between atoms: C_2  and  C_13
REMARK    3  A    between atoms: N_3  and  N_4
REMARK    4  A    between atoms: C_5  and  C_7
REMARK                            x       y       z     vdW  Elec       q    Type
REMARK                         _______ _______ _______ _____ _____    ______ ____
ROOT
ATOM      1  N   UNL     1      -0.686  -2.250  -0.153  0.00  0.00    +0.000 NA
ENDROOT
BRANCH   1   2
ATOM      2  N   UNL     1       0.737  -2.104  -0.003  0.00  0.00    +0.000 NA
ATOM      3  C   UNL     1       1.293  -0.774  -0.093  0.00  0.00    +0.000 C 
ATOM      4  O   UNL     1       0.454   0.138  -0.308  0.00  0.00    +0.000 OA
BRANCH   3   5
ATOM      5  C   UNL     1       2.707  -0.454   0.050  0.00  0.00    +0.000 C 
ATOM      6  C   UNL     1       3.609  -1.204  -0.865  0.00  0.00    +0.000 C 
ATOM      7  C   UNL     1       5.065  -0.888  -0.684  0.00  0.00    +0.000 C 
ATOM      8  C   UNL     1       5.294   0.491  -0.106  0.00  0.00    +0.000 C 
ATOM      9  C   UNL     1       4.184   1.414  -0.629  0.00  0.00    +0.000 C 
ATOM     10  C   UNL     1       2.940   1.011   0.116  0.00  0.00    +0.000 C 
ENDBRANCH   3   5
ENDBRANCH   1   2
BRANCH   1  12
ATOM     11  C   UNL     1      -1.246  -1.639   2.037  0.00  0.00    +0.000 C 
ATOM     12  C   UNL     1      -1.418  -1.383   0.749  0.00  0.00    +0.000 C 
BRANCH  12  13
ATOM     13  C   UNL     1      -2.246  -0.298   0.275  0.00  0.00    +0.000 A 
ATOM     14  C   UNL     1      -2.648   0.667   1.197  0.00  0.00    +0.000 A 
ATOM     15  C   UNL     1      -3.439   1.731   0.817  0.00  0.00    +0.000 A 
ATOM     16  C   UNL     1      -3.848   1.860  -0.480  0.00  0.00    +0.000 A 
ATOM     17  F   UNL     1      -4.627   2.923  -0.838  0.00  0.00    +0.000 F 
ATOM     18  C   UNL     1      -3.461   0.912  -1.419  0.00  0.00    +0.000 A 
ATOM     19  C   UNL     1      -2.663  -0.154  -1.016  0.00  0.00    +0.000 A 
ENDBRANCH  12  13
ENDBRANCH   1  12
TORSDOF 4
