REMARK  Name = 
REMARK  3 active torsions:
REMARK  status: ('A' for Active; 'I' for Inactive)
REMARK    1  A    between atoms: C_5  and  C_6
REMARK    2  A    between atoms: N_7  and  C_8
REMARK    3  A    between atoms: C_11  and  N_12
REMARK                            x       y       z     vdW  Elec       q    Type
REMARK                         _______ _______ _______ _____ _____    ______ ____
ROOT
ATOM      1  C   UNL     1      -0.003   1.692  -0.954  0.00  0.00    +0.000 A 
ATOM      2  C   UNL     1       0.335   1.892   0.369  0.00  0.00    +0.000 A 
ATOM      3  C   UNL     1       1.171   1.013   1.025  0.00  0.00    +0.000 A 
ATOM      4  C   UNL     1       1.715  -0.107   0.410  0.00  0.00    +0.000 A 
ATOM      5  C   UNL     1       1.371  -0.299  -0.911  0.00  0.00    +0.000 A 
ATOM      6  C   UNL     1       0.536   0.579  -1.568  0.00  0.00    +0.000 A 
ENDROOT
BRANCH   4   7
ATOM      7  N   UNL     1       2.575  -1.002   1.101  0.00  0.00    +0.000 N 
ATOM      8  C   UNL     1       2.966  -0.847   2.483  0.00  0.00    +0.000 C 
ATOM      9  C   UNL     1       4.273  -1.558   2.742  0.00  0.00    +0.000 C 
ATOM     10  C   UNL     1       5.153  -1.357   1.521  0.00  0.00    +0.000 C 
ATOM     11  C   UNL     1       4.600  -2.185   0.383  0.00  0.00    +0.000 C 
ATOM     12  C   UNL     1       3.090  -2.139   0.372  0.00  0.00    +0.000 C 
ENDBRANCH   4   7
BRANCH   1  14
ATOM     13  C   UNL     1      -2.106   2.377  -1.681  0.00  0.00    +0.000 C 
ATOM     14  N   UNL     1      -0.857   2.571  -1.669  0.00  0.00    +0.000 NA
BRANCH  13  19
ATOM     15  O   UNL     1      -4.667  -1.894   1.004  0.00  0.00    +0.000 OA
ATOM     16  C   UNL     1      -4.024  -0.846   0.346  0.00  0.00    +0.000 A 
ATOM     17  C   UNL     1      -4.723   0.094  -0.393  0.00  0.00    +0.000 A 
ATOM     18  C   UNL     1      -4.071   1.125  -1.037  0.00  0.00    +0.000 A 
ATOM     19  C   UNL     1      -2.679   1.256  -0.964  0.00  0.00    +0.000 A 
ATOM     20  C   UNL     1      -2.003   0.329  -0.236  0.00  0.00    +0.000 A 
ATOM     21  C   UNL     1      -2.651  -0.693   0.402  0.00  0.00    +0.000 A 
ENDBRANCH  13  19
ENDBRANCH   1  14
TORSDOF 3
