REMARK  Name = 
REMARK  5 active torsions:
REMARK  status: ('A' for Active; 'I' for Inactive)
REMARK    1  A    between atoms: C_2  and  N_3
REMARK    2  A    between atoms: C_2  and  C_13
REMARK    3  A    between atoms: N_3  and  C_4
REMARK    4  A    between atoms: C_4  and  N_6
REMARK    5  A    between atoms: N_6  and  C_7
REMARK                            x       y       z     vdW  Elec       q    Type
REMARK                         _______ _______ _______ _____ _____    ______ ____
ROOT
ATOM      1  N   UNL     1      -0.801  -1.086   0.742  0.00  0.00    +0.000 NA
ENDROOT
BRANCH   1   3
ATOM      2  C   UNL     1      -0.278   0.960  -0.320  0.00  0.00    +0.000 C 
ATOM      3  C   UNL     1      -1.064   0.435   1.057  0.00  0.00    +0.000 C 
BRANCH   3   4
ATOM      4  C   UNL     1      -2.559   0.439   0.452  0.00  0.00    +0.000 A 
ATOM      5  C   UNL     1      -3.380  -0.591   0.847  0.00  0.00    +0.000 A 
ATOM      6  C   UNL     1      -4.677  -0.637   0.363  0.00  0.00    +0.000 A 
ATOM      7  N   UNL     1      -5.086   0.325  -0.475  0.00  0.00    +0.000 NA
ATOM      8  C   UNL     1      -4.272   1.317  -0.846  0.00  0.00    +0.000 A 
ATOM      9  C   UNL     1      -2.983   1.369  -0.369  0.00  0.00    +0.000 A 
ENDBRANCH   3   4
ENDBRANCH   1   3
BRANCH   1  10
ATOM     10  C   UNL     1       0.579  -1.371   0.667  0.00  0.00    +0.000 C 
ATOM     11  S   UNL     1       1.026  -2.918   0.344  0.00  0.00    +0.000 S 
BRANCH  10  12
ATOM     12  N   UNL     1       1.510  -0.348   0.865  0.00  0.00    +0.000 NA
BRANCH  12  13
ATOM     13  C   UNL     1       2.934  -0.464   0.824  0.00  0.00    +0.000 C 
ATOM     14  C   UNL     1       3.313  -0.955  -0.558  0.00  0.00    +0.000 C 
ATOM     15  C   UNL     1       4.556  -0.295  -1.088  0.00  0.00    +0.000 C 
ATOM     16  C   UNL     1       4.395   1.207  -1.226  0.00  0.00    +0.000 C 
ATOM     17  C   UNL     1       3.282   1.685  -0.293  0.00  0.00    +0.000 C 
ATOM     18  C   UNL     1       3.504   0.928   1.020  0.00  0.00    +0.000 C 
ENDBRANCH  12  13
ENDBRANCH  10  12
ENDBRANCH   1  10
TORSDOF 5
