REMARK  Name = 
REMARK  7 active torsions:
REMARK  status: ('A' for Active; 'I' for Inactive)
REMARK    1  A    between atoms: C_2  and  N_3
REMARK    2  A    between atoms: N_3  and  C_4
REMARK    3  A    between atoms: C_4  and  N_6
REMARK    4  A    between atoms: N_6  and  C_7
REMARK    5  A    between atoms: C_8  and  C_9
REMARK    6  A    between atoms: C_9  and  O_11
REMARK    7  A    between atoms: O_11  and  C_12
REMARK                            x       y       z     vdW  Elec       q    Type
REMARK                         _______ _______ _______ _____ _____    ______ ____
ROOT
ATOM      1  C   UNL     1      -0.269  -0.302   0.353  0.00  0.00    +0.000 A 
ATOM      2  C   UNL     1       1.026  -0.688   0.096  0.00  0.00    +0.000 A 
ATOM      3  N   UNL     1       1.045  -2.001  -0.180  0.00  0.00    +0.000 NA
ATOM      4  C   UNL     1      -0.211  -2.467  -0.106  0.00  0.00    +0.000 A 
ATOM      5  C   UNL     1      -0.760  -3.744  -0.297  0.00  0.00    +0.000 A 
ATOM      6  C   UNL     1      -2.105  -3.969  -0.160  0.00  0.00    +0.000 A 
ATOM      7  C   UNL     1      -2.944  -2.932   0.170  0.00  0.00    +0.000 A 
ATOM      8  C   UNL     1      -2.399  -1.686   0.354  0.00  0.00    +0.000 A 
ATOM      9  C   UNL     1      -1.034  -1.434   0.221  0.00  0.00    +0.000 A 
ENDROOT
BRANCH   2  10
ATOM     10  C   UNL     1       2.208   0.199   0.119  0.00  0.00    +0.000 C 
ATOM     11  O   UNL     1       2.119   1.413   0.384  0.00  0.00    +0.000 OA
BRANCH  10  12
ATOM     12  O   UNL     1       3.460  -0.316  -0.159  0.00  0.00    +0.000 OA
BRANCH  12  13
ATOM     13  C   UNL     1       4.626   0.521  -0.144  0.00  0.00    +0.000 C 
ATOM     14  C   UNL     1       4.705   1.077   1.257  0.00  0.00    +0.000 C 
ENDBRANCH  12  13
ENDBRANCH  10  12
ENDBRANCH   2  10
BRANCH   1  15
ATOM     15  N   UNL     1      -0.692   0.989   0.685  0.00  0.00    +0.000 NA
BRANCH  15  16
ATOM     16  C   UNL     1      -1.087   2.008  -0.211  0.00  0.00    +0.000 C 
ATOM     17  S   UNL     1      -1.108   1.825  -1.828  0.00  0.00    +0.000 S 
BRANCH  16  18
ATOM     18  N   UNL     1      -1.486   3.255   0.321  0.00  0.00    +0.000 NA
BRANCH  18  20
ATOM     19  C   UNL     1      -3.201   3.933  -1.196  0.00  0.00    +0.000 C 
ATOM     20  C   UNL     1      -1.893   4.316  -0.547  0.00  0.00    +0.000 C 
ENDBRANCH  18  20
ENDBRANCH  16  18
ENDBRANCH  15  16
ENDBRANCH   1  15
TORSDOF 7
