REMARK  Name = 
REMARK  5 active torsions:
REMARK  status: ('A' for Active; 'I' for Inactive)
REMARK    1  A    between atoms: C_2  and  O_3
REMARK    2  A    between atoms: O_3  and  C_4
REMARK    3  A    between atoms: C_4  and  C_6
REMARK    4  A    between atoms: C_6  and  N_7
REMARK    5  A    between atoms: C_11  and  C_12
REMARK                            x       y       z     vdW  Elec       q    Type
REMARK                         _______ _______ _______ _____ _____    ______ ____
ROOT
ATOM      1  N   UNL     1       0.950   0.134  -1.264  0.00  0.00    +0.000 N 
ATOM      2  N   UNL     1       0.254  -0.843  -1.834  0.00  0.00    +0.000 NA
ATOM      3  C   UNL     1      -0.981  -0.920  -1.328  0.00  0.00    +0.000 A 
ATOM      4  C   UNL     1      -1.983  -1.917  -1.782  0.00  0.00    +0.000 C 
ATOM      5  C   UNL     1      -1.098   0.066  -0.367  0.00  0.00    +0.000 A 
ATOM      6  C   UNL     1       0.123   0.705  -0.352  0.00  0.00    +0.000 A 
ATOM      7  N   UNL     1       0.397   1.789   0.526  0.00  0.00    +0.000 NA
ENDROOT
BRANCH   5   8
ATOM      8  C   UNL     1      -2.287   0.333   0.421  0.00  0.00    +0.000 A 
ATOM      9  C   UNL     1      -2.642  -0.422   1.522  0.00  0.00    +0.000 A 
ATOM     10  C   UNL     1      -3.774  -0.164   2.261  0.00  0.00    +0.000 A 
ATOM     11  C   UNL     1      -4.633   0.879   1.942  0.00  0.00    +0.000 A 
ATOM     12  C   UNL     1      -4.288   1.646   0.838  0.00  0.00    +0.000 A 
ATOM     13  C   UNL     1      -3.156   1.382   0.105  0.00  0.00    +0.000 A 
ENDBRANCH   5   8
BRANCH   1  14
ATOM     14  C   UNL     1       2.296   0.557  -1.533  0.00  0.00    +0.000 C 
BRANCH  14  15
ATOM     15  C   UNL     1       3.220  -0.168  -0.639  0.00  0.00    +0.000 C 
ATOM     16  O   UNL     1       3.639  -1.335  -0.909  0.00  0.00    +0.000 OA
BRANCH  15  17
ATOM     17  O   UNL     1       3.639   0.451   0.520  0.00  0.00    +0.000 OA
BRANCH  17  19
ATOM     18  C   UNL     1       5.780  -0.564   0.516  0.00  0.00    +0.000 C 
ATOM     19  C   UNL     1       4.543  -0.281   1.360  0.00  0.00    +0.000 C 
ENDBRANCH  17  19
ENDBRANCH  15  17
ENDBRANCH  14  15
ENDBRANCH   1  14
TORSDOF 5
