REMARK  Name = 
REMARK  3 active torsions:
REMARK  status: ('A' for Active; 'I' for Inactive)
REMARK    1  A    between atoms: O_2  and  C_3
REMARK    2  A    between atoms: C_10  and  N_11
REMARK    3  A    between atoms: N_11  and  C_12
REMARK                            x       y       z     vdW  Elec       q    Type
REMARK                         _______ _______ _______ _____ _____    ______ ____
ROOT
ATOM      1  C   UNL     1      -3.403   0.401   0.325  0.00  0.00    +0.000 A 
ATOM      2  C   UNL     1      -2.904   0.890  -0.866  0.00  0.00    +0.000 A 
ATOM      3  C   UNL     1      -1.831   0.269  -1.473  0.00  0.00    +0.000 A 
ATOM      4  C   UNL     1      -1.263  -0.872  -0.845  0.00  0.00    +0.000 A 
ATOM      5  C   UNL     1      -1.735  -1.353   0.301  0.00  0.00    +0.000 A 
ATOM      6  C   UNL     1      -2.818  -0.710   0.895  0.00  0.00    +0.000 A 
ATOM      7  C   UNL     1      -0.987  -2.505   0.696  0.00  0.00    +0.000 C 
ATOM      8  C   UNL     1       0.507  -2.229   0.057  0.00  0.00    +0.000 C 
ATOM      9  C   UNL     1      -0.149  -1.597  -1.353  0.00  0.00    +0.000 C 
ENDROOT
BRANCH   1  11
ATOM     10  C   UNL     1      -5.098   2.182   0.349  0.00  0.00    +0.000 C 
ATOM     11  O   UNL     1      -4.487   1.042   0.922  0.00  0.00    +0.000 OA
ENDBRANCH   1  11
BRANCH   8  12
ATOM     12  N   UNL     1       0.623  -0.794   0.723  0.00  0.00    +0.000 NA
BRANCH  12  13
ATOM     13  C   UNL     1       1.844  -0.149   0.413  0.00  0.00    +0.000 A 
ATOM     14  C   UNL     1       2.056   1.125   0.948  0.00  0.00    +0.000 A 
ATOM     15  C   UNL     1       3.220   1.792   0.679  0.00  0.00    +0.000 A 
ATOM     16  C   UNL     1       4.214   1.255  -0.111  0.00  0.00    +0.000 A 
ATOM     17  O   UNL     1       5.377   1.973  -0.354  0.00  0.00    +0.000 OA
ATOM     18  C   UNL     1       4.004  -0.018  -0.646  0.00  0.00    +0.000 A 
ATOM     19  C   UNL     1       2.830  -0.701  -0.380  0.00  0.00    +0.000 A 
ENDBRANCH  12  13
ENDBRANCH   8  12
TORSDOF 3
