REMARK  Name = 
REMARK  4 active torsions:
REMARK  status: ('A' for Active; 'I' for Inactive)
REMARK    1  A    between atoms: C_2  and  O_4
REMARK    2  A    between atoms: O_4  and  C_5
REMARK    3  A    between atoms: C_5  and  C_7
REMARK    4  A    between atoms: C_11  and  C_12
REMARK                            x       y       z     vdW  Elec       q    Type
REMARK                         _______ _______ _______ _____ _____    ______ ____
ROOT
ATOM      1  C   UNL     1      -1.389  -1.378  -0.161  0.00  0.00    +0.000 A 
ATOM      2  C   UNL     1      -1.134  -2.710   0.063  0.00  0.00    +0.000 A 
ATOM      3  C   UNL     1       0.187  -3.146   0.193  0.00  0.00    +0.000 A 
ATOM      4  C   UNL     1       1.247  -2.268   0.102  0.00  0.00    +0.000 A 
ATOM      5  C   UNL     1       0.996  -0.934  -0.123  0.00  0.00    +0.000 A 
ATOM      6  C   UNL     1      -0.329  -0.504  -0.252  0.00  0.00    +0.000 A 
ENDROOT
BRANCH   5   7
ATOM      7  C   UNL     1       2.071   0.052  -0.230  0.00  0.00    +0.000 A 
ATOM      8  C   UNL     1       1.920   1.160  -1.039  0.00  0.00    +0.000 A 
ATOM      9  C   UNL     1       2.917   2.115  -1.165  0.00  0.00    +0.000 A 
ATOM     10  C   UNL     1       4.108   1.993  -0.481  0.00  0.00    +0.000 A 
ATOM     11  N   UNL     1       5.127   2.976  -0.614  0.00  0.00    +0.000 NA
ATOM     12  C   UNL     1       4.254   0.883   0.325  0.00  0.00    +0.000 A 
ATOM     13  C   UNL     1       3.263  -0.069   0.453  0.00  0.00    +0.000 A 
ENDBRANCH   5   7
BRANCH   1  14
ATOM     14  C   UNL     1      -2.732  -0.834  -0.308  0.00  0.00    +0.000 C 
ATOM     15  O   UNL     1      -3.683  -1.661  -0.219  0.00  0.00    +0.000 OA
BRANCH  14  16
ATOM     16  O   UNL     1      -2.962   0.510  -0.533  0.00  0.00    +0.000 OA
BRANCH  16  18
ATOM     17  C   UNL     1      -4.412   2.416  -0.902  0.00  0.00    +0.000 C 
ATOM     18  C   UNL     1      -4.290   0.940  -0.661  0.00  0.00    +0.000 C 
ATOM     19  C   UNL     1      -5.158   0.459   0.466  0.00  0.00    +0.000 C 
ENDBRANCH  16  18
ENDBRANCH  14  16
ENDBRANCH   1  14
TORSDOF 4
