REMARK  Name = 
REMARK  4 active torsions:
REMARK  status: ('A' for Active; 'I' for Inactive)
REMARK    1  A    between atoms: C_2  and  C_3
REMARK    2  A    between atoms: C_9  and  N_10
REMARK    3  A    between atoms: C_11  and  C_13
REMARK    4  A    between atoms: C_18  and  N_19
REMARK                            x       y       z     vdW  Elec       q    Type
REMARK                         _______ _______ _______ _____ _____    ______ ____
ROOT
ATOM      1  N   UNL     1      -1.371  -0.273  -0.312  0.00  0.00    +0.000 NA
ATOM      2  C   UNL     1      -0.223   0.362   0.182  0.00  0.00    +0.000 C 
ATOM      3  O   UNL     1      -0.369   1.528   0.682  0.00  0.00    +0.000 OA
ENDROOT
BRANCH   1  10
ATOM      4  C   UNL     1      -3.458   0.064   0.815  0.00  0.00    +0.000 A 
ATOM      5  C   UNL     1      -4.739   0.604   0.880  0.00  0.00    +0.000 A 
ATOM      6  C   UNL     1      -5.235   1.376  -0.153  0.00  0.00    +0.000 A 
ATOM      7  C   UNL     1      -4.444   1.615  -1.272  0.00  0.00    +0.000 A 
ATOM      8  C   UNL     1      -3.163   1.066  -1.321  0.00  0.00    +0.000 A 
ATOM      9  C   UNL     1      -2.266   1.291  -2.501  0.00  0.00    +0.000 C 
ATOM     10  C   UNL     1      -2.671   0.297  -0.289  0.00  0.00    +0.000 A 
BRANCH   4  12
ATOM     11  C   UNL     1      -2.980  -2.240   1.588  0.00  0.00    +0.000 C 
ATOM     12  C   UNL     1      -2.960  -0.751   1.927  0.00  0.00    +0.000 C 
ENDBRANCH   4  12
ENDBRANCH   1  10
BRANCH   2  13
ATOM     13  C   UNL     1       1.101  -0.246   0.145  0.00  0.00    +0.000 A 
ATOM     14  C   UNL     1       1.219  -1.514  -0.381  0.00  0.00    +0.000 A 
ATOM     15  C   UNL     1       2.447  -2.110  -0.429  0.00  0.00    +0.000 A 
ATOM     16  C   UNL     1       3.560  -1.419   0.058  0.00  0.00    +0.000 A 
ATOM     17  C   UNL     1       4.862  -2.130  -0.029  0.00  0.00    +0.000 C 
ATOM     18  C   UNL     1       3.478  -0.158   0.587  0.00  0.00    +0.000 A 
ATOM     19  C   UNL     1       2.205   0.420   0.621  0.00  0.00    +0.000 A 
BRANCH  18  20
ATOM     20  N   UNL     1       4.634   0.484   1.061  0.00  0.00    +0.000 N 
ATOM     21  O   UNL     1       5.596  -0.131   1.562  0.00  0.00    +0.000 OA
ATOM     22  O   UNL     1       4.775   1.866   0.996  0.00  0.00    +0.000 OA
ENDBRANCH  18  20
ENDBRANCH   2  13
TORSDOF 4
