REMARK  Name = 
REMARK  5 active torsions:
REMARK  status: ('A' for Active; 'I' for Inactive)
REMARK    1  A    between atoms: C_3  and  C_4
REMARK    2  A    between atoms: N_6  and  C_7
REMARK    3  A    between atoms: C_7  and  C_8
REMARK    4  A    between atoms: C_7  and  C_11
REMARK    5  A    between atoms: C_17  and  N_18
REMARK                            x       y       z     vdW  Elec       q    Type
REMARK                         _______ _______ _______ _____ _____    ______ ____
ROOT
ATOM      1  C   UNL     1      -1.022   1.305   0.027  0.00  0.00    +0.000 C 
ATOM      2  C   UNL     1      -1.648  -0.021   0.170  0.00  0.00    +0.000 A 
ATOM      3  C   UNL     1      -0.913  -1.139   0.471  0.00  0.00    +0.000 A 
ATOM      4  C   UNL     1      -1.565  -2.334   0.581  0.00  0.00    +0.000 A 
ATOM      5  C   UNL     1      -2.963  -2.471   0.396  0.00  0.00    +0.000 A 
ATOM      6  C   UNL     1      -3.637  -1.312   0.095  0.00  0.00    +0.000 A 
ATOM      7  C   UNL     1      -3.035  -0.095  -0.023  0.00  0.00    +0.000 A 
ENDROOT
BRANCH   3   8
ATOM      8  C   UNL     1       0.558  -1.070   0.640  0.00  0.00    +0.000 C 
ATOM      9  O   UNL     1       1.164  -1.827   1.402  0.00  0.00    +0.000 OA
ATOM     10  N   UNL     1       1.335  -0.164  -0.046  0.00  0.00    +0.000 NA
BRANCH  10  11
ATOM     11  C   UNL     1       2.541   0.313  -0.296  0.00  0.00    +0.000 C 
BRANCH  11  12
ATOM     12  C   UNL     1       3.785  -0.341   0.027  0.00  0.00    +0.000 C 
ATOM     13  C   UNL     1       4.090  -1.665  -0.530  0.00  0.00    +0.000 C 
ATOM     14  C   UNL     1       4.684   0.269   1.008  0.00  0.00    +0.000 C 
ENDBRANCH  11  12
BRANCH  11  15
ATOM     15  C   UNL     1       2.671   1.815  -0.241  0.00  0.00    +0.000 C 
ATOM     16  C   UNL     1       4.054   2.260  -0.535  0.00  0.00    +0.000 C 
ATOM     17  C   UNL     1       2.115   2.260   1.093  0.00  0.00    +0.000 C 
ENDBRANCH  11  15
ENDBRANCH  10  11
ENDBRANCH   3   8
BRANCH   7  18
ATOM     18  N   UNL     1      -3.833   1.051  -0.315  0.00  0.00    +0.000 N 
ATOM     19  O   UNL     1      -4.923   0.853  -0.962  0.00  0.00    +0.000 OA
ATOM     20  O   UNL     1      -3.457   2.316   0.088  0.00  0.00    +0.000 OA
ENDBRANCH   7  18
TORSDOF 5
