REMARK  Name = 
REMARK  4 active torsions:
REMARK  status: ('A' for Active; 'I' for Inactive)
REMARK    1  A    between atoms: C_2  and  C_3
REMARK    2  A    between atoms: C_3  and  C_4
REMARK    3  A    between atoms: C_6  and  C_7
REMARK    4  A    between atoms: C_7  and  C_9
REMARK                            x       y       z     vdW  Elec       q    Type
REMARK                         _______ _______ _______ _____ _____    ______ ____
ROOT
ATOM      1  C   UNL     1      -2.078   0.466  -0.628  0.00  0.00    +0.000 A 
ATOM      2  C   UNL     1      -0.987   1.232  -0.302  0.00  0.00    +0.000 A 
ATOM      3  C   UNL     1       0.162   0.665   0.252  0.00  0.00    +0.000 A 
ATOM      4  C   UNL     1       0.182  -0.702   0.471  0.00  0.00    +0.000 A 
ATOM      5  O   UNL     1       1.144  -1.471   0.981  0.00  0.00    +0.000 OA
ATOM      6  C   UNL     1       0.720  -2.705   0.998  0.00  0.00    +0.000 A 
ATOM      7  C   UNL     1      -0.562  -2.774   0.488  0.00  0.00    +0.000 A 
ATOM      8  C   UNL     1      -1.451  -3.955   0.308  0.00  0.00    +0.000 C 
ATOM      9  C   UNL     1      -0.907  -1.483   0.148  0.00  0.00    +0.000 A 
ATOM     10  C   UNL     1      -2.024  -0.886  -0.397  0.00  0.00    +0.000 A 
ATOM     11  O   UNL     1      -3.145  -1.667  -0.733  0.00  0.00    +0.000 OA
ENDROOT
BRANCH   3  12
ATOM     12  C   UNL     1       1.283   1.514   0.577  0.00  0.00    +0.000 C 
ATOM     13  O   UNL     1       1.134   2.494   1.327  0.00  0.00    +0.000 OA
BRANCH  12  14
ATOM     14  C   UNL     1       2.596   1.217   0.021  0.00  0.00    +0.000 A 
ATOM     15  C   UNL     1       2.946   0.356  -0.982  0.00  0.00    +0.000 A 
ATOM     16  C   UNL     1       4.236   0.269  -1.305  0.00  0.00    +0.000 A 
ATOM     17  C   UNL     1       5.120   1.044  -0.616  0.00  0.00    +0.000 A 
ATOM     18  S   UNL     1       4.108   1.878   0.474  0.00  0.00    +0.000 S 
ENDBRANCH  12  14
ENDBRANCH   3  12
BRANCH   1  19
ATOM     19  C   UNL     1      -3.287   1.075  -1.212  0.00  0.00    +0.000 C 
BRANCH  19  21
ATOM     20  C   UNL     1      -4.860   2.281   0.266  0.00  0.00    +0.000 C 
ATOM     21  C   UNL     1      -4.329   1.152  -0.137  0.00  0.00    +0.000 C 
ENDBRANCH  19  21
ENDBRANCH   1  19
TORSDOF 4
