REMARK  Name = 
REMARK  2 active torsions:
REMARK  status: ('A' for Active; 'I' for Inactive)
REMARK    1  A    between atoms: C_6  and  N_7
REMARK    2  A    between atoms: N_14  and  C_15
REMARK                            x       y       z     vdW  Elec       q    Type
REMARK                         _______ _______ _______ _____ _____    ______ ____
ROOT
ATOM      1  N   UNL     1      -1.079  -1.242  -0.338  0.00  0.00    +0.000 NA
ATOM      2  C   UNL     1       0.146  -0.587  -0.083  0.00  0.00    +0.000 A 
ATOM      3  N   UNL     1       0.161   0.702   0.269  0.00  0.00    +0.000 NA
ATOM      4  C   UNL     1       1.314   1.335   0.514  0.00  0.00    +0.000 A 
ATOM      5 CL   UNL     1       1.209   3.031   0.969  0.00  0.00    +0.000 Cl
ATOM      6  N   UNL     1       2.467   0.680   0.409  0.00  0.00    +0.000 NA
ATOM      7  C   UNL     1       2.461  -0.616   0.057  0.00  0.00    +0.000 A 
ATOM      8  N   UNL     1       3.693  -1.361  -0.068  0.00  0.00    +0.000 NA
ATOM      9  N   UNL     1       1.306  -1.248  -0.189  0.00  0.00    +0.000 NA
ENDROOT
BRANCH   1  15
ATOM     10  C   UNL     1      -6.031  -1.083  -0.609  0.00  0.00    +0.000 C 
ATOM     11  C   UNL     1      -4.702  -0.469  -0.358  0.00  0.00    +0.000 A 
ATOM     12  C   UNL     1      -4.688   0.862   0.005  0.00  0.00    +0.000 A 
ATOM     13  C   UNL     1      -3.489   1.494   0.253  0.00  0.00    +0.000 A 
ATOM     14  C   UNL     1      -2.305   0.789   0.136  0.00  0.00    +0.000 A 
ATOM     15  C   UNL     1      -2.311  -0.541  -0.226  0.00  0.00    +0.000 A 
ATOM     16  C   UNL     1      -3.523  -1.143  -0.466  0.00  0.00    +0.000 A 
ENDBRANCH   1  15
BRANCH   8  17
ATOM     17  C   UNL     1       4.910  -0.677   0.195  0.00  0.00    +0.000 C 
ATOM     18  C   UNL     1       5.046  -0.110   1.563  0.00  0.00    +0.000 C 
ATOM     19  C   UNL     1       5.414   0.185  -0.905  0.00  0.00    +0.000 C 
ENDBRANCH   8  17
TORSDOF 2
