REMARK  Name = 
REMARK  3 active torsions:
REMARK  status: ('A' for Active; 'I' for Inactive)
REMARK    1  A    between atoms: C_4  and  C_5
REMARK    2  A    between atoms: N_7  and  N_8
REMARK    3  A    between atoms: C_9  and  C_10
REMARK                            x       y       z     vdW  Elec       q    Type
REMARK                         _______ _______ _______ _____ _____    ______ ____
ROOT
ATOM      1  N   UNL     1      -0.170   0.548   0.460  0.00  0.00    +0.000 NA
ATOM      2  C   UNL     1      -0.946   1.534   0.280  0.00  0.00    +0.000 C 
ENDROOT
BRANCH   2   3
ATOM      3  C   UNL     1      -2.402   1.415   0.117  0.00  0.00    +0.000 A 
ATOM      4  C   UNL     1      -3.288   2.436  -0.078  0.00  0.00    +0.000 A 
ATOM      5  N   UNL     1      -4.514   1.916  -0.179  0.00  0.00    +0.000 NA
ATOM      6  C   UNL     1      -4.436   0.581  -0.052  0.00  0.00    +0.000 A 
ATOM      7  C   UNL     1      -5.406  -0.420  -0.080  0.00  0.00    +0.000 A 
ATOM      8  C   UNL     1      -5.038  -1.732   0.080  0.00  0.00    +0.000 A 
ATOM      9  C   UNL     1      -3.717  -2.066   0.267  0.00  0.00    +0.000 A 
ATOM     10  C   UNL     1      -2.733  -1.102   0.299  0.00  0.00    +0.000 A 
ATOM     11  C   UNL     1      -3.116   0.241   0.135  0.00  0.00    +0.000 A 
ENDBRANCH   2   3
BRANCH   1  14
ATOM     12  C   UNL     1       2.126  -0.325   0.167  0.00  0.00    +0.000 C 
ATOM     13  O   UNL     1       1.678  -1.338  -0.415  0.00  0.00    +0.000 OA
ATOM     14  N   UNL     1       1.216   0.638   0.617  0.00  0.00    +0.000 NA
BRANCH  12  18
ATOM     15  C   UNL     1       6.963  -1.735  -0.216  0.00  0.00    +0.000 C 
ATOM     16  C   UNL     1       5.784  -0.880   0.154  0.00  0.00    +0.000 A 
ATOM     17  C   UNL     1       4.462  -1.089  -0.062  0.00  0.00    +0.000 A 
ATOM     18  C   UNL     1       3.596  -0.168   0.367  0.00  0.00    +0.000 A 
ATOM     19  C   UNL     1       4.135   0.932   1.004  0.00  0.00    +0.000 A 
ATOM     20  S   UNL     1       5.806   0.615   0.963  0.00  0.00    +0.000 S 
ENDBRANCH  12  18
ENDBRANCH   1  14
TORSDOF 3
