REMARK  Name = 
REMARK  3 active torsions:
REMARK  status: ('A' for Active; 'I' for Inactive)
REMARK    1  A    between atoms: C_3  and  C_5
REMARK    2  A    between atoms: C_5  and  C_6
REMARK    3  A    between atoms: C_6  and  N_7
REMARK                            x       y       z     vdW  Elec       q    Type
REMARK                         _______ _______ _______ _____ _____    ______ ____
ROOT
ATOM      1  N   UNL     1       0.101   0.220  -0.984  0.00  0.00    +0.000 N 
ATOM      2  C   UNL     1      -0.648  -0.740  -0.462  0.00  0.00    +0.000 A 
ATOM      3  C   UNL     1      -1.685  -0.129   0.247  0.00  0.00    +0.000 A 
ATOM      4  C   UNL     1      -1.555   1.236   0.145  0.00  0.00    +0.000 A 
ATOM      5  C   UNL     1      -2.236   2.332   0.603  0.00  0.00    +0.000 A 
ATOM      6  C   UNL     1      -1.825   3.607   0.308  0.00  0.00    +0.000 A 
ATOM      7  C   UNL     1      -0.708   3.818  -0.462  0.00  0.00    +0.000 A 
ATOM      8  C   UNL     1      -0.026   2.715  -0.921  0.00  0.00    +0.000 A 
ATOM      9  C   UNL     1      -0.433   1.436  -0.629  0.00  0.00    +0.000 A 
ATOM     10  C   UNL     1      -2.789  -0.758   1.012  0.00  0.00    +0.000 C 
ATOM     11  C   UNL     1      -3.050  -2.111   0.417  0.00  0.00    +0.000 C 
ATOM     12  C   UNL     1      -2.127  -3.122   1.074  0.00  0.00    +0.000 C 
ATOM     13  C   UNL     1      -0.682  -2.862   0.739  0.00  0.00    +0.000 C 
ATOM     14  C   UNL     1      -0.503  -2.219  -0.606  0.00  0.00    +0.000 C 
ENDROOT
BRANCH   1  15
ATOM     15  C   UNL     1       1.298   0.108  -1.752  0.00  0.00    +0.000 C 
BRANCH  15  16
ATOM     16  C   UNL     1       2.599   0.286  -1.151  0.00  0.00    +0.000 C 
BRANCH  16  19
ATOM     17  N   UNL     1       4.649  -1.296   1.573  0.00  0.00    +0.000 NA
ATOM     18  N   UNL     1       4.321  -0.418   0.540  0.00  0.00    +0.000 NA
ATOM     19  C   UNL     1       3.004  -0.591  -0.074  0.00  0.00    +0.000 C 
ATOM     20  O   UNL     1       2.296  -1.511   0.385  0.00  0.00    +0.000 OA
ENDBRANCH  16  19
ENDBRANCH  15  16
ENDBRANCH   1  15
TORSDOF 3
