REMARK  Name = 
REMARK  4 active torsions:
REMARK  status: ('A' for Active; 'I' for Inactive)
REMARK    1  A    between atoms: O_2  and  C_3
REMARK    2  A    between atoms: C_6  and  C_7
REMARK    3  A    between atoms: C_7  and  C_8
REMARK    4  A    between atoms: C_19  and  O_20
REMARK                            x       y       z     vdW  Elec       q    Type
REMARK                         _______ _______ _______ _____ _____    ______ ____
ROOT
ATOM      1  C   UNL     1      -1.093  -0.733  -0.368  0.00  0.00    +0.000 C 
ATOM      2  C   UNL     1      -1.436  -1.696   0.723  0.00  0.00    +0.000 C 
ATOM      3  C   UNL     1      -2.820  -2.154   0.352  0.00  0.00    +0.000 C 
ATOM      4  C   UNL     1      -2.977  -1.924  -1.139  0.00  0.00    +0.000 C 
ATOM      5  C   UNL     1      -1.609  -1.415  -1.610  0.00  0.00    +0.000 C 
ENDROOT
BRANCH   1   9
ATOM      6  C   UNL     1       3.050   0.102  -0.425  0.00  0.00    +0.000 A 
ATOM      7  C   UNL     1       2.234   0.566  -1.440  0.00  0.00    +0.000 A 
ATOM      8  C   UNL     1       0.880   0.319  -1.464  0.00  0.00    +0.000 A 
ATOM      9  C   UNL     1       0.345  -0.417  -0.430  0.00  0.00    +0.000 A 
ATOM     10  C   UNL     1       1.159  -0.880   0.582  0.00  0.00    +0.000 A 
ATOM     11  C   UNL     1       2.506  -0.634   0.604  0.00  0.00    +0.000 A 
BRANCH   6  13
ATOM     12  C   UNL     1       5.059   1.095  -1.412  0.00  0.00    +0.000 C 
ATOM     13  O   UNL     1       4.424   0.348  -0.393  0.00  0.00    +0.000 OA
ENDBRANCH   6  13
BRANCH  11  14
ATOM     14  O   UNL     1       3.317  -1.113   1.641  0.00  0.00    +0.000 OA
ATOM     15  C   UNL     1       2.750  -1.862   2.686  0.00  0.00    +0.000 C 
ENDBRANCH  11  14
ENDBRANCH   1   9
BRANCH   1  16
ATOM     16  C   UNL     1      -1.815   0.592  -0.193  0.00  0.00    +0.000 A 
ATOM     17  C   UNL     1      -1.780   1.543  -1.178  0.00  0.00    +0.000 A 
ATOM     18  S   UNL     1      -2.718   2.793  -0.496  0.00  0.00    +0.000 S 
ATOM     19  C   UNL     1      -3.097   2.045   0.985  0.00  0.00    +0.000 A 
ATOM     20  N   UNL     1      -3.889   2.551   2.089  0.00  0.00    +0.000 NA
ATOM     21  N   UNL     1      -2.489   0.876   0.888  0.00  0.00    +0.000 NA
ENDBRANCH   1  16
TORSDOF 4
