REMARK  Name = 
REMARK  3 active torsions:
REMARK  status: ('A' for Active; 'I' for Inactive)
REMARK    1  A    between atoms: C_6  and  C_7
REMARK    2  A    between atoms: C_7  and  N_8
REMARK    3  A    between atoms: C_9  and  C_11
REMARK                            x       y       z     vdW  Elec       q    Type
REMARK                         _______ _______ _______ _____ _____    ______ ____
ROOT
ATOM      1  C   UNL     1      -5.401   2.422   0.614  0.00  0.00    +0.000 C 
ATOM      2  C   UNL     1      -4.319   1.466   0.236  0.00  0.00    +0.000 A 
ATOM      3  C   UNL     1      -3.113   1.706  -0.389  0.00  0.00    +0.000 A 
ATOM      4  C   UNL     1      -2.429   0.505  -0.536  0.00  0.00    +0.000 A 
ATOM      5  C   UNL     1      -1.203   0.153  -1.080  0.00  0.00    +0.000 A 
ATOM      6  C   UNL     1      -0.754  -1.150  -1.097  0.00  0.00    +0.000 A 
ATOM      7  C   UNL     1      -1.585  -2.105  -0.542  0.00  0.00    +0.000 A 
ATOM      8  C   UNL     1      -2.819  -1.760   0.007  0.00  0.00    +0.000 A 
ATOM      9  C   UNL     1      -3.258  -0.451   0.018  0.00  0.00    +0.000 A 
ATOM     10  N   UNL     1      -4.382   0.142   0.473  0.00  0.00    +0.000 NA
ENDROOT
BRANCH   6  11
ATOM     11  C   UNL     1       0.543  -1.583  -1.670  0.00  0.00    +0.000 C 
BRANCH  11  12
ATOM     12  N   UNL     1       1.671  -0.808  -1.309  0.00  0.00    +0.000 NA
ATOM     13  C   UNL     1       2.349  -0.841  -0.067  0.00  0.00    +0.000 C 
ATOM     14  O   UNL     1       1.903  -1.636   0.796  0.00  0.00    +0.000 OA
BRANCH  13  15
ATOM     15  C   UNL     1       3.510  -0.003   0.216  0.00  0.00    +0.000 A 
ATOM     16  C   UNL     1       4.078   0.888  -0.643  0.00  0.00    +0.000 A 
ATOM     17  C   UNL     1       5.137   1.573  -0.226  0.00  0.00    +0.000 A 
ATOM     18  C   UNL     1       5.586   1.335   1.046  0.00  0.00    +0.000 A 
ATOM     19  S   UNL     1       4.487   0.147   1.597  0.00  0.00    +0.000 S 
ENDBRANCH  13  15
ENDBRANCH  11  12
ENDBRANCH   6  11
TORSDOF 3
