REMARK  Name = 
REMARK  3 active torsions:
REMARK  status: ('A' for Active; 'I' for Inactive)
REMARK    1  A    between atoms: C_2  and  O_3
REMARK    2  A    between atoms: O_3  and  C_4
REMARK    3  A    between atoms: C_13  and  C_14
REMARK                            x       y       z     vdW  Elec       q    Type
REMARK                         _______ _______ _______ _____ _____    ______ ____
ROOT
ATOM      1  C   UNL     1      -1.773  -0.751   0.560  0.00  0.00    +0.000 C 
ATOM      2  O   UNL     1      -2.397  -1.269   1.685  0.00  0.00    +0.000 OA
ATOM      3  C   UNL     1      -1.082   0.380   0.729  0.00  0.00    +0.000 C 
ATOM      4  C   UNL     1      -0.964   1.047   1.959  0.00  0.00    +0.000 C 
ATOM      5  C   UNL     1      -1.657   0.369   3.131  0.00  0.00    +0.000 C 
ATOM      6  N   UNL     1      -0.329   2.137   2.104  0.00  0.00    +0.000 NA
ATOM      7  C   UNL     1       0.279   2.666   0.933  0.00  0.00    +0.000 C 
ATOM      8  O   UNL     1       1.005   3.890   1.011  0.00  0.00    +0.000 OA
ATOM      9  N   UNL     1       0.250   2.171  -0.184  0.00  0.00    +0.000 NA
ATOM     10  C   UNL     1      -0.430   0.866  -0.633  0.00  0.00    +0.000 C 
ENDROOT
BRANCH  10  11
ATOM     11  C   UNL     1       0.882  -0.076  -0.619  0.00  0.00    +0.000 A 
ATOM     12  C   UNL     1       2.015   0.403  -1.183  0.00  0.00    +0.000 A 
ATOM     13  C   UNL     1       3.136  -0.395  -1.170  0.00  0.00    +0.000 A 
ATOM     14  C   UNL     1       3.120  -1.646  -0.604  0.00  0.00    +0.000 A 
ATOM     15  O   UNL     1       4.230  -2.470  -0.577  0.00  0.00    +0.000 OA
ATOM     16  C   UNL     1       1.938  -2.090  -0.041  0.00  0.00    +0.000 A 
ATOM     17  C   UNL     1       0.823  -1.283  -0.059  0.00  0.00    +0.000 A 
ENDBRANCH  10  11
BRANCH   1  18
ATOM     18  O   UNL     1      -1.827  -1.325  -0.688  0.00  0.00    +0.000 OA
BRANCH  18  20
ATOM     19  C   UNL     1      -4.208  -1.571  -0.676  0.00  0.00    +0.000 C 
ATOM     20  C   UNL     1      -3.012  -1.051  -1.453  0.00  0.00    +0.000 C 
ENDBRANCH  18  20
ENDBRANCH   1  18
TORSDOF 3
