REMARK  Name = 
REMARK  4 active torsions:
REMARK  status: ('A' for Active; 'I' for Inactive)
REMARK    1  A    between atoms: O_2  and  C_3
REMARK    2  A    between atoms: C_6  and  O_7
REMARK    3  A    between atoms: O_7  and  C_8
REMARK    4  A    between atoms: C_15  and  C_16
REMARK                            x       y       z     vdW  Elec       q    Type
REMARK                         _______ _______ _______ _____ _____    ______ ____
ROOT
ATOM      1  C   UNL     1      -2.799   1.545   0.170  0.00  0.00    +0.000 A 
ATOM      2  C   UNL     1      -1.537   2.097   0.181  0.00  0.00    +0.000 A 
ATOM      3  C   UNL     1      -0.427   1.284   0.095  0.00  0.00    +0.000 A 
ATOM      4  C   UNL     1      -0.547  -0.078  -0.003  0.00  0.00    +0.000 A 
ATOM      5  C   UNL     1      -1.820  -0.612  -0.012  0.00  0.00    +0.000 A 
ATOM      6  C   UNL     1      -2.951   0.186   0.073  0.00  0.00    +0.000 A 
ENDROOT
BRANCH   5   7
ATOM      7  C   UNL     1      -1.936  -2.083  -0.118  0.00  0.00    +0.000 C 
ATOM      8  C   UNL     1      -3.397  -2.447  -0.111  0.00  0.00    +0.000 C 
ATOM      9  C   UNL     1      -1.281  -2.591  -1.407  0.00  0.00    +0.000 C 
ATOM     10  C   UNL     1      -1.200  -2.775   1.026  0.00  0.00    +0.000 C 
ENDBRANCH   5   7
BRANCH   1  12
ATOM     11  C   UNL     1      -3.799   3.708   0.354  0.00  0.00    +0.000 C 
ATOM     12  O   UNL     1      -3.963   2.311   0.254  0.00  0.00    +0.000 OA
ENDBRANCH   1  12
BRANCH   4  13
ATOM     13  O   UNL     1       0.556  -0.924  -0.091  0.00  0.00    +0.000 OA
BRANCH  13  14
ATOM     14  C   UNL     1       1.854  -0.460  -0.087  0.00  0.00    +0.000 A 
ATOM     15  C   UNL     1       2.873  -1.376  -0.179  0.00  0.00    +0.000 A 
ATOM     16  C   UNL     1       4.217  -0.994  -0.182  0.00  0.00    +0.000 A 
ATOM     17  C   UNL     1       4.546   0.341  -0.091  0.00  0.00    +0.000 A 
ATOM     18  N   UNL     1       5.913   0.736  -0.095  0.00  0.00    +0.000 NA
ATOM     19  C   UNL     1       3.514   1.256   0.000  0.00  0.00    +0.000 A 
ATOM     20  C   UNL     1       2.183   0.875   0.003  0.00  0.00    +0.000 A 
ENDBRANCH  13  14
ENDBRANCH   4  13
TORSDOF 4
