REMARK  Name = 
REMARK  4 active torsions:
REMARK  status: ('A' for Active; 'I' for Inactive)
REMARK    1  A    between atoms: C_2  and  C_3
REMARK    2  A    between atoms: C_3  and  N_4
REMARK    3  A    between atoms: C_8  and  C_9
REMARK    4  A    between atoms: C_12  and  C_13
REMARK                            x       y       z     vdW  Elec       q    Type
REMARK                         _______ _______ _______ _____ _____    ______ ____
ROOT
ATOM      1  N   UNL     1      -3.163  -0.142   0.108  0.00  0.00    +0.000 N 
ATOM      2  C   UNL     1      -2.016  -0.792  -0.421  0.00  0.00    +0.000 C 
ATOM      3  O   UNL     1      -2.206  -1.760  -1.199  0.00  0.00    +0.000 OA
ATOM      4  C   UNL     1      -0.639  -0.382  -0.097  0.00  0.00    +0.000 C 
ATOM      5  C   UNL     1       0.409  -1.001  -0.537  0.00  0.00    +0.000 C 
ATOM      6  C   UNL     1      -0.466   0.741   0.806  0.00  0.00    +0.000 C 
ATOM      7  O   UNL     1       0.631   1.198   1.174  0.00  0.00    +0.000 OA
ATOM      8  N   UNL     1      -1.627   1.392   1.335  0.00  0.00    +0.000 NA
ATOM      9  C   UNL     1      -2.925   0.957   0.990  0.00  0.00    +0.000 C 
ATOM     10  S   UNL     1      -4.216   1.724   1.610  0.00  0.00    +0.000 S 
ENDROOT
BRANCH   5  11
ATOM     11  C   UNL     1       1.812  -0.658  -0.271  0.00  0.00    +0.000 A 
ATOM     12  C   UNL     1       2.660  -1.610   0.285  0.00  0.00    +0.000 A 
ATOM     13  C   UNL     1       3.989  -1.357   0.498  0.00  0.00    +0.000 A 
ATOM     14  C   UNL     1       4.557  -0.122   0.165  0.00  0.00    +0.000 A 
ATOM     15  C   UNL     1       3.696   0.796  -0.381  0.00  0.00    +0.000 A 
ATOM     16  C   UNL     1       2.365   0.558  -0.600  0.00  0.00    +0.000 A 
BRANCH  14  17
ATOM     17  C   UNL     1       6.009   0.139   0.408  0.00  0.00    +0.000 C 
ATOM     18  C   UNL     1       6.848  -0.278  -0.777  0.00  0.00    +0.000 C 
ENDBRANCH  14  17
ENDBRANCH   5  11
BRANCH   1  19
ATOM     19  C   UNL     1      -4.516  -0.530  -0.193  0.00  0.00    +0.000 C 
BRANCH  19  21
ATOM     20  C   UNL     1      -6.151   0.948  -1.237  0.00  0.00    +0.000 C 
ATOM     21  C   UNL     1      -5.051   0.178  -1.358  0.00  0.00    +0.000 C 
ENDBRANCH  19  21
ENDBRANCH   1  19
TORSDOF 4
