REMARK  Name = 
REMARK  4 active torsions:
REMARK  status: ('A' for Active; 'I' for Inactive)
REMARK    1  A    between atoms: C_2  and  C_4
REMARK    2  A    between atoms: C_4  and  C_5
REMARK    3  A    between atoms: N_9  and  C_10
REMARK    4  A    between atoms: C_10  and  C_11
REMARK                            x       y       z     vdW  Elec       q    Type
REMARK                         _______ _______ _______ _____ _____    ______ ____
ROOT
ATOM      1  C   UNL     1       2.470  -0.893  -1.048  0.00  0.00    +0.000 C 
ATOM      2  N   UNL     1       1.605  -2.138  -0.669  0.00  0.00    +0.000 NA
ATOM      3  C   UNL     1       0.715  -1.795   0.310  0.00  0.00    +0.000 C 
ATOM      4  O   UNL     1       0.130  -2.576   1.141  0.00  0.00    +0.000 OA
ATOM      5  N   UNL     1       0.523  -0.418   0.279  0.00  0.00    +0.000 N 
ATOM      6  C   UNL     1       1.274   0.160  -0.705  0.00  0.00    +0.000 C 
ATOM      7  O   UNL     1       1.223   1.228  -1.326  0.00  0.00    +0.000 OA
ENDROOT
BRANCH   1   8
ATOM      8  C   UNL     1       3.115  -0.763   0.452  0.00  0.00    +0.000 C 
BRANCH   8  10
ATOM      9  C   UNL     1       3.572   1.701   0.128  0.00  0.00    +0.000 C 
ATOM     10  C   UNL     1       4.019   0.366   0.438  0.00  0.00    +0.000 C 
ATOM     11  C   UNL     1       5.401   0.086   0.766  0.00  0.00    +0.000 C 
ENDBRANCH   8  10
ENDBRANCH   1   8
BRANCH   5  12
ATOM     12  C   UNL     1      -0.363   0.392   1.162  0.00  0.00    +0.000 C 
BRANCH  12  13
ATOM     13  C   UNL     1      -1.707   0.490   0.547  0.00  0.00    +0.000 A 
ATOM     14  C   UNL     1      -2.656   1.203   1.226  0.00  0.00    +0.000 A 
ATOM     15  C   UNL     1      -3.933   1.348   0.731  0.00  0.00    +0.000 A 
ATOM     16  C   UNL     1      -4.229   0.754  -0.471  0.00  0.00    +0.000 A 
ATOM     17 CL   UNL     1      -5.851   0.919  -1.134  0.00  0.00    +0.000 Cl
ATOM     18  C   UNL     1      -3.294   0.032  -1.174  0.00  0.00    +0.000 A 
ATOM     19  C   UNL     1      -2.015  -0.098  -0.652  0.00  0.00    +0.000 A 
ENDBRANCH  12  13
ENDBRANCH   5  12
TORSDOF 4
