REMARK  Name = 
REMARK  2 active torsions:
REMARK  status: ('A' for Active; 'I' for Inactive)
REMARK    1  A    between atoms: C_6  and  N_7
REMARK    2  A    between atoms: C_8  and  C_10
REMARK                            x       y       z     vdW  Elec       q    Type
REMARK                         _______ _______ _______ _____ _____    ______ ____
ROOT
ATOM      1  N   UNL     1      -0.091   0.502   0.102  0.00  0.00    +0.000 NA
ATOM      2  C   UNL     1       0.721  -0.638  -0.096  0.00  0.00    +0.000 C 
ATOM      3  O   UNL     1       0.194  -1.689  -0.518  0.00  0.00    +0.000 OA
ENDROOT
BRANCH   1   9
ATOM      4  C   UNL     1      -5.718   0.999  -0.807  0.00  0.00    +0.000 C 
ATOM      5  C   UNL     1      -4.250   0.857  -0.574  0.00  0.00    +0.000 A 
ATOM      6  C   UNL     1      -3.487   1.907  -0.107  0.00  0.00    +0.000 A 
ATOM      7  C   UNL     1      -2.121   1.756   0.104  0.00  0.00    +0.000 A 
ATOM      8  O   UNL     1      -1.403   2.844   0.574  0.00  0.00    +0.000 OA
ATOM      9  C   UNL     1      -1.476   0.560  -0.142  0.00  0.00    +0.000 A 
ATOM     10  C   UNL     1      -2.232  -0.494  -0.609  0.00  0.00    +0.000 A 
ATOM     11  C   UNL     1      -3.596  -0.333  -0.816  0.00  0.00    +0.000 A 
ATOM     12  C   UNL     1      -4.441  -1.460  -1.322  0.00  0.00    +0.000 C 
ENDBRANCH   1   9
BRANCH   2  13
ATOM     13  C   UNL     1       2.137  -0.522   0.207  0.00  0.00    +0.000 A 
ATOM     14  C   UNL     1       3.016  -1.594   0.043  0.00  0.00    +0.000 A 
ATOM     15  C   UNL     1       4.358  -1.474   0.333  0.00  0.00    +0.000 A 
ATOM     16  C   UNL     1       4.896  -0.293   0.798  0.00  0.00    +0.000 A 
ATOM     17 BR   UNL     1       6.755  -0.164   1.189  0.00  0.00    +0.000 Br
ATOM     18  C   UNL     1       4.040   0.779   0.967  0.00  0.00    +0.000 A 
ATOM     19  C   UNL     1       2.698   0.648   0.673  0.00  0.00    +0.000 A 
ENDBRANCH   2  13
TORSDOF 2
