REMARK  Name = 
REMARK  3 active torsions:
REMARK  status: ('A' for Active; 'I' for Inactive)
REMARK    1  A    between atoms: C_2  and  C_12
REMARK    2  A    between atoms: N_3  and  N_4
REMARK    3  A    between atoms: N_4  and  C_5
REMARK                            x       y       z     vdW  Elec       q    Type
REMARK                         _______ _______ _______ _____ _____    ______ ____
ROOT
ATOM      1  O   UNL     1      -0.716  -2.582   0.460  0.00  0.00    +0.000 OA
ATOM      2  C   UNL     1      -0.787  -1.325   0.299  0.00  0.00    +0.000 C 
ATOM      3  N   UNL     1       0.445  -0.634   0.185  0.00  0.00    +0.000 NA
ENDROOT
BRANCH   2   4
ATOM      4  C   UNL     1      -2.107  -0.728   0.251  0.00  0.00    +0.000 A 
ATOM      5  C   UNL     1      -2.333   0.361  -0.592  0.00  0.00    +0.000 A 
ATOM      6  C   UNL     1      -3.539   0.969  -0.689  0.00  0.00    +0.000 A 
ATOM      7  C   UNL     1      -4.610   0.497   0.085  0.00  0.00    +0.000 A 
ATOM      8 BR   UNL     1      -6.316   1.329  -0.030  0.00  0.00    +0.000 Br
ATOM      9  C   UNL     1      -4.391  -0.564   0.909  0.00  0.00    +0.000 A 
ATOM     10  C   UNL     1      -3.163  -1.199   1.019  0.00  0.00    +0.000 A 
ENDBRANCH   2   4
BRANCH   3  11
ATOM     11  N   UNL     1       1.686  -1.269   0.243  0.00  0.00    +0.000 NA
BRANCH  11  12
ATOM     12  C   UNL     1       2.843  -0.437   0.233  0.00  0.00    +0.000 C 
ATOM     13  C   UNL     1       3.690  -0.606  -0.796  0.00  0.00    +0.000 C 
ATOM     14  C   UNL     1       4.948   0.147  -1.002  0.00  0.00    +0.000 C 
ATOM     15  C   UNL     1       4.779   1.629  -0.944  0.00  0.00    +0.000 C 
ATOM     16  C   UNL     1       3.395   2.029  -0.498  0.00  0.00    +0.000 C 
ATOM     17  C   UNL     1       3.251   1.893   0.997  0.00  0.00    +0.000 C 
ATOM     18  C   UNL     1       2.924   0.490   1.387  0.00  0.00    +0.000 C 
ENDBRANCH  11  12
ENDBRANCH   3  11
TORSDOF 3
