REMARK  Name = 
REMARK  4 active torsions:
REMARK  status: ('A' for Active; 'I' for Inactive)
REMARK    1  A    between atoms: C_2  and  C_3
REMARK    2  A    between atoms: C_3  and  C_4
REMARK    3  A    between atoms: C_4  and  C_5
REMARK    4  A    between atoms: N_11  and  C_12
REMARK                            x       y       z     vdW  Elec       q    Type
REMARK                         _______ _______ _______ _____ _____    ______ ____
ROOT
ATOM      1  O   UNL     1      -0.226  -0.956  -0.470  0.00  0.00    +0.000 OA
ATOM      2  C   UNL     1      -0.158   0.295  -0.230  0.00  0.00    +0.000 C 
ATOM      3  N   UNL     1      -1.326   0.917   0.232  0.00  0.00    +0.000 NA
ENDROOT
BRANCH   3   4
ATOM      4  C   UNL     1      -2.547   0.188   0.428  0.00  0.00    +0.000 A 
ATOM      5  C   UNL     1      -2.646  -1.166   0.175  0.00  0.00    +0.000 A 
ATOM      6  C   UNL     1      -3.830  -1.849   0.370  0.00  0.00    +0.000 A 
ATOM      7  C   UNL     1      -4.964  -1.211   0.826  0.00  0.00    +0.000 A 
ATOM      8  C   UNL     1      -4.875   0.140   1.081  0.00  0.00    +0.000 A 
ATOM      9  C   UNL     1      -3.688   0.815   0.883  0.00  0.00    +0.000 A 
ATOM     10  O   UNL     1      -3.648   2.173   1.155  0.00  0.00    +0.000 OA
ENDBRANCH   3   4
BRANCH   2  11
ATOM     11  C   UNL     1       1.130   0.997  -0.450  0.00  0.00    +0.000 C 
BRANCH  11  12
ATOM     12  C   UNL     1       2.180   0.030  -0.950  0.00  0.00    +0.000 C 
BRANCH  12  13
ATOM     13  C   UNL     1       3.494   0.714  -1.182  0.00  0.00    +0.000 C 
ATOM     14  C   UNL     1       4.068   1.352   0.046  0.00  0.00    +0.000 C 
ATOM     15  C   UNL     1       4.150   0.330   1.161  0.00  0.00    +0.000 C 
ATOM     16  C   UNL     1       3.822  -1.054   0.638  0.00  0.00    +0.000 C 
ATOM     17  C   UNL     1       4.585  -1.386  -0.611  0.00  0.00    +0.000 C 
ATOM     18  C   UNL     1       4.479  -0.329  -1.665  0.00  0.00    +0.000 C 
ENDBRANCH  12  13
ENDBRANCH  11  12
ENDBRANCH   2  11
TORSDOF 4
