REMARK  Name = 
REMARK  3 active torsions:
REMARK  status: ('A' for Active; 'I' for Inactive)
REMARK    1  A    between atoms: O_2  and  C_3
REMARK    2  A    between atoms: C_3  and  C_5
REMARK    3  A    between atoms: C_12  and  C_13
REMARK                            x       y       z     vdW  Elec       q    Type
REMARK                         _______ _______ _______ _____ _____    ______ ____
ROOT
ATOM      1  C   UNL     1      -1.490  -0.265  -0.036  0.00  0.00    +0.000 C 
ATOM      2  C   UNL     1      -2.213  -0.670   0.959  0.00  0.00    +0.000 C 
ATOM      3  C   UNL     1      -3.201   0.373   1.487  0.00  0.00    +0.000 C 
ATOM      4  N   UNL     1      -2.088  -1.891   1.695  0.00  0.00    +0.000 NA
ATOM      5  C   UNL     1      -1.021  -2.732   1.273  0.00  0.00    +0.000 C 
ATOM      6  O   UNL     1      -0.847  -3.869   1.882  0.00  0.00    +0.000 OA
ATOM      7  N   UNL     1      -0.233  -2.294   0.242  0.00  0.00    +0.000 NA
ATOM      8  C   UNL     1      -0.592  -1.304  -0.764  0.00  0.00    +0.000 C 
ENDROOT
BRANCH   8   9
ATOM      9  C   UNL     1       0.740  -0.486  -0.975  0.00  0.00    +0.000 A 
ATOM     10  C   UNL     1       1.341  -0.554  -2.195  0.00  0.00    +0.000 A 
ATOM     11  O   UNL     1       0.862  -1.294  -3.266  0.00  0.00    +0.000 OA
ATOM     12  C   UNL     1       2.531   0.156  -2.436  0.00  0.00    +0.000 A 
ATOM     13  C   UNL     1       3.040   0.899  -1.411  0.00  0.00    +0.000 A 
ATOM     14  C   UNL     1       2.435   0.960  -0.199  0.00  0.00    +0.000 A 
ATOM     15  C   UNL     1       2.999   1.730   0.801  0.00  0.00    +0.000 A 
ATOM     16  C   UNL     1       2.365   1.783   2.039  0.00  0.00    +0.000 A 
ATOM     17  C   UNL     1       1.198   1.084   2.270  0.00  0.00    +0.000 A 
ATOM     18  C   UNL     1       0.681   0.331   1.231  0.00  0.00    +0.000 A 
ATOM     19  C   UNL     1       1.273   0.254   0.003  0.00  0.00    +0.000 A 
ENDBRANCH   8   9
BRANCH   1  20
ATOM     20  C   UNL     1      -1.613   1.074  -0.575  0.00  0.00    +0.000 C 
ATOM     21  O   UNL     1      -0.935   1.514  -1.538  0.00  0.00    +0.000 OA
BRANCH  20  23
ATOM     22  C   UNL     1      -2.722   3.270  -0.463  0.00  0.00    +0.000 C 
ATOM     23  O   UNL     1      -2.509   1.929  -0.023  0.00  0.00    +0.000 OA
ENDBRANCH  20  23
ENDBRANCH   1  20
TORSDOF 3
