REMARK  Name = 
REMARK  3 active torsions:
REMARK  status: ('A' for Active; 'I' for Inactive)
REMARK    1  A    between atoms: C_5  and  N_6
REMARK    2  A    between atoms: C_7  and  C_9
REMARK    3  A    between atoms: C_12  and  N_13
REMARK                            x       y       z     vdW  Elec       q    Type
REMARK                         _______ _______ _______ _____ _____    ______ ____
ROOT
ATOM      1  N   UNL     1       1.103   0.080   0.472  0.00  0.00    +0.000 NA
ATOM      2  C   UNL     1       0.141   0.096  -0.572  0.00  0.00    +0.000 C 
ATOM      3  O   UNL     1       0.556   0.291  -1.746  0.00  0.00    +0.000 OA
ENDROOT
BRANCH   1   8
ATOM      4  C   UNL     1       6.590   0.892  -0.926  0.00  0.00    +0.000 C 
ATOM      5  C   UNL     1       5.164   0.681  -0.550  0.00  0.00    +0.000 A 
ATOM      6  C   UNL     1       4.153   0.702  -1.495  0.00  0.00    +0.000 A 
ATOM      7  C   UNL     1       2.843   0.502  -1.114  0.00  0.00    +0.000 A 
ATOM      8  C   UNL     1       2.472   0.277   0.188  0.00  0.00    +0.000 A 
ATOM      9  C   UNL     1       3.478   0.255   1.130  0.00  0.00    +0.000 A 
ATOM     10  C   UNL     1       4.813   0.457   0.754  0.00  0.00    +0.000 A 
ATOM     11  C   UNL     1       5.872   0.425   1.814  0.00  0.00    +0.000 C 
ENDBRANCH   1   8
BRANCH   2  12
ATOM     12  C   UNL     1      -1.277  -0.104  -0.301  0.00  0.00    +0.000 A 
ATOM     13  C   UNL     1      -2.173  -0.123  -1.348  0.00  0.00    +0.000 A 
ATOM     14  C   UNL     1      -3.521  -0.311  -1.119  0.00  0.00    +0.000 A 
ATOM     15  C   UNL     1      -4.032  -0.488   0.150  0.00  0.00    +0.000 A 
ATOM     16  C   UNL     1      -3.127  -0.469   1.197  0.00  0.00    +0.000 A 
ATOM     17  C   UNL     1      -3.675  -0.659   2.564  0.00  0.00    +0.000 C 
ATOM     18  C   UNL     1      -1.780  -0.281   0.971  0.00  0.00    +0.000 A 
BRANCH  15  19
ATOM     19  N   UNL     1      -5.431  -0.684   0.380  0.00  0.00    +0.000 N 
ATOM     20  O   UNL     1      -5.746  -1.399   1.347  0.00  0.00    +0.000 OA
ATOM     21  O   UNL     1      -6.422  -0.140  -0.387  0.00  0.00    +0.000 OA
ENDBRANCH  15  19
ENDBRANCH   2  12
TORSDOF 3
