REMARK  Name = 
REMARK  1 active torsions:
REMARK  status: ('A' for Active; 'I' for Inactive)
REMARK    1  A    between atoms: C_10  and  C_11
REMARK                            x       y       z     vdW  Elec       q    Type
REMARK                         _______ _______ _______ _____ _____    ______ ____
ROOT
ATOM      1  C   UNL     1      -2.202  -0.072   2.832  0.00  0.00    +0.000 C 
ATOM      2  C   UNL     1      -2.502   0.184   1.379  0.00  0.00    +0.000 C 
ATOM      3  C   UNL     1      -3.705   0.429   1.005  0.00  0.00    +0.000 C 
ATOM      4  C   UNL     1      -4.082   0.689  -0.388  0.00  0.00    +0.000 C 
ATOM      5  C   UNL     1      -5.152  -0.275  -0.863  0.00  0.00    +0.000 C 
ATOM      6  C   UNL     1      -4.641   2.118  -0.485  0.00  0.00    +0.000 C 
ATOM      7  N   UNL     1      -2.936   0.632  -1.264  0.00  0.00    +0.000 NA
ATOM      8  C   UNL     1      -1.752   0.394  -0.914  0.00  0.00    +0.000 C 
ATOM      9  S   UNL     1      -0.193   0.267  -1.758  0.00  0.00    +0.000 S 
ATOM     10  C   UNL     1       0.742  -0.098  -0.256  0.00  0.00    +0.000 C 
ATOM     11  N   UNL     1      -0.100  -0.095   0.660  0.00  0.00    +0.000 NA
ATOM     12  N   UNL     1      -1.410   0.146   0.429  0.00  0.00    +0.000 N 
ENDROOT
BRANCH  10  13
ATOM     13  C   UNL     1       2.202  -0.337  -0.208  0.00  0.00    +0.000 A 
ATOM     14  C   UNL     1       2.920  -0.283  -1.378  0.00  0.00    +0.000 A 
ATOM     15  C   UNL     1       4.283  -0.494  -1.423  0.00  0.00    +0.000 A 
ATOM     16  C   UNL     1       4.970  -0.770  -0.259  0.00  0.00    +0.000 A 
ATOM     17  N   UNL     1       6.390  -0.995  -0.266  0.00  0.00    +0.000 NA
ATOM     18  C   UNL     1       4.274  -0.829   0.929  0.00  0.00    +0.000 A 
ATOM     19  C   UNL     1       2.894  -0.612   0.943  0.00  0.00    +0.000 A 
ENDBRANCH  10  13
TORSDOF 1
