REMARK  Name = 
REMARK  4 active torsions:
REMARK  status: ('A' for Active; 'I' for Inactive)
REMARK    1  A    between atoms: C_10  and  C_11
REMARK    2  A    between atoms: C_11  and  C_12
REMARK    3  A    between atoms: C_11  and  C_16
REMARK    4  A    between atoms: C_12  and  N_13
REMARK                            x       y       z     vdW  Elec       q    Type
REMARK                         _______ _______ _______ _____ _____    ______ ____
ROOT
ATOM      1  C   UNL     1       0.231   1.108   0.857  0.00  0.00    +0.000 C 
ENDROOT
BRANCH   1  11
ATOM      2  C   UNL     1      -0.057  -1.805   2.204  0.00  0.00    +0.000 C 
ATOM      3  C   UNL     1       1.048  -1.325   1.302  0.00  0.00    +0.000 A 
ATOM      4  N   UNL     1       2.088  -2.100   0.950  0.00  0.00    +0.000 NA
ATOM      5  C   UNL     1       2.923  -1.411   0.138  0.00  0.00    +0.000 A 
ATOM      6  C   UNL     1       4.108  -1.714  -0.496  0.00  0.00    +0.000 A 
ATOM      7  C   UNL     1       4.793  -0.820  -1.293  0.00  0.00    +0.000 A 
ATOM      8  C   UNL     1       4.237   0.432  -1.442  0.00  0.00    +0.000 A 
ATOM      9  C   UNL     1       3.055   0.770  -0.824  0.00  0.00    +0.000 A 
ATOM     10  C   UNL     1       2.368  -0.143  -0.018  0.00  0.00    +0.000 A 
ATOM     11  C   UNL     1       1.219  -0.117   0.705  0.00  0.00    +0.000 A 
ENDBRANCH   1  11
BRANCH   1  12
ATOM     12  C   UNL     1      -1.002   0.448   0.070  0.00  0.00    +0.000 A 
ATOM     13  C   UNL     1      -1.102   0.446  -1.249  0.00  0.00    +0.000 A 
ATOM     14  C   UNL     1      -2.195  -0.142  -1.847  0.00  0.00    +0.000 A 
ATOM     15  C   UNL     1      -3.185  -0.729  -1.063  0.00  0.00    +0.000 A 
ATOM     16  C   UNL     1      -3.098  -0.736   0.305  0.00  0.00    +0.000 A 
ATOM     17  C   UNL     1      -1.962  -0.123   0.853  0.00  0.00    +0.000 A 
ATOM     18  O   UNL     1      -4.192  -1.371   0.828  0.00  0.00    +0.000 OA
ATOM     19  C   UNL     1      -4.916  -1.943  -0.244  0.00  0.00    +0.000 C 
ATOM     20  O   UNL     1      -4.366  -1.377  -1.409  0.00  0.00    +0.000 OA
ENDBRANCH   1  12
BRANCH   1  21
ATOM     21  C   UNL     1       0.795   2.002  -0.389  0.00  0.00    +0.000 C 
BRANCH  21  22
ATOM     22  N   UNL     1      -0.002   3.194  -0.415  0.00  0.00    +0.000 N 
ATOM     23  O   UNL     1       0.581   4.288  -0.273  0.00  0.00    +0.000 OA
ATOM     24  O   UNL     1      -1.369   3.167  -0.590  0.00  0.00    +0.000 OA
ENDBRANCH  21  22
ENDBRANCH   1  21
TORSDOF 4
