REMARK  Name = 
REMARK  4 active torsions:
REMARK  status: ('A' for Active; 'I' for Inactive)
REMARK    1  A    between atoms: O_2  and  C_3
REMARK    2  A    between atoms: C_5  and  O_6
REMARK    3  A    between atoms: C_9  and  N_10
REMARK    4  A    between atoms: C_13  and  C_14
REMARK                            x       y       z     vdW  Elec       q    Type
REMARK                         _______ _______ _______ _____ _____    ______ ____
ROOT
ATOM      1  N   UNL     1       0.568  -0.274  -0.058  0.00  0.00    +0.000 N 
ATOM      2  C   UNL     1       1.206  -1.270  -0.729  0.00  0.00    +0.000 A 
ATOM      3  N   UNL     1       0.540  -2.340  -1.408  0.00  0.00    +0.000 NA
ATOM      4  C   UNL     1       2.565  -1.056  -0.632  0.00  0.00    +0.000 A 
ATOM      5  C   UNL     1       2.727   0.098   0.118  0.00  0.00    +0.000 A 
ATOM      6  C   UNL     1       1.476   0.567   0.464  0.00  0.00    +0.000 A 
ATOM      7  C   UNL     1       1.411   1.810   1.279  0.00  0.00    +0.000 C 
ATOM      8  C   UNL     1       2.461   2.750   0.680  0.00  0.00    +0.000 C 
ATOM      9  C   UNL     1       3.841   2.204   0.843  0.00  0.00    +0.000 C 
ATOM     10  C   UNL     1       3.990   0.763   0.513  0.00  0.00    +0.000 C 
ENDROOT
BRANCH   1  15
ATOM     11  C   UNL     1      -2.905   0.986  -0.453  0.00  0.00    +0.000 A 
ATOM     12  C   UNL     1      -3.596   0.089   0.319  0.00  0.00    +0.000 A 
ATOM     13  C   UNL     1      -2.951  -0.933   0.976  0.00  0.00    +0.000 A 
ATOM     14  C   UNL     1      -1.582  -1.046   0.847  0.00  0.00    +0.000 A 
ATOM     15  C   UNL     1      -0.855  -0.148   0.069  0.00  0.00    +0.000 A 
ATOM     16  C   UNL     1      -1.528   0.864  -0.576  0.00  0.00    +0.000 A 
BRANCH  11  18
ATOM     17  C   UNL     1      -2.914   2.908  -1.875  0.00  0.00    +0.000 C 
ATOM     18  O   UNL     1      -3.616   1.989  -1.085  0.00  0.00    +0.000 OA
ENDBRANCH  11  18
BRANCH  13  19
ATOM     19  O   UNL     1      -3.706  -1.803   1.737  0.00  0.00    +0.000 OA
ATOM     20  C   UNL     1      -5.087  -1.674   1.855  0.00  0.00    +0.000 C 
ENDBRANCH  13  19
ENDBRANCH   1  15
BRANCH   4  21
ATOM     21  C   UNL     1       3.572  -1.896  -1.213  0.00  0.00    +0.000 C 
ATOM     22  N   UNL     1       4.382  -2.587  -1.670  0.00  0.00    +0.000 NA
ENDBRANCH   4  21
TORSDOF 4
