REMARK  Name = 
REMARK  4 active torsions:
REMARK  status: ('A' for Active; 'I' for Inactive)
REMARK    1  A    between atoms: O_2  and  C_3
REMARK    2  A    between atoms: N_5  and  N_6
REMARK    3  A    between atoms: N_6  and  C_7
REMARK    4  A    between atoms: C_7  and  C_14
REMARK                            x       y       z     vdW  Elec       q    Type
REMARK                         _______ _______ _______ _____ _____    ______ ____
ROOT
ATOM      1  C   UNL     1      -0.320   0.417  -0.346  0.00  0.00    +0.000 C 
ATOM      2  C   UNL     1      -1.088   1.458  -0.540  0.00  0.00    +0.000 C 
ATOM      3  C   UNL     1      -0.514   2.774  -0.842  0.00  0.00    +0.000 C 
ATOM      4  C   UNL     1      -0.947   3.749   0.231  0.00  0.00    +0.000 C 
ATOM      5  C   UNL     1      -2.420   3.615   0.490  0.00  0.00    +0.000 C 
ATOM      6  C   UNL     1      -3.119   2.736  -0.500  0.00  0.00    +0.000 C 
ATOM      7  C   UNL     1      -2.549   1.312  -0.454  0.00  0.00    +0.000 C 
ENDROOT
BRANCH   1   8
ATOM      8  C   UNL     1      -0.894  -0.906  -0.041  0.00  0.00    +0.000 A 
ATOM      9  C   UNL     1      -2.027  -1.022   0.754  0.00  0.00    +0.000 A 
ATOM     10  C   UNL     1      -2.602  -2.233   1.068  0.00  0.00    +0.000 A 
ATOM     11  C   UNL     1      -2.022  -3.373   0.567  0.00  0.00    +0.000 A 
ATOM     12  C   UNL     1      -0.896  -3.277  -0.225  0.00  0.00    +0.000 A 
ATOM     13  C   UNL     1      -0.331  -2.060  -0.531  0.00  0.00    +0.000 A 
ENDBRANCH   1   8
BRANCH   1  14
ATOM     14  N   UNL     1       1.097   0.581  -0.433  0.00  0.00    +0.000 NA
BRANCH  14  17
ATOM     15  C   UNL     1       3.307  -0.517  -0.247  0.00  0.00    +0.000 C 
ATOM     16  O   UNL     1       3.879   0.550  -0.559  0.00  0.00    +0.000 OA
ATOM     17  N   UNL     1       1.889  -0.514  -0.180  0.00  0.00    +0.000 NA
BRANCH  15  19
ATOM     18  C   UNL     1       5.486  -1.651  -0.050  0.00  0.00    +0.000 C 
ATOM     19  O   UNL     1       4.072  -1.639   0.014  0.00  0.00    +0.000 OA
ENDBRANCH  15  19
ENDBRANCH  14  17
ENDBRANCH   1  14
TORSDOF 4
