REMARK  Name = 
REMARK  3 active torsions:
REMARK  status: ('A' for Active; 'I' for Inactive)
REMARK    1  A    between atoms: C_5  and  C_6
REMARK    2  A    between atoms: C_10  and  C_11
REMARK    3  A    between atoms: C_11  and  C_13
REMARK                            x       y       z     vdW  Elec       q    Type
REMARK                         _______ _______ _______ _____ _____    ______ ____
ROOT
ATOM      1  C   UNL     1       0.780  -0.789  -0.910  0.00  0.00    +0.000 A 
ATOM      2  N   UNL     1       0.797  -1.536  -2.058  0.00  0.00    +0.000 NA
ATOM      3  N   UNL     1      -0.427  -1.839  -2.383  0.00  0.00    +0.000 NA
ATOM      4  C   UNL     1      -1.267  -1.318  -1.486  0.00  0.00    +0.000 A 
ATOM      5  C   UNL     1      -0.518  -0.630  -0.516  0.00  0.00    +0.000 A 
ENDROOT
BRANCH   1  10
ATOM      6  C   UNL     1       5.617   1.238   1.550  0.00  0.00    +0.000 C 
ATOM      7  C   UNL     1       4.388   0.708   0.906  0.00  0.00    +0.000 A 
ATOM      8  C   UNL     1       3.151   0.979   1.453  0.00  0.00    +0.000 A 
ATOM      9  C   UNL     1       2.006   0.496   0.871  0.00  0.00    +0.000 A 
ATOM     10  C   UNL     1       1.983  -0.261  -0.251  0.00  0.00    +0.000 A 
ATOM     11  C   UNL     1       3.234  -0.537  -0.807  0.00  0.00    +0.000 A 
ATOM     12  O   UNL     1       3.272  -1.315  -1.966  0.00  0.00    +0.000 OA
ATOM     13  C   UNL     1       4.409  -0.060  -0.236  0.00  0.00    +0.000 A 
ENDBRANCH   1  10
BRANCH   5  14
ATOM     14  C   UNL     1      -1.059   0.071   0.636  0.00  0.00    +0.000 C 
ATOM     15  O   UNL     1      -0.469   0.314   1.704  0.00  0.00    +0.000 OA
BRANCH  14  16
ATOM     16  C   UNL     1      -2.452   0.572   0.585  0.00  0.00    +0.000 A 
ATOM     17  C   UNL     1      -2.739   1.915   0.659  0.00  0.00    +0.000 A 
ATOM     18  C   UNL     1      -4.025   2.402   0.598  0.00  0.00    +0.000 A 
ATOM     19  C   UNL     1      -5.059   1.503   0.456  0.00  0.00    +0.000 A 
ATOM     20  C   UNL     1      -4.788   0.173   0.381  0.00  0.00    +0.000 A 
ATOM     21  C   UNL     1      -3.491  -0.308   0.445  0.00  0.00    +0.000 A 
ATOM     22  C   UNL     1      -3.341  -1.780   0.369  0.00  0.00    +0.000 C 
ENDBRANCH  14  16
ENDBRANCH   5  14
TORSDOF 3
