REMARK  Name = 
REMARK  3 active torsions:
REMARK  status: ('A' for Active; 'I' for Inactive)
REMARK    1  A    between atoms: C_8  and  N_9
REMARK    2  A    between atoms: C_10  and  C_12
REMARK    3  A    between atoms: C_12  and  C_13
REMARK                            x       y       z     vdW  Elec       q    Type
REMARK                         _______ _______ _______ _____ _____    ______ ____
ROOT
ATOM      1  N   UNL     1      -0.946   0.688   0.390  0.00  0.00    +0.000 NA
ATOM      2  C   UNL     1       0.183  -0.065   0.055  0.00  0.00    +0.000 C 
ATOM      3  O   UNL     1       0.009  -1.250  -0.349  0.00  0.00    +0.000 OA
ENDROOT
BRANCH   1  11
ATOM      4  C   UNL     1      -2.996   2.514   1.159  0.00  0.00    +0.000 C 
ATOM      5  C   UNL     1      -3.278   1.129   0.692  0.00  0.00    +0.000 A 
ATOM      6  C   UNL     1      -4.619   0.734   0.637  0.00  0.00    +0.000 A 
ATOM      7  C   UNL     1      -4.930  -0.534   0.212  0.00  0.00    +0.000 A 
ATOM      8  O   UNL     1      -6.262  -0.966   0.145  0.00  0.00    +0.000 OA
ATOM      9  C   UNL     1      -3.958  -1.423  -0.160  0.00  0.00    +0.000 A 
ATOM     10  C   UNL     1      -2.633  -1.001  -0.096  0.00  0.00    +0.000 A 
ATOM     11  C   UNL     1      -2.285   0.258   0.324  0.00  0.00    +0.000 A 
ENDBRANCH   1  11
BRANCH   2  12
ATOM     12  C   UNL     1       1.557   0.530   0.177  0.00  0.00    +0.000 C 
ATOM     13  C   UNL     1       1.839   0.906   1.629  0.00  0.00    +0.000 C 
ATOM     14  C   UNL     1       2.719   2.117   1.574  0.00  0.00    +0.000 C 
ATOM     15  C   UNL     1       2.606   2.704   0.193  0.00  0.00    +0.000 C 
ATOM     16  C   UNL     1       1.689   1.807  -0.600  0.00  0.00    +0.000 C 
BRANCH  12  17
ATOM     17  C   UNL     1       2.598  -0.435  -0.227  0.00  0.00    +0.000 A 
ATOM     18  C   UNL     1       2.432  -1.174  -1.369  0.00  0.00    +0.000 A 
ATOM     19  C   UNL     1       3.346  -2.085  -1.811  0.00  0.00    +0.000 A 
ATOM     20  C   UNL     1       4.492  -2.278  -1.081  0.00  0.00    +0.000 A 
ATOM     21  C   UNL     1       4.679  -1.551   0.064  0.00  0.00    +0.000 A 
ATOM     22  C   UNL     1       3.757  -0.625   0.518  0.00  0.00    +0.000 A 
ENDBRANCH  12  17
ENDBRANCH   2  12
TORSDOF 3
