REMARK  Name = 
REMARK  6 active torsions:
REMARK  status: ('A' for Active; 'I' for Inactive)
REMARK    1  A    between atoms: C_4  and  C_5
REMARK    2  A    between atoms: C_5  and  O_7
REMARK    3  A    between atoms: O_7  and  C_8
REMARK    4  A    between atoms: C_8  and  C_9
REMARK    5  A    between atoms: C_17  and  C_18
REMARK    6  A    between atoms: C_18  and  C_19
REMARK                            x       y       z     vdW  Elec       q    Type
REMARK                         _______ _______ _______ _____ _____    ______ ____
ROOT
ATOM      1  C   UNL     1      -3.894  -2.198   1.288  0.00  0.00    +0.000 C 
ATOM      2  C   UNL     1      -2.902  -1.309   0.650  0.00  0.00    +0.000 A 
ATOM      3  N   UNL     1      -1.607  -1.652   0.455  0.00  0.00    +0.000 NA
ATOM      4  C   UNL     1      -0.944  -0.656  -0.142  0.00  0.00    +0.000 A 
ATOM      5  C   UNL     1      -1.876   0.351  -0.325  0.00  0.00    +0.000 A 
ATOM      6  C   UNL     1      -1.620   1.674  -0.954  0.00  0.00    +0.000 C 
ATOM      7  C   UNL     1      -3.097  -0.041   0.162  0.00  0.00    +0.000 A 
ENDROOT
BRANCH   4   8
ATOM      8  C   UNL     1       0.447  -0.570  -0.545  0.00  0.00    +0.000 C 
ATOM      9  O   UNL     1       0.898   0.474  -1.105  0.00  0.00    +0.000 OA
BRANCH   8  10
ATOM     10  O   UNL     1       1.365  -1.589  -0.359  0.00  0.00    +0.000 OA
BRANCH  10  11
ATOM     11  C   UNL     1       2.705  -1.578  -0.717  0.00  0.00    +0.000 C 
BRANCH  11  12
ATOM     12  C   UNL     1       3.498  -0.515  -0.074  0.00  0.00    +0.000 A 
ATOM     13  C   UNL     1       4.129  -0.627   1.145  0.00  0.00    +0.000 A 
ATOM     14  C   UNL     1       4.862   0.435   1.680  0.00  0.00    +0.000 A 
ATOM     15  C   UNL     1       4.968   1.619   0.993  0.00  0.00    +0.000 A 
ATOM     16  C   UNL     1       4.343   1.749  -0.229  0.00  0.00    +0.000 A 
ATOM     17  C   UNL     1       3.625   0.687  -0.737  0.00  0.00    +0.000 A 
ENDBRANCH  11  12
ENDBRANCH  10  11
ENDBRANCH   8  10
ENDBRANCH   4   8
BRANCH   7  18
ATOM     18  C   UNL     1      -4.389   0.688   0.192  0.00  0.00    +0.000 C 
BRANCH  18  19
ATOM     19  C   UNL     1      -4.650   1.190   1.596  0.00  0.00    +0.000 C 
ATOM     20  O   UNL     1      -5.862   1.865   1.592  0.00  0.00    +0.000 OA
ENDBRANCH  18  19
ENDBRANCH   7  18
TORSDOF 6
