REMARK  Name = 
REMARK  3 active torsions:
REMARK  status: ('A' for Active; 'I' for Inactive)
REMARK    1  A    between atoms: C_2  and  C_4
REMARK    2  A    between atoms: C_6  and  N_7
REMARK    3  A    between atoms: C_14  and  C_15
REMARK                            x       y       z     vdW  Elec       q    Type
REMARK                         _______ _______ _______ _____ _____    ______ ____
ROOT
ATOM      1  C   UNL     1      -1.315   1.264   0.246  0.00  0.00    +0.000 A 
ATOM      2  C   UNL     1      -0.126   0.990  -0.369  0.00  0.00    +0.000 A 
ATOM      3  C   UNL     1       0.293  -0.363  -0.628  0.00  0.00    +0.000 A 
ATOM      4  C   UNL     1      -0.589  -1.295  -0.214  0.00  0.00    +0.000 A 
ATOM      5  C   UNL     1      -1.738  -1.079   0.387  0.00  0.00    +0.000 A 
ATOM      6  C   UNL     1      -2.123   0.255   0.637  0.00  0.00    +0.000 A 
ATOM      7  O   UNL     1      -3.311   0.553   1.269  0.00  0.00    +0.000 OA
ENDROOT
BRANCH   3   8
ATOM      8  N   UNL     1       1.557  -0.590  -1.131  0.00  0.00    +0.000 NA
ATOM      9  C   UNL     1       2.852  -0.324  -0.535  0.00  0.00    +0.000 A 
ATOM     10  N   UNL     1       3.202   0.100   0.679  0.00  0.00    +0.000 NA
ATOM     11  C   UNL     1       4.479   0.250   0.949  0.00  0.00    +0.000 A 
ATOM     12  C   UNL     1       5.396  -0.023  -0.010  0.00  0.00    +0.000 A 
ATOM     13  S   UNL     1       4.404  -0.499  -1.293  0.00  0.00    +0.000 S 
ENDBRANCH   3   8
BRANCH   1  15
ATOM     14  C   UNL     1      -2.737   2.732  -0.961  0.00  0.00    +0.000 C 
ATOM     15  C   UNL     1      -1.853   2.678   0.378  0.00  0.00    +0.000 C 
ATOM     16  C   UNL     1      -0.598   3.547  -0.081  0.00  0.00    +0.000 C 
ENDBRANCH   1  15
BRANCH   5  17
ATOM     17  C   UNL     1      -2.767  -2.066   0.850  0.00  0.00    +0.000 C 
ATOM     18  C   UNL     1      -3.233  -3.007  -0.284  0.00  0.00    +0.000 C 
ATOM     19  C   UNL     1      -1.794  -3.122   1.611  0.00  0.00    +0.000 C 
ENDBRANCH   5  17
TORSDOF 3
