REMARK  Name = 
REMARK  4 active torsions:
REMARK  status: ('A' for Active; 'I' for Inactive)
REMARK    1  A    between atoms: C_2  and  O_3
REMARK    2  A    between atoms: O_3  and  C_4
REMARK    3  A    between atoms: C_4  and  C_6
REMARK    4  A    between atoms: C_13  and  C_14
REMARK                            x       y       z     vdW  Elec       q    Type
REMARK                         _______ _______ _______ _____ _____    ______ ____
ROOT
ATOM      1  C   UNL     1      -1.201   0.245  -0.006  0.00  0.00    +0.000 C 
ATOM      2  C   UNL     1      -1.595   1.281   0.604  0.00  0.00    +0.000 C 
ATOM      3  C   UNL     1      -2.615   1.107   1.762  0.00  0.00    +0.000 C 
ATOM      4  N   UNL     1      -1.206   2.601   0.304  0.00  0.00    +0.000 NA
ATOM      5  C   UNL     1      -0.298   2.767  -0.778  0.00  0.00    +0.000 C 
ATOM      6  O   UNL     1       0.076   3.942  -1.079  0.00  0.00    +0.000 OA
ATOM      7  N   UNL     1       0.143   1.649  -1.462  0.00  0.00    +0.000 NA
ATOM      8  C   UNL     1      -0.178   0.232  -1.151  0.00  0.00    +0.000 C 
ENDROOT
BRANCH   8   9
ATOM      9  C   UNL     1       1.129  -0.168  -0.298  0.00  0.00    +0.000 A 
ATOM     10  C   UNL     1       1.000  -1.127   0.642  0.00  0.00    +0.000 A 
ATOM     11  C   UNL     1       2.111  -1.468   1.383  0.00  0.00    +0.000 A 
ATOM     12  C   UNL     1       3.321  -0.821   1.144  0.00  0.00    +0.000 A 
ATOM     13  C   UNL     1       3.417   0.155   0.173  0.00  0.00    +0.000 A 
ATOM     14  C   UNL     1       2.281   0.490  -0.571  0.00  0.00    +0.000 A 
ATOM     15 CL   UNL     1       2.436   1.721  -1.799  0.00  0.00    +0.000 Cl
ENDBRANCH   8   9
BRANCH   1  16
ATOM     16  C   UNL     1      -1.720  -1.077   0.395  0.00  0.00    +0.000 C 
ATOM     17  O   UNL     1      -2.528  -1.106   1.329  0.00  0.00    +0.000 OA
BRANCH  16  18
ATOM     18  O   UNL     1      -1.354  -2.252  -0.209  0.00  0.00    +0.000 OA
BRANCH  18  20
ATOM     19  C   UNL     1      -1.337  -4.650  -0.595  0.00  0.00    +0.000 C 
ATOM     20  C   UNL     1      -1.883  -3.519   0.211  0.00  0.00    +0.000 C 
ENDBRANCH  18  20
ENDBRANCH  16  18
ENDBRANCH   1  16
TORSDOF 4
