REMARK  Name = 
REMARK  3 active torsions:
REMARK  status: ('A' for Active; 'I' for Inactive)
REMARK    1  A    between atoms: C_2  and  C_15
REMARK    2  A    between atoms: N_3  and  C_4
REMARK    3  A    between atoms: C_8  and  C_9
REMARK                            x       y       z     vdW  Elec       q    Type
REMARK                         _______ _______ _______ _____ _____    ______ ____
ROOT
ATOM      1  C   UNL     1       0.563  -0.211   0.002  0.00  0.00    +0.000 A 
ATOM      2  S   UNL     1       1.242   1.414  -0.179  0.00  0.00    +0.000 S 
ATOM      3  C   UNL     1       2.895   0.979  -0.354  0.00  0.00    +0.000 A 
ATOM      4  C   UNL     1       2.826  -0.465  -0.286  0.00  0.00    +0.000 A 
ATOM      5  C   UNL     1       1.708  -1.003  -0.115  0.00  0.00    +0.000 A 
ATOM      6  C   UNL     1       4.149  -1.215  -0.536  0.00  0.00    +0.000 C 
ATOM      7  C   UNL     1       5.357  -0.347  -0.650  0.00  0.00    +0.000 C 
ATOM      8  C   UNL     1       5.099   0.978  -1.357  0.00  0.00    +0.000 C 
ATOM      9  C   UNL     1       4.170   1.758  -0.494  0.00  0.00    +0.000 C 
ENDROOT
BRANCH   1  12
ATOM     10  O   UNL     1      -1.294   1.642  -0.622  0.00  0.00    +0.000 OA
ATOM     11  C   UNL     1      -1.784   0.587  -0.051  0.00  0.00    +0.000 C 
ATOM     12  N   UNL     1      -0.771  -0.448   0.222  0.00  0.00    +0.000 NA
BRANCH  11  13
ATOM     13  C   UNL     1      -3.185   0.399   0.267  0.00  0.00    +0.000 A 
ATOM     14  C   UNL     1      -3.623  -0.457   1.200  0.00  0.00    +0.000 A 
ATOM     15  C   UNL     1      -4.986  -0.588   1.657  0.00  0.00    +0.000 A 
ATOM     16  C   UNL     1      -5.884   0.282   1.032  0.00  0.00    +0.000 A 
ATOM     17  C   UNL     1      -5.464   1.176   0.069  0.00  0.00    +0.000 A 
ATOM     18  C   UNL     1      -4.090   1.235  -0.324  0.00  0.00    +0.000 A 
ENDBRANCH  11  13
ENDBRANCH   1  12
BRANCH   5  19
ATOM     19  C   UNL     1       1.363  -2.476  -0.277  0.00  0.00    +0.000 C 
ATOM     20  O   UNL     1       1.709  -3.237   0.773  0.00  0.00    +0.000 OA
ENDBRANCH   5  19
TORSDOF 3
