REMARK  Name = 
REMARK  3 active torsions:
REMARK  status: ('A' for Active; 'I' for Inactive)
REMARK    1  A    between atoms: C_6  and  C_7
REMARK    2  A    between atoms: C_9  and  S_10
REMARK    3  A    between atoms: S_10  and  C_11
REMARK                            x       y       z     vdW  Elec       q    Type
REMARK                         _______ _______ _______ _____ _____    ______ ____
ROOT
ATOM      1  C   UNL     1      -3.099   2.962  -1.352  0.00  0.00    +0.000 C 
ATOM      2  C   UNL     1      -2.579   1.688  -0.740  0.00  0.00    +0.000 A 
ATOM      3  C   UNL     1      -3.330   0.565  -0.971  0.00  0.00    +0.000 A 
ATOM      4  C   UNL     1      -2.856  -0.625  -0.406  0.00  0.00    +0.000 A 
ATOM      5  C   UNL     1      -3.670  -1.838  -0.657  0.00  0.00    +0.000 C 
ATOM      6  C   UNL     1      -1.692  -0.622   0.335  0.00  0.00    +0.000 A 
ATOM      7  C   UNL     1      -0.970   0.541   0.538  0.00  0.00    +0.000 A 
ATOM      8  N   UNL     1      -1.450   1.668  -0.016  0.00  0.00    +0.000 NA
ENDROOT
BRANCH   6   9
ATOM      9  C   UNL     1      -1.249  -1.866   0.891  0.00  0.00    +0.000 C 
ATOM     10  N   UNL     1      -0.910  -2.876   1.343  0.00  0.00    +0.000 NA
ENDBRANCH   6   9
BRANCH   7  11
ATOM     11  S   UNL     1       0.539   0.518   1.505  0.00  0.00    +0.000 S 
BRANCH  11  12
ATOM     12  C   UNL     1       1.918   0.187   0.411  0.00  0.00    +0.000 A 
ATOM     13  C   UNL     1       1.711  -0.003  -0.932  0.00  0.00    +0.000 A 
ATOM     14  C   UNL     1       2.739  -0.263  -1.831  0.00  0.00    +0.000 A 
ATOM     15  C   UNL     1       4.017  -0.325  -1.309  0.00  0.00    +0.000 A 
ATOM     16  C   UNL     1       4.260  -0.138   0.038  0.00  0.00    +0.000 A 
ATOM     17  C   UNL     1       3.209   0.115   0.882  0.00  0.00    +0.000 A 
ATOM     18  N   UNL     1       3.413   0.313   2.271  0.00  0.00    +0.000 NA
ENDBRANCH  11  12
ENDBRANCH   7  11
TORSDOF 3
