REMARK  Name = 
REMARK  2 active torsions:
REMARK  status: ('A' for Active; 'I' for Inactive)
REMARK    1  A    between atoms: C_6  and  C_7
REMARK    2  A    between atoms: N_9  and  C_10
REMARK                            x       y       z     vdW  Elec       q    Type
REMARK                         _______ _______ _______ _____ _____    ______ ____
ROOT
ATOM      1  C   UNL     1       0.820  -0.792  -0.020  0.00  0.00    +0.000 C 
ATOM      2  O   UNL     1       0.123  -1.787  -0.336  0.00  0.00    +0.000 OA
ATOM      3  N   UNL     1       0.134   0.416   0.278  0.00  0.00    +0.000 NA
ENDROOT
BRANCH   3   4
ATOM      4  C   UNL     1      -1.321   0.506   0.221  0.00  0.00    +0.000 C 
ATOM      5  C   UNL     1      -1.982  -0.459   1.179  0.00  0.00    +0.000 C 
ATOM      6  C   UNL     1      -3.472  -0.324   1.004  0.00  0.00    +0.000 C 
ATOM      7  C   UNL     1      -3.954   1.085   1.312  0.00  0.00    +0.000 C 
ATOM      8  C   UNL     1      -3.240   2.047   0.383  0.00  0.00    +0.000 C 
ATOM      9  C   UNL     1      -3.658   1.701  -1.045  0.00  0.00    +0.000 C 
ATOM     10  C   UNL     1      -3.237   0.273  -1.362  0.00  0.00    +0.000 C 
ATOM     11  C   UNL     1      -3.848  -0.721  -0.417  0.00  0.00    +0.000 C 
ATOM     12  C   UNL     1      -1.739   0.205  -1.209  0.00  0.00    +0.000 C 
ATOM     13  C   UNL     1      -1.734   1.918   0.541  0.00  0.00    +0.000 C 
ENDBRANCH   3   4
BRANCH   1  19
ATOM     14  N   UNL     1       5.058   1.410   0.830  0.00  0.00    +0.000 NA
ATOM     15  C   UNL     1       4.404   0.209   0.459  0.00  0.00    +0.000 A 
ATOM     16  C   UNL     1       5.067  -0.965   0.169  0.00  0.00    +0.000 A 
ATOM     17  C   UNL     1       4.335  -2.079  -0.182  0.00  0.00    +0.000 A 
ATOM     18  C   UNL     1       2.952  -2.024  -0.244  0.00  0.00    +0.000 A 
ATOM     19  C   UNL     1       2.275  -0.863   0.041  0.00  0.00    +0.000 A 
ATOM     20  C   UNL     1       3.020   0.243   0.391  0.00  0.00    +0.000 A 
ENDBRANCH   1  19
TORSDOF 2
