REMARK  Name = 
REMARK  3 active torsions:
REMARK  status: ('A' for Active; 'I' for Inactive)
REMARK    1  A    between atoms: C_9  and  O_10
REMARK    2  A    between atoms: O_10  and  C_11
REMARK    3  A    between atoms: C_11  and  C_13
REMARK                            x       y       z     vdW  Elec       q    Type
REMARK                         _______ _______ _______ _____ _____    ______ ____
ROOT
ATOM      1  C   UNL     1      -2.099  -1.524  -0.638  0.00  0.00    +0.000 C 
ATOM      2  C   UNL     1      -3.061  -0.578   0.015  0.00  0.00    +0.000 C 
ATOM      3  C   UNL     1      -4.426  -1.106   0.217  0.00  0.00    +0.000 C 
ATOM      4  C   UNL     1      -3.319   0.628  -1.063  0.00  0.00    +0.000 C 
ATOM      5  C   UNL     1      -3.723   1.782   0.035  0.00  0.00    +0.000 C 
ATOM      6  C   UNL     1      -3.763   1.065   1.310  0.00  0.00    +0.000 C 
ATOM      7  C   UNL     1      -2.565   0.151   1.093  0.00  0.00    +0.000 C 
ATOM      8  C   UNL     1      -2.038  -0.385   2.321  0.00  0.00    +0.000 C 
ATOM      9  C   UNL     1      -1.489   1.260   0.512  0.00  0.00    +0.000 C 
ATOM     10  C   UNL     1      -1.709   0.908  -1.089  0.00  0.00    +0.000 C 
ENDROOT
BRANCH   9  11
ATOM     11  O   UNL     1      -0.269   0.303   0.649  0.00  0.00    +0.000 OA
BRANCH  11  12
ATOM     12  C   UNL     1       0.930   0.828   0.257  0.00  0.00    +0.000 C 
ATOM     13  O   UNL     1       0.921   2.013  -0.167  0.00  0.00    +0.000 OA
BRANCH  12  14
ATOM     14  C   UNL     1       2.203   0.086   0.308  0.00  0.00    +0.000 A 
ATOM     15  C   UNL     1       2.310  -1.203   0.752  0.00  0.00    +0.000 A 
ATOM     16  C   UNL     1       3.527  -1.856   0.780  0.00  0.00    +0.000 A 
ATOM     17  C   UNL     1       4.686  -1.251   0.366  0.00  0.00    +0.000 A 
ATOM     18  O   UNL     1       5.925  -1.861   0.376  0.00  0.00    +0.000 OA
ATOM     19  C   UNL     1       4.591   0.050  -0.085  0.00  0.00    +0.000 A 
ATOM     20  C   UNL     1       3.366   0.690  -0.107  0.00  0.00    +0.000 A 
ENDBRANCH  12  14
ENDBRANCH  11  12
ENDBRANCH   9  11
TORSDOF 3
