REMARK  Name = 
REMARK  3 active torsions:
REMARK  status: ('A' for Active; 'I' for Inactive)
REMARK    1  A    between atoms: O_2  and  C_3
REMARK    2  A    between atoms: C_6  and  N_7
REMARK    3  A    between atoms: C_10  and  N_11
REMARK                            x       y       z     vdW  Elec       q    Type
REMARK                         _______ _______ _______ _____ _____    ______ ____
ROOT
ATOM      1  N   UNL     1      -0.113  -0.368  -0.129  0.00  0.00    +0.000 N 
ATOM      2  C   UNL     1      -0.794  -1.483  -0.408  0.00  0.00    +0.000 A 
ATOM      3  C   UNL     1      -0.102  -2.758  -0.776  0.00  0.00    +0.000 C 
ATOM      4  C   UNL     1      -2.139  -1.244  -0.297  0.00  0.00    +0.000 A 
ATOM      5  C   UNL     1      -2.291   0.063   0.062  0.00  0.00    +0.000 A 
ATOM      6  C   UNL     1      -3.381   0.849   0.313  0.00  0.00    +0.000 A 
ATOM      7  C   UNL     1      -3.219   2.180   0.669  0.00  0.00    +0.000 A 
ATOM      8  C   UNL     1      -1.952   2.728   0.774  0.00  0.00    +0.000 A 
ATOM      9  O   UNL     1      -1.783   4.078   1.135  0.00  0.00    +0.000 OA
ATOM     10  C   UNL     1      -0.868   1.922   0.518  0.00  0.00    +0.000 A 
ATOM     11  C   UNL     1      -1.023   0.582   0.160  0.00  0.00    +0.000 A 
ENDROOT
BRANCH   1  15
ATOM     12  C   UNL     1       4.104   0.176  -0.177  0.00  0.00    +0.000 A 
ATOM     13  C   UNL     1       3.399  -0.038  -1.340  0.00  0.00    +0.000 A 
ATOM     14  C   UNL     1       2.025  -0.213  -1.303  0.00  0.00    +0.000 A 
ATOM     15  C   UNL     1       1.312  -0.182  -0.129  0.00  0.00    +0.000 A 
ATOM     16  C   UNL     1       2.017   0.033   1.034  0.00  0.00    +0.000 A 
ATOM     17  C   UNL     1       3.406   0.211   1.010  0.00  0.00    +0.000 A 
BRANCH  12  19
ATOM     18  C   UNL     1       6.225   0.575   0.990  0.00  0.00    +0.000 C 
ATOM     19  O   UNL     1       5.500   0.355  -0.204  0.00  0.00    +0.000 OA
ENDBRANCH  12  19
ENDBRANCH   1  15
BRANCH   4  20
ATOM     20  N   UNL     1      -3.146  -2.228  -0.531  0.00  0.00    +0.000 N 
ATOM     21  O   UNL     1      -3.318  -3.126   0.316  0.00  0.00    +0.000 OA
ATOM     22  O   UNL     1      -3.859  -2.113  -1.685  0.00  0.00    +0.000 OA
ENDBRANCH   4  20
TORSDOF 3
