REMARK  Name = 
REMARK  3 active torsions:
REMARK  status: ('A' for Active; 'I' for Inactive)
REMARK    1  A    between atoms: C_6  and  C_7
REMARK    2  A    between atoms: N_8  and  C_9
REMARK    3  A    between atoms: C_12  and  N_13
REMARK                            x       y       z     vdW  Elec       q    Type
REMARK                         _______ _______ _______ _____ _____    ______ ____
ROOT
ATOM      1  C   UNL     1      -0.119  -1.523  -1.118  0.00  0.00    +0.000 A 
ATOM      2  C   UNL     1       0.385  -1.790   0.137  0.00  0.00    +0.000 A 
ATOM      3  C   UNL     1       1.476  -1.119   0.649  0.00  0.00    +0.000 A 
ATOM      4  C   UNL     1       2.121  -0.131  -0.091  0.00  0.00    +0.000 A 
ATOM      5  C   UNL     1       1.612   0.131  -1.344  0.00  0.00    +0.000 A 
ATOM      6  C   UNL     1       0.520  -0.544  -1.851  0.00  0.00    +0.000 A 
ENDROOT
BRANCH   4   7
ATOM      7  N   UNL     1       3.242   0.573   0.411  0.00  0.00    +0.000 N 
ATOM      8  C   UNL     1       3.908   0.437   1.686  0.00  0.00    +0.000 C 
ATOM      9  C   UNL     1       5.372   0.655   1.365  0.00  0.00    +0.000 C 
ATOM     10  C   UNL     1       5.364   1.576   0.189  0.00  0.00    +0.000 C 
ATOM     11  C   UNL     1       3.946   1.605  -0.314  0.00  0.00    +0.000 C 
ENDBRANCH   4   7
BRANCH   1  13
ATOM     12  C   UNL     1      -2.447  -1.830  -1.515  0.00  0.00    +0.000 C 
ATOM     13  N   UNL     1      -1.246  -2.212  -1.659  0.00  0.00    +0.000 NA
BRANCH  12  19
ATOM     14  O   UNL     1      -5.687   1.316   0.237  0.00  0.00    +0.000 OA
ATOM     15  C   UNL     1      -4.387   0.854   0.050  0.00  0.00    +0.000 A 
ATOM     16  C   UNL     1      -3.378   1.607   0.621  0.00  0.00    +0.000 A 
ATOM     17  C   UNL     1      -2.059   1.228   0.489  0.00  0.00    +0.000 A 
ATOM     18  C   UNL     1      -1.763   0.104  -0.210  0.00  0.00    +0.000 A 
ATOM     19  C   UNL     1      -2.756  -0.638  -0.773  0.00  0.00    +0.000 A 
ATOM     20  C   UNL     1      -4.104  -0.299  -0.669  0.00  0.00    +0.000 A 
ENDBRANCH  12  19
ENDBRANCH   1  13
TORSDOF 3
