REMARK  Name = 
REMARK  1 active torsions:
REMARK  status: ('A' for Active; 'I' for Inactive)
REMARK    1  A    between atoms: C_12  and  C_13
REMARK                            x       y       z     vdW  Elec       q    Type
REMARK                         _______ _______ _______ _____ _____    ______ ____
ROOT
ATOM      1  O   UNL     1       6.217  -0.583   0.922  0.00  0.00    +0.000 OA
ATOM      2  N   UNL     1       5.140   0.021   0.331  0.00  0.00    +0.000 NA
ATOM      3  C   UNL     1       3.923  -0.278   0.568  0.00  0.00    +0.000 C 
ATOM      4  C   UNL     1       3.463  -1.318   1.512  0.00  0.00    +0.000 C 
ATOM      5  C   UNL     1       2.051  -1.648   1.157  0.00  0.00    +0.000 C 
ATOM      6  C   UNL     1       1.623  -0.490   0.336  0.00  0.00    +0.000 A 
ATOM      7  C   UNL     1       2.708   0.303  -0.006  0.00  0.00    +0.000 A 
ATOM      8  N   UNL     1       2.199   1.310  -0.743  0.00  0.00    +0.000 NA
ATOM      9  C   UNL     1       0.876   1.219  -0.896  0.00  0.00    +0.000 A 
ATOM     10  C   UNL     1      -0.056   2.021  -1.568  0.00  0.00    +0.000 A 
ATOM     11  C   UNL     1      -1.381   1.636  -1.531  0.00  0.00    +0.000 A 
ATOM     12  C   UNL     1      -1.816   0.508  -0.867  0.00  0.00    +0.000 A 
ATOM     13  C   UNL     1      -0.850  -0.238  -0.226  0.00  0.00    +0.000 A 
ATOM     14  C   UNL     1       0.477   0.086  -0.223  0.00  0.00    +0.000 A 
ENDROOT
BRANCH  12  15
ATOM     15  C   UNL     1      -3.244   0.192  -0.891  0.00  0.00    +0.000 C 
ATOM     16  C   UNL     1      -3.584  -1.232  -0.655  0.00  0.00    +0.000 C 
ATOM     17  C   UNL     1      -4.631  -1.470   0.384  0.00  0.00    +0.000 C 
ATOM     18  C   UNL     1      -4.365  -0.549   1.546  0.00  0.00    +0.000 C 
ATOM     19  C   UNL     1      -4.618   0.857   1.106  0.00  0.00    +0.000 C 
ATOM     20  C   UNL     1      -4.132   1.187  -0.256  0.00  0.00    +0.000 C 
ENDBRANCH  12  15
TORSDOF 1
