REMARK  Name = 
REMARK  3 active torsions:
REMARK  status: ('A' for Active; 'I' for Inactive)
REMARK    1  A    between atoms: C_2  and  C_4
REMARK    2  A    between atoms: C_8  and  C_9
REMARK    3  A    between atoms: N_11  and  C_12
REMARK                            x       y       z     vdW  Elec       q    Type
REMARK                         _______ _______ _______ _____ _____    ______ ____
ROOT
ATOM      1  C   UNL     1      -3.359  -0.197   0.158  0.00  0.00    +0.000 A 
ATOM      2  C   UNL     1      -2.878  -0.070   1.453  0.00  0.00    +0.000 A 
ATOM      3  C   UNL     1      -3.744  -0.032   2.647  0.00  0.00    +0.000 C 
ATOM      4  N   UNL     1      -1.517   0.007   1.387  0.00  0.00    +0.000 NA
ATOM      5  C   UNL     1      -1.106  -0.063   0.131  0.00  0.00    +0.000 A 
ATOM      6  C   UNL     1      -2.246  -0.189  -0.638  0.00  0.00    +0.000 A 
ATOM      7  C   UNL     1      -2.263  -0.302  -2.126  0.00  0.00    +0.000 C 
ENDROOT
BRANCH   1   9
ATOM      8  C   UNL     1      -5.454   0.955  -0.661  0.00  0.00    +0.000 C 
ATOM      9  C   UNL     1      -4.719  -0.315  -0.327  0.00  0.00    +0.000 C 
ATOM     10  O   UNL     1      -5.305  -1.413  -0.480  0.00  0.00    +0.000 OA
ENDBRANCH   1   9
BRANCH   5  11
ATOM     11  C   UNL     1       0.249  -0.023  -0.424  0.00  0.00    +0.000 C 
ATOM     12  O   UNL     1       0.459  -0.103  -1.661  0.00  0.00    +0.000 OA
ATOM     13  N   UNL     1       1.403   0.108   0.391  0.00  0.00    +0.000 NA
BRANCH  13  14
ATOM     14  C   UNL     1       2.728   0.149  -0.123  0.00  0.00    +0.000 A 
ATOM     15  C   UNL     1       3.047   0.068  -1.455  0.00  0.00    +0.000 A 
ATOM     16  C   UNL     1       4.359   0.114  -1.894  0.00  0.00    +0.000 A 
ATOM     17  C   UNL     1       5.404   0.244  -1.009  0.00  0.00    +0.000 A 
ATOM     18  C   UNL     1       5.101   0.327   0.334  0.00  0.00    +0.000 A 
ATOM     19  F   UNL     1       6.068   0.457   1.283  0.00  0.00    +0.000 F 
ATOM     20  C   UNL     1       3.772   0.279   0.768  0.00  0.00    +0.000 A 
ENDBRANCH  13  14
ENDBRANCH   5  11
TORSDOF 3
