REMARK  Name = 
REMARK  3 active torsions:
REMARK  status: ('A' for Active; 'I' for Inactive)
REMARK    1  A    between atoms: C_2  and  N_3
REMARK    2  A    between atoms: C_12  and  C_13
REMARK    3  A    between atoms: C_15  and  C_16
REMARK                            x       y       z     vdW  Elec       q    Type
REMARK                         _______ _______ _______ _____ _____    ______ ____
ROOT
ATOM      1  N   UNL     1       2.458  -1.366  -0.158  0.00  0.00    +0.000 N 
ATOM      2  N   UNL     1       1.877  -2.248  -0.970  0.00  0.00    +0.000 NA
ATOM      3  C   UNL     1       0.737  -1.681  -1.463  0.00  0.00    +0.000 A 
ATOM      4  C   UNL     1      -0.201  -2.355  -2.416  0.00  0.00    +0.000 C 
ATOM      5  C   UNL     1       0.662  -0.427  -0.914  0.00  0.00    +0.000 A 
ATOM      6  C   UNL     1       1.698  -0.245  -0.131  0.00  0.00    +0.000 A 
ATOM      7  O   UNL     1       1.853   0.938   0.538  0.00  0.00    +0.000 OA
ATOM      8  C   UNL     1       0.946   1.964   0.420  0.00  0.00    +0.000 C 
ATOM      9  N   UNL     1       1.163   3.168   1.142  0.00  0.00    +0.000 NA
ATOM     10  C   UNL     1      -0.070   1.872  -0.306  0.00  0.00    +0.000 C 
ATOM     11  C   UNL     1      -0.483   0.615  -1.184  0.00  0.00    +0.000 C 
ENDROOT
BRANCH  11  12
ATOM     12  C   UNL     1      -1.555   0.017  -0.151  0.00  0.00    +0.000 A 
ATOM     13  C   UNL     1      -1.520   0.294   1.144  0.00  0.00    +0.000 A 
ATOM     14  C   UNL     1      -2.432  -0.214   2.041  0.00  0.00    +0.000 A 
ATOM     15  C   UNL     1      -3.402  -1.041   1.529  0.00  0.00    +0.000 A 
ATOM     16  C   UNL     1      -3.438  -1.329   0.182  0.00  0.00    +0.000 A 
ATOM     17  C   UNL     1      -2.511  -0.807  -0.704  0.00  0.00    +0.000 A 
ENDBRANCH  11  12
BRANCH   1  19
ATOM     18  C   UNL     1       3.455  -2.245   1.912  0.00  0.00    +0.000 C 
ATOM     19  C   UNL     1       3.692  -1.624   0.547  0.00  0.00    +0.000 C 
ENDBRANCH   1  19
BRANCH  10  20
ATOM     20  C   UNL     1      -1.075   2.934  -0.472  0.00  0.00    +0.000 C 
ATOM     21  N   UNL     1      -1.854   3.781  -0.589  0.00  0.00    +0.000 NA
ENDBRANCH  10  20
TORSDOF 3
