REMARK  Name = 
REMARK  3 active torsions:
REMARK  status: ('A' for Active; 'I' for Inactive)
REMARK    1  A    between atoms: O_2  and  C_3
REMARK    2  A    between atoms: C_3  and  C_5
REMARK    3  A    between atoms: C_16  and  C_17
REMARK                            x       y       z     vdW  Elec       q    Type
REMARK                         _______ _______ _______ _____ _____    ______ ____
ROOT
ATOM      1  C   UNL     1      -0.744  -1.014  -0.888  0.00  0.00    +0.000 C 
ATOM      2  C   UNL     1      -0.990  -0.319  -1.964  0.00  0.00    +0.000 C 
ATOM      3  N   UNL     1      -0.980  -1.104  -3.210  0.00  0.00    +0.000 NA
ATOM      4  O   UNL     1      -1.273   1.022  -2.034  0.00  0.00    +0.000 OA
ATOM      5  C   UNL     1      -1.301   1.678  -0.771  0.00  0.00    +0.000 C 
ATOM      6  C   UNL     1      -1.083   1.122   0.354  0.00  0.00    +0.000 C 
ATOM      7  C   UNL     1      -1.131   1.806   1.678  0.00  0.00    +0.000 C 
ATOM      8  O   UNL     1      -1.201   1.152   2.759  0.00  0.00    +0.000 OA
ATOM      9  C   UNL     1      -1.093   3.277   1.619  0.00  0.00    +0.000 C 
ATOM     10  C   UNL     1      -1.974   3.773   0.482  0.00  0.00    +0.000 C 
ATOM     11  C   UNL     1      -1.617   3.156  -0.809  0.00  0.00    +0.000 C 
ATOM     12  C   UNL     1      -0.600  -0.348   0.419  0.00  0.00    +0.000 C 
ENDROOT
BRANCH  12  13
ATOM     13  C   UNL     1       0.944  -0.118   0.705  0.00  0.00    +0.000 A 
ATOM     14  C   UNL     1       1.277   0.646   1.785  0.00  0.00    +0.000 A 
ATOM     15  C   UNL     1       2.580   0.867   2.133  0.00  0.00    +0.000 A 
ATOM     16  C   UNL     1       3.570   0.297   1.366  0.00  0.00    +0.000 A 
ATOM     17  C   UNL     1       3.262  -0.477   0.271  0.00  0.00    +0.000 A 
ATOM     18  C   UNL     1       1.894  -0.668  -0.040  0.00  0.00    +0.000 A 
ATOM     19  F   UNL     1       1.770  -1.414  -1.164  0.00  0.00    +0.000 F 
ENDBRANCH  12  13
BRANCH   1  20
ATOM     20  C   UNL     1      -0.508  -2.481  -0.996  0.00  0.00    +0.000 C 
ATOM     21  O   UNL     1      -0.529  -3.103  -2.063  0.00  0.00    +0.000 OA
BRANCH  20  23
ATOM     22  C   UNL     1      -0.015  -4.576   0.212  0.00  0.00    +0.000 C 
ATOM     23  O   UNL     1      -0.257  -3.173   0.154  0.00  0.00    +0.000 OA
ENDBRANCH  20  23
ENDBRANCH   1  20
TORSDOF 3
