REMARK  Name = 
REMARK  4 active torsions:
REMARK  status: ('A' for Active; 'I' for Inactive)
REMARK    1  A    between atoms: C_2  and  C_3
REMARK    2  A    between atoms: C_3  and  C_4
REMARK    3  A    between atoms: N_10  and  C_11
REMARK    4  A    between atoms: C_15  and  N_16
REMARK                            x       y       z     vdW  Elec       q    Type
REMARK                         _______ _______ _______ _____ _____    ______ ____
ROOT
ATOM      1  O   UNL     1       0.567  -0.129   0.396  0.00  0.00    +0.000 OA
ATOM      2  C   UNL     1       0.790   0.084  -0.805  0.00  0.00    +0.000 C 
ATOM      3  N   UNL     1      -0.333   0.196  -1.673  0.00  0.00    +0.000 NA
ENDROOT
BRANCH   3   4
ATOM      4  C   UNL     1      -1.671   0.071  -1.196  0.00  0.00    +0.000 A 
ATOM      5  C   UNL     1      -2.674   0.197  -2.120  0.00  0.00    +0.000 A 
ATOM      6  C   UNL     1      -3.981   0.089  -1.740  0.00  0.00    +0.000 A 
ATOM      7  C   UNL     1      -4.312  -0.145  -0.437  0.00  0.00    +0.000 A 
ATOM      8  C   UNL     1      -3.318  -0.274   0.508  0.00  0.00    +0.000 A 
ATOM      9  C   UNL     1      -1.993  -0.164   0.113  0.00  0.00    +0.000 A 
BRANCH   8  10
ATOM     10  N   UNL     1      -3.695  -0.516   1.847  0.00  0.00    +0.000 N 
ATOM     11  O   UNL     1      -2.846  -0.645   2.764  0.00  0.00    +0.000 OA
ATOM     12  O   UNL     1      -5.015  -0.619   2.204  0.00  0.00    +0.000 OA
ENDBRANCH   8  10
ENDBRANCH   3   4
BRANCH   2  13
ATOM     13  C   UNL     1       2.133   0.232  -1.413  0.00  0.00    +0.000 C 
BRANCH  13  14
ATOM     14  C   UNL     1       3.247   0.099  -0.426  0.00  0.00    +0.000 C 
ATOM     15  C   UNL     1       3.171   1.135   0.665  0.00  0.00    +0.000 C 
ATOM     16  C   UNL     1       4.311   0.942   1.633  0.00  0.00    +0.000 C 
ATOM     17  C   UNL     1       5.312  -0.078   1.137  0.00  0.00    +0.000 C 
ATOM     18  C   UNL     1       5.752   0.179  -0.276  0.00  0.00    +0.000 C 
ATOM     19  C   UNL     1       4.555   0.190  -1.181  0.00  0.00    +0.000 C 
ENDBRANCH  13  14
ENDBRANCH   2  13
TORSDOF 4
