REMARK  Name = 
REMARK  1 active torsions:
REMARK  status: ('A' for Active; 'I' for Inactive)
REMARK    1  A    between atoms: C_8  and  C_10
REMARK                            x       y       z     vdW  Elec       q    Type
REMARK                         _______ _______ _______ _____ _____    ______ ____
ROOT
ATOM      1  C   UNL     1      -4.435   2.050  -0.480  0.00  0.00    +0.000 C 
ATOM      2  N   UNL     1      -4.888   0.666  -0.421  0.00  0.00    +0.000 N 
ATOM      3  C   UNL     1      -6.354   0.493  -0.446  0.00  0.00    +0.000 C 
ATOM      4  C   UNL     1      -4.028  -0.447  -0.338  0.00  0.00    +0.000 C 
ATOM      5  O   UNL     1      -4.506  -1.631  -0.260  0.00  0.00    +0.000 OA
ATOM      6  N   UNL     1      -2.625  -0.362  -0.327  0.00  0.00    +0.000 N 
ATOM      7  C   UNL     1      -1.488  -1.274  -0.270  0.00  0.00    +0.000 C 
ATOM      8  C   UNL     1      -0.710  -0.178   0.406  0.00  0.00    +0.000 C 
ATOM      9  O   UNL     1      -0.901  -0.114   1.785  0.00  0.00    +0.000 OA
ATOM     10  C   UNL     1      -1.650   0.741  -0.369  0.00  0.00    +0.000 C 
ENDROOT
BRANCH   8  11
ATOM     11  C   UNL     1       0.694  -0.024  -0.012  0.00  0.00    +0.000 A 
ATOM     12  C   UNL     1       0.960   0.426  -1.284  0.00  0.00    +0.000 A 
ATOM     13  C   UNL     1       2.306   0.547  -1.632  0.00  0.00    +0.000 A 
ATOM     14  C   UNL     1       3.287   0.228  -0.726  0.00  0.00    +0.000 A 
ATOM     15  C   UNL     1       4.637   0.347  -1.057  0.00  0.00    +0.000 A 
ATOM     16  C   UNL     1       5.648   0.045  -0.189  0.00  0.00    +0.000 A 
ATOM     17  C   UNL     1       5.325  -0.407   1.090  0.00  0.00    +0.000 A 
ATOM     18  C   UNL     1       4.014  -0.540   1.467  0.00  0.00    +0.000 A 
ATOM     19  C   UNL     1       3.018  -0.224   0.564  0.00  0.00    +0.000 A 
ATOM     20  C   UNL     1       1.696  -0.342   0.894  0.00  0.00    +0.000 A 
ENDBRANCH   8  11
TORSDOF 1
