REMARK  Name = 
REMARK  4 active torsions:
REMARK  status: ('A' for Active; 'I' for Inactive)
REMARK    1  A    between atoms: O_2  and  C_3
REMARK    2  A    between atoms: C_6  and  O_7
REMARK    3  A    between atoms: C_9  and  C_10
REMARK    4  A    between atoms: C_14  and  N_15
REMARK                            x       y       z     vdW  Elec       q    Type
REMARK                         _______ _______ _______ _____ _____    ______ ____
ROOT
ATOM      1  C   UNL     1       0.505  -0.207  -0.090  0.00  0.00    +0.000 A 
ATOM      2  C   UNL     1      -0.136   0.992   0.145  0.00  0.00    +0.000 A 
ATOM      3  C   UNL     1      -1.490   0.848  -0.083  0.00  0.00    +0.000 A 
ATOM      4  C   UNL     1      -2.597   1.680  -0.012  0.00  0.00    +0.000 A 
ATOM      5  C   UNL     1      -3.856   1.228  -0.311  0.00  0.00    +0.000 A 
ATOM      6  C   UNL     1      -3.979  -0.092  -0.686  0.00  0.00    +0.000 A 
ATOM      7  C   UNL     1      -2.906  -0.960  -0.772  0.00  0.00    +0.000 A 
ATOM      8  C   UNL     1      -1.654  -0.467  -0.463  0.00  0.00    +0.000 A 
ATOM      9  N   UNL     1      -0.451  -1.073  -0.459  0.00  0.00    +0.000 NA
ENDROOT
BRANCH   1  14
ATOM     10  C   UNL     1       4.205   0.059   0.499  0.00  0.00    +0.000 A 
ATOM     11  C   UNL     1       4.621  -1.214   0.212  0.00  0.00    +0.000 A 
ATOM     12  C   UNL     1       3.688  -2.146  -0.172  0.00  0.00    +0.000 A 
ATOM     13  C   UNL     1       2.355  -1.790  -0.261  0.00  0.00    +0.000 A 
ATOM     14  C   UNL     1       1.912  -0.519   0.022  0.00  0.00    +0.000 A 
ATOM     15  C   UNL     1       2.877   0.390   0.403  0.00  0.00    +0.000 A 
BRANCH  10  17
ATOM     16  C   UNL     1       4.685   2.307   1.176  0.00  0.00    +0.000 C 
ATOM     17  O   UNL     1       5.129   0.999   0.883  0.00  0.00    +0.000 OA
ENDBRANCH  10  17
BRANCH  13  18
ATOM     18  O   UNL     1       1.440  -2.779  -0.658  0.00  0.00    +0.000 OA
ATOM     19  C   UNL     1       1.864  -4.093  -0.955  0.00  0.00    +0.000 C 
ENDBRANCH  13  18
ENDBRANCH   1  14
BRANCH   5  20
ATOM     20  N   UNL     1      -5.012   2.050  -0.250  0.00  0.00    +0.000 N 
ATOM     21  O   UNL     1      -4.955   3.247   0.083  0.00  0.00    +0.000 OA
ATOM     22  O   UNL     1      -6.245   1.539  -0.561  0.00  0.00    +0.000 OA
ENDBRANCH   5  20
TORSDOF 4
