REMARK  Name = 
REMARK  5 active torsions:
REMARK  status: ('A' for Active; 'I' for Inactive)
REMARK    1  A    between atoms: C_2  and  O_3
REMARK    2  A    between atoms: O_3  and  C_4
REMARK    3  A    between atoms: C_4  and  C_6
REMARK    4  A    between atoms: C_13  and  C_14
REMARK    5  A    between atoms: C_17  and  O_18
REMARK                            x       y       z     vdW  Elec       q    Type
REMARK                         _______ _______ _______ _____ _____    ______ ____
ROOT
ATOM      1  C   UNL     1      -1.256   0.830   0.175  0.00  0.00    +0.000 C 
ATOM      2  C   UNL     1      -1.409   1.275   1.343  0.00  0.00    +0.000 C 
ATOM      3  C   UNL     1      -2.411   0.587   2.225  0.00  0.00    +0.000 C 
ATOM      4  N   UNL     1      -0.716   2.349   1.857  0.00  0.00    +0.000 NA
ATOM      5  C   UNL     1       0.233   3.058   1.128  0.00  0.00    +0.000 C 
ATOM      6  O   UNL     1       0.886   4.054   1.582  0.00  0.00    +0.000 OA
ATOM      7  N   UNL     1       0.424   2.620  -0.108  0.00  0.00    +0.000 NA
ATOM      8  C   UNL     1      -0.219   1.464  -0.884  0.00  0.00    +0.000 C 
ENDROOT
BRANCH   8   9
ATOM      9  C   UNL     1       0.908   0.337  -0.704  0.00  0.00    +0.000 A 
ATOM     10  C   UNL     1       1.209  -0.349  -1.861  0.00  0.00    +0.000 A 
ATOM     11  C   UNL     1       2.183  -1.365  -1.838  0.00  0.00    +0.000 A 
ATOM     12  C   UNL     1       2.823  -1.663  -0.662  0.00  0.00    +0.000 A 
ATOM     13  C   UNL     1       2.489  -0.955   0.459  0.00  0.00    +0.000 A 
ATOM     14  C   UNL     1       1.528   0.041   0.414  0.00  0.00    +0.000 A 
BRANCH  12  15
ATOM     15  O   UNL     1       3.795  -2.684  -0.661  0.00  0.00    +0.000 OA
ATOM     16  C   UNL     1       4.484  -3.039   0.497  0.00  0.00    +0.000 C 
ENDBRANCH  12  15
ENDBRANCH   8   9
BRANCH   1  17
ATOM     17  C   UNL     1      -1.995  -0.323  -0.385  0.00  0.00    +0.000 C 
ATOM     18  O   UNL     1      -1.794  -0.711  -1.550  0.00  0.00    +0.000 OA
BRANCH  17  19
ATOM     19  O   UNL     1      -2.915  -0.971   0.395  0.00  0.00    +0.000 OA
BRANCH  19  21
ATOM     20  C   UNL     1      -4.571  -2.482   1.151  0.00  0.00    +0.000 C 
ATOM     21  C   UNL     1      -3.679  -2.073  -0.017  0.00  0.00    +0.000 C 
ENDBRANCH  19  21
ENDBRANCH  17  19
ENDBRANCH   1  17
TORSDOF 5
