REMARK  Name = 
REMARK  4 active torsions:
REMARK  status: ('A' for Active; 'I' for Inactive)
REMARK    1  A    between atoms: O_2  and  C_3
REMARK    2  A    between atoms: C_6  and  N_7
REMARK    3  A    between atoms: N_7  and  C_8
REMARK    4  A    between atoms: C_8  and  C_9
REMARK                            x       y       z     vdW  Elec       q    Type
REMARK                         _______ _______ _______ _____ _____    ______ ____
ROOT
ATOM      1  C   UNL     1      -0.967   0.230   0.125  0.00  0.00    +0.000 C 
ATOM      2  C   UNL     1      -0.916   0.554   1.603  0.00  0.00    +0.000 C 
ATOM      3  C   UNL     1      -1.345   1.987   1.831  0.00  0.00    +0.000 C 
ATOM      4  C   UNL     1      -2.534   2.366   0.939  0.00  0.00    +0.000 C 
ATOM      5  C   UNL     1      -2.020   2.464  -0.504  0.00  0.00    +0.000 C 
ATOM      6  C   UNL     1      -0.893   1.517  -0.597  0.00  0.00    +0.000 C 
ATOM      7  O   UNL     1       0.072   1.800  -1.257  0.00  0.00    +0.000 OA
ENDROOT
BRANCH   1   8
ATOM      8  C   UNL     1      -2.240  -0.459  -0.164  0.00  0.00    +0.000 A 
ATOM      9  C   UNL     1      -2.951  -1.024   0.863  0.00  0.00    +0.000 A 
ATOM     10  C   UNL     1      -4.150  -1.679   0.633  0.00  0.00    +0.000 A 
ATOM     11  C   UNL     1      -4.648  -1.773  -0.631  0.00  0.00    +0.000 A 
ATOM     12  C   UNL     1      -3.959  -1.217  -1.685  0.00  0.00    +0.000 A 
ATOM     13  C   UNL     1      -2.746  -0.557  -1.435  0.00  0.00    +0.000 A 
ENDBRANCH   1   8
BRANCH   1  14
ATOM     14  N   UNL     1       0.089  -0.650  -0.283  0.00  0.00    +0.000 NA
BRANCH  14  18
ATOM     15  C   UNL     1       4.255  -0.270  -0.175  0.00  0.00    +0.000 A 
ATOM     16  C   UNL     1       3.635  -1.382  -0.661  0.00  0.00    +0.000 A 
ATOM     17  C   UNL     1       2.281  -1.459  -0.676  0.00  0.00    +0.000 A 
ATOM     18  C   UNL     1       1.459  -0.431  -0.205  0.00  0.00    +0.000 A 
ATOM     19  C   UNL     1       2.088   0.675   0.279  0.00  0.00    +0.000 A 
ATOM     20  C   UNL     1       3.464   0.780   0.305  0.00  0.00    +0.000 A 
BRANCH  15  22
ATOM     21  C   UNL     1       6.398  -1.266  -0.651  0.00  0.00    +0.000 C 
ATOM     22  O   UNL     1       5.628  -0.207  -0.167  0.00  0.00    +0.000 OA
ENDBRANCH  15  22
ENDBRANCH  14  18
ENDBRANCH   1  14
TORSDOF 4
