REMARK  Name = 
REMARK  4 active torsions:
REMARK  status: ('A' for Active; 'I' for Inactive)
REMARK    1  A    between atoms: C_2  and  C_4
REMARK    2  A    between atoms: C_8  and  C_9
REMARK    3  A    between atoms: N_11  and  C_12
REMARK    4  A    between atoms: C_12  and  C_13
REMARK                            x       y       z     vdW  Elec       q    Type
REMARK                         _______ _______ _______ _____ _____    ______ ____
ROOT
ATOM      1  C   UNL     1      -0.183   0.230   0.887  0.00  0.00    +0.000 C 
ATOM      2  O   UNL     1      -0.670  -0.926   0.976  0.00  0.00    +0.000 OA
ATOM      3  N   UNL     1      -1.047   1.327   1.101  0.00  0.00    +0.000 NA
ENDROOT
BRANCH   1   8
ATOM      4  C   UNL     1       3.369  -0.055   0.082  0.00  0.00    +0.000 A 
ATOM      5  C   UNL     1       3.205   1.310   0.143  0.00  0.00    +0.000 A 
ATOM      6  C   UNL     1       4.285   2.303  -0.082  0.00  0.00    +0.000 C 
ATOM      7  N   UNL     1       1.916   1.536   0.438  0.00  0.00    +0.000 NA
ATOM      8  C   UNL     1       1.234   0.401   0.571  0.00  0.00    +0.000 A 
ATOM      9  C   UNL     1       2.132  -0.602   0.351  0.00  0.00    +0.000 A 
ATOM     10  C   UNL     1       1.861  -2.076   0.385  0.00  0.00    +0.000 C 
BRANCH   4  12
ATOM     11  C   UNL     1       4.981  -1.152  -1.598  0.00  0.00    +0.000 C 
ATOM     12  C   UNL     1       4.617  -0.794  -0.212  0.00  0.00    +0.000 C 
ATOM     13  O   UNL     1       5.327  -1.087   0.791  0.00  0.00    +0.000 OA
ENDBRANCH   4  12
ENDBRANCH   1   8
BRANCH   3  14
ATOM     14  C   UNL     1      -2.426   1.098   1.407  0.00  0.00    +0.000 C 
BRANCH  14  15
ATOM     15  C   UNL     1      -3.158   0.359   0.358  0.00  0.00    +0.000 A 
ATOM     16  C   UNL     1      -2.596  -0.077  -0.810  0.00  0.00    +0.000 A 
ATOM     17  C   UNL     1      -3.342  -0.761  -1.745  0.00  0.00    +0.000 A 
ATOM     18  C   UNL     1      -4.684  -1.041  -1.554  0.00  0.00    +0.000 A 
ATOM     19  C   UNL     1      -5.247  -0.602  -0.382  0.00  0.00    +0.000 A 
ATOM     20  C   UNL     1      -4.492   0.094   0.571  0.00  0.00    +0.000 A 
ATOM     21  F   UNL     1      -5.083   0.515   1.725  0.00  0.00    +0.000 F 
ENDBRANCH  14  15
ENDBRANCH   3  14
TORSDOF 4
