REMARK  Name = 
REMARK  3 active torsions:
REMARK  status: ('A' for Active; 'I' for Inactive)
REMARK    1  A    between atoms: O_2  and  C_3
REMARK    2  A    between atoms: C_8  and  C_9
REMARK    3  A    between atoms: N_11  and  C_12
REMARK                            x       y       z     vdW  Elec       q    Type
REMARK                         _______ _______ _______ _____ _____    ______ ____
ROOT
ATOM      1  C   UNL     1       5.279  -0.248  -1.010  0.00  0.00    +0.000 A 
ATOM      2  C   UNL     1       4.981   1.018  -1.466  0.00  0.00    +0.000 A 
ATOM      3  C   UNL     1       3.687   1.525  -1.407  0.00  0.00    +0.000 A 
ATOM      4  C   UNL     1       2.675   0.729  -0.874  0.00  0.00    +0.000 A 
ATOM      5  N   UNL     1       1.362   0.952  -0.696  0.00  0.00    +0.000 NA
ATOM      6  C   UNL     1       0.766  -0.122  -0.135  0.00  0.00    +0.000 A 
ATOM      7  C   UNL     1       1.758  -1.052   0.041  0.00  0.00    +0.000 A 
ATOM      8  C   UNL     1       2.953  -0.539  -0.413  0.00  0.00    +0.000 A 
ATOM      9  C   UNL     1       4.244  -1.012  -0.485  0.00  0.00    +0.000 A 
ENDROOT
BRANCH   6  10
ATOM     10  C   UNL     1      -0.631  -0.255   0.205  0.00  0.00    +0.000 C 
ATOM     11  O   UNL     1      -1.043  -1.330   0.729  0.00  0.00    +0.000 OA
ATOM     12  N   UNL     1      -1.575   0.760  -0.015  0.00  0.00    +0.000 NA
BRANCH  12  13
ATOM     13  C   UNL     1      -2.957   0.563   0.349  0.00  0.00    +0.000 A 
ATOM     14  C   UNL     1      -3.849   1.584   0.115  0.00  0.00    +0.000 A 
ATOM     15  C   UNL     1      -5.179   1.444   0.445  0.00  0.00    +0.000 A 
ATOM     16  C   UNL     1      -5.619   0.270   1.014  0.00  0.00    +0.000 A 
ATOM     17  C   UNL     1      -7.072   0.110   1.378  0.00  0.00    +0.000 C 
ATOM     18  C   UNL     1      -4.716  -0.742   1.242  0.00  0.00    +0.000 A 
ATOM     19  F   UNL     1      -5.207  -1.884   1.810  0.00  0.00    +0.000 F 
ATOM     20  C   UNL     1      -3.392  -0.607   0.916  0.00  0.00    +0.000 A 
ENDBRANCH  12  13
ENDBRANCH   6  10
BRANCH   1  22
ATOM     21  C   UNL     1       6.952  -1.982  -0.645  0.00  0.00    +0.000 C 
ATOM     22  O   UNL     1       6.584  -0.691  -1.096  0.00  0.00    +0.000 OA
ENDBRANCH   1  22
TORSDOF 3
