REMARK  Name = 
REMARK  5 active torsions:
REMARK  status: ('A' for Active; 'I' for Inactive)
REMARK    1  A    between atoms: C_2  and  C_3
REMARK    2  A    between atoms: C_3  and  C_4
REMARK    3  A    between atoms: C_4  and  S_5
REMARK    4  A    between atoms: S_5  and  C_6
REMARK    5  A    between atoms: C_9  and  C_10
REMARK                            x       y       z     vdW  Elec       q    Type
REMARK                         _______ _______ _______ _____ _____    ______ ____
ROOT
ATOM      1  C   UNL     1       1.387  -0.655   0.215  0.00  0.00    +0.000 A 
ATOM      2  N   UNL     1       1.354  -0.418  -1.106  0.00  0.00    +0.000 NA
ATOM      3  N   UNL     1       0.138  -0.047  -1.450  0.00  0.00    +0.000 NA
ATOM      4  C   UNL     1      -0.605  -0.050  -0.331  0.00  0.00    +0.000 A 
ATOM      5  N   UNL     1       0.157  -0.424   0.704  0.00  0.00    +0.000 N 
ATOM      6  C   UNL     1      -0.261  -0.560   2.111  0.00  0.00    +0.000 C 
ENDROOT
BRANCH   4   7
ATOM      7  C   UNL     1      -2.005   0.298  -0.275  0.00  0.00    +0.000 A 
ATOM      8  C   UNL     1      -2.677   0.267   0.926  0.00  0.00    +0.000 A 
ATOM      9  C   UNL     1      -4.025   0.599   0.998  0.00  0.00    +0.000 A 
ATOM     10  C   UNL     1      -4.730   0.971  -0.127  0.00  0.00    +0.000 A 
ATOM     11  N   UNL     1      -6.126   1.317  -0.055  0.00  0.00    +0.000 NA
ATOM     12  C   UNL     1      -4.046   0.998  -1.324  0.00  0.00    +0.000 A 
ATOM     13  C   UNL     1      -2.705   0.669  -1.403  0.00  0.00    +0.000 A 
ENDBRANCH   4   7
BRANCH   1  14
ATOM     14  S   UNL     1       2.771  -1.185   1.235  0.00  0.00    +0.000 S 
BRANCH  14  15
ATOM     15  C   UNL     1       4.199  -1.355   0.119  0.00  0.00    +0.000 C 
BRANCH  15  16
ATOM     16  C   UNL     1       4.529   0.037  -0.381  0.00  0.00    +0.000 C 
BRANCH  16  18
ATOM     17  C   UNL     1       6.937  -0.502  -0.631  0.00  0.00    +0.000 C 
ATOM     18  C   UNL     1       5.708   0.040  -1.326  0.00  0.00    +0.000 C 
ENDBRANCH  16  18
ENDBRANCH  15  16
ENDBRANCH  14  15
ENDBRANCH   1  14
TORSDOF 5
