REMARK  Name = 
REMARK  4 active torsions:
REMARK  status: ('A' for Active; 'I' for Inactive)
REMARK    1  A    between atoms: C_2  and  C_3
REMARK    2  A    between atoms: C_3  and  O_4
REMARK    3  A    between atoms: O_4  and  C_5
REMARK    4  A    between atoms: C_14  and  C_15
REMARK                            x       y       z     vdW  Elec       q    Type
REMARK                         _______ _______ _______ _____ _____    ______ ____
ROOT
ATOM      1  C   UNL     1       1.563   0.995  -0.200  0.00  0.00    +0.000 A 
ATOM      2  C   UNL     1       2.648   0.303  -0.663  0.00  0.00    +0.000 A 
ATOM      3  C   UNL     1       2.775  -1.042  -0.679  0.00  0.00    +0.000 A 
ATOM      4  C   UNL     1       1.706  -1.785  -0.177  0.00  0.00    +0.000 A 
ATOM      5  C   UNL     1       1.798  -3.171  -0.152  0.00  0.00    +0.000 A 
ATOM      6  C   UNL     1       0.740  -3.869   0.367  0.00  0.00    +0.000 A 
ATOM      7  C   UNL     1      -0.374  -3.242   0.847  0.00  0.00    +0.000 A 
ATOM      8  C   UNL     1      -0.460  -1.883   0.819  0.00  0.00    +0.000 A 
ATOM      9  C   UNL     1       0.589  -1.148   0.302  0.00  0.00    +0.000 A 
ATOM     10  C   UNL     1       0.515   0.231   0.291  0.00  0.00    +0.000 A 
ENDROOT
BRANCH  10  11
ATOM     11  C   UNL     1      -0.629   0.951   0.826  0.00  0.00    +0.000 C 
ATOM     12  C   UNL     1      -1.817   0.778   0.294  0.00  0.00    +0.000 C 
ATOM     13  S   UNL     1      -3.370   1.581   0.830  0.00  0.00    +0.000 S 
ATOM     14  C   UNL     1      -4.421   0.320   0.110  0.00  0.00    +0.000 C 
ATOM     15  O   UNL     1      -5.558   0.028   0.462  0.00  0.00    +0.000 OA
ATOM     16  N   UNL     1      -3.643  -0.226  -0.917  0.00  0.00    +0.000 NA
ATOM     17  C   UNL     1      -2.273  -0.001  -0.849  0.00  0.00    +0.000 C 
ATOM     18  O   UNL     1      -1.447  -0.441  -1.731  0.00  0.00    +0.000 OA
ENDBRANCH  10  11
BRANCH   1  19
ATOM     19  O   UNL     1       1.445   2.348  -0.191  0.00  0.00    +0.000 OA
BRANCH  19  20
ATOM     20  C   UNL     1       2.233   3.377  -0.570  0.00  0.00    +0.000 C 
BRANCH  20  22
ATOM     21  C   UNL     1       4.442   2.360  -0.071  0.00  0.00    +0.000 C 
ATOM     22  C   UNL     1       3.539   3.536   0.110  0.00  0.00    +0.000 C 
ENDBRANCH  20  22
ENDBRANCH  19  20
ENDBRANCH   1  19
TORSDOF 4
