REMARK  Name = 
REMARK  2 active torsions:
REMARK  status: ('A' for Active; 'I' for Inactive)
REMARK    1  A    between atoms: C_8  and  S_9
REMARK    2  A    between atoms: S_9  and  C_10
REMARK                            x       y       z     vdW  Elec       q    Type
REMARK                         _______ _______ _______ _____ _____    ______ ____
ROOT
ATOM      1  S   UNL     1      -0.620  -0.610  -1.685  0.00  0.00    +0.000 S 
ENDROOT
BRANCH   1   9
ATOM      2  C   UNL     1      -2.779   1.816   1.131  0.00  0.00    +0.000 C 
ATOM      3  C   UNL     1      -2.593   0.435   1.721  0.00  0.00    +0.000 C 
ATOM      4  C   UNL     1      -2.202   0.593   3.170  0.00  0.00    +0.000 C 
ATOM      5  C   UNL     1      -3.918  -0.285   1.610  0.00  0.00    +0.000 C 
ATOM      6  C   UNL     1      -4.220  -0.694   0.226  0.00  0.00    +0.000 C 
ATOM      7  O   UNL     1      -5.380  -1.005  -0.124  0.00  0.00    +0.000 OA
ATOM      8  C   UNL     1      -3.146  -0.732  -0.739  0.00  0.00    +0.000 C 
ATOM      9  C   UNL     1      -1.889  -0.547  -0.432  0.00  0.00    +0.000 C 
ATOM     10  C   UNL     1      -1.489  -0.280   0.965  0.00  0.00    +0.000 C 
ENDBRANCH   1   9
BRANCH   1  11
ATOM     11  C   UNL     1       0.994  -0.322  -0.974  0.00  0.00    +0.000 A 
ATOM     12  N   UNL     1       1.872  -1.207  -0.472  0.00  0.00    +0.000 NA
ATOM     13  C   UNL     1       2.985  -0.600  -0.027  0.00  0.00    +0.000 A 
ATOM     14  C   UNL     1       4.163  -1.002   0.559  0.00  0.00    +0.000 A 
ATOM     15  C   UNL     1       5.143  -0.099   0.910  0.00  0.00    +0.000 A 
ATOM     16  C   UNL     1       4.944   1.244   0.671  0.00  0.00    +0.000 A 
ATOM     17  C   UNL     1       3.769   1.671   0.083  0.00  0.00    +0.000 A 
ATOM     18  C   UNL     1       2.791   0.743  -0.265  0.00  0.00    +0.000 A 
ATOM     19  N   UNL     1       1.575   0.881  -0.840  0.00  0.00    +0.000 NA
ENDBRANCH   1  11
TORSDOF 2
