REMARK  Name = 
REMARK  3 active torsions:
REMARK  status: ('A' for Active; 'I' for Inactive)
REMARK    1  A    between atoms: C_2  and  C_3
REMARK    2  A    between atoms: C_6  and  C_7
REMARK    3  A    between atoms: C_10  and  C_12
REMARK                            x       y       z     vdW  Elec       q    Type
REMARK                         _______ _______ _______ _____ _____    ______ ____
ROOT
ATOM      1  C   UNL     1       0.575  -0.970   0.298  0.00  0.00    +0.000 C 
ATOM      2  O   UNL     1       0.331  -2.093   0.795  0.00  0.00    +0.000 OA
ATOM      3  N   UNL     1      -0.523  -0.174  -0.129  0.00  0.00    +0.000 NA
ATOM      4  C   UNL     1      -1.869  -0.578  -0.023  0.00  0.00    +0.000 C 
ATOM      5  O   UNL     1      -2.154  -1.699   0.471  0.00  0.00    +0.000 OA
ENDROOT
BRANCH   4   6
ATOM      6  C   UNL     1      -2.982   0.271  -0.474  0.00  0.00    +0.000 A 
ATOM      7  C   UNL     1      -2.770   1.511  -1.026  0.00  0.00    +0.000 A 
ATOM      8  C   UNL     1      -3.809   2.308  -1.449  0.00  0.00    +0.000 A 
ATOM      9  C   UNL     1      -5.093   1.865  -1.322  0.00  0.00    +0.000 A 
ATOM     10  C   UNL     1      -5.337   0.615  -0.767  0.00  0.00    +0.000 A 
ATOM     11  C   UNL     1      -4.290  -0.146  -0.360  0.00  0.00    +0.000 A 
ATOM     12  O   UNL     1      -4.520  -1.395   0.195  0.00  0.00    +0.000 OA
ENDBRANCH   4   6
BRANCH   1  16
ATOM     13  C   UNL     1       4.673   0.142   0.029  0.00  0.00    +0.000 A 
ATOM     14  C   UNL     1       3.673   0.967  -0.404  0.00  0.00    +0.000 A 
ATOM     15  C   UNL     1       2.331   0.668  -0.346  0.00  0.00    +0.000 A 
ATOM     16  C   UNL     1       1.959  -0.540   0.182  0.00  0.00    +0.000 A 
ATOM     17  C   UNL     1       2.946  -1.390   0.626  0.00  0.00    +0.000 A 
ATOM     18  C   UNL     1       4.279  -1.077   0.561  0.00  0.00    +0.000 A 
BRANCH  13  20
ATOM     19  C   UNL     1       6.455   1.209   1.254  0.00  0.00    +0.000 C 
ATOM     20  C   UNL     1       6.125   0.504  -0.051  0.00  0.00    +0.000 C 
ENDBRANCH  13  20
ENDBRANCH   1  16
TORSDOF 3
