REMARK  Name = 
REMARK  4 active torsions:
REMARK  status: ('A' for Active; 'I' for Inactive)
REMARK    1  A    between atoms: C_2  and  N_3
REMARK    2  A    between atoms: C_2  and  C_14
REMARK    3  A    between atoms: N_3  and  N_4
REMARK    4  A    between atoms: C_5  and  C_7
REMARK                            x       y       z     vdW  Elec       q    Type
REMARK                         _______ _______ _______ _____ _____    ______ ____
ROOT
ATOM      1  N   UNL     1      -0.375  -0.579  -0.981  0.00  0.00    +0.000 NA
ATOM      2  C   UNL     1      -1.363  -0.361   0.033  0.00  0.00    +0.000 C 
ATOM      3  O   UNL     1      -1.036  -0.445   1.228  0.00  0.00    +0.000 OA
ENDROOT
BRANCH   2   4
ATOM      4  C   UNL     1      -2.765  -0.043  -0.270  0.00  0.00    +0.000 A 
ATOM      5  C   UNL     1      -3.119   0.576  -1.447  0.00  0.00    +0.000 A 
ATOM      6  C   UNL     1      -4.431   0.874  -1.766  0.00  0.00    +0.000 A 
ATOM      7  C   UNL     1      -5.399   0.518  -0.838  0.00  0.00    +0.000 A 
ATOM      8  C   UNL     1      -5.071  -0.106   0.355  0.00  0.00    +0.000 A 
ATOM      9  C   UNL     1      -6.194  -0.447   1.271  0.00  0.00    +0.000 C 
ATOM     10  C   UNL     1      -3.767  -0.373   0.614  0.00  0.00    +0.000 A 
ENDBRANCH   2   4
BRANCH   1  11
ATOM     11  N   UNL     1       0.934  -0.884  -0.537  0.00  0.00    +0.000 NA
BRANCH  11  13
ATOM     12  C   UNL     1       1.150   1.339   0.378  0.00  0.00    +0.000 C 
ATOM     13  C   UNL     1       1.724   0.193  -0.039  0.00  0.00    +0.000 C 
BRANCH  13  14
ATOM     14  C   UNL     1       3.178   0.051   0.013  0.00  0.00    +0.000 A 
ATOM     15  C   UNL     1       3.901  -1.039  -0.364  0.00  0.00    +0.000 A 
ATOM     16  C   UNL     1       5.221  -0.995  -0.249  0.00  0.00    +0.000 A 
ATOM     17  C   UNL     1       5.778   0.156   0.246  0.00  0.00    +0.000 A 
ATOM     18  C   UNL     1       7.242   0.440   0.470  0.00  0.00    +0.000 C 
ATOM     19  S   UNL     1       4.390   1.126   0.526  0.00  0.00    +0.000 S 
ENDBRANCH  13  14
ENDBRANCH  11  13
ENDBRANCH   1  11
TORSDOF 4
