REMARK  Name = 
REMARK  3 active torsions:
REMARK  status: ('A' for Active; 'I' for Inactive)
REMARK    1  A    between atoms: C_7  and  C_8
REMARK    2  A    between atoms: N_10  and  C_11
REMARK    3  A    between atoms: C_16  and  N_17
REMARK                            x       y       z     vdW  Elec       q    Type
REMARK                         _______ _______ _______ _____ _____    ______ ____
ROOT
ATOM      1  C   UNL     1      -1.166  -0.646   0.159  0.00  0.00    +0.000 C 
ATOM      2  O   UNL     1      -0.941  -1.889   0.303  0.00  0.00    +0.000 OA
ATOM      3  N   UNL     1      -0.058   0.186  -0.042  0.00  0.00    +0.000 NA
ENDROOT
BRANCH   1  10
ATOM      4  C   UNL     1      -4.444   3.098  -0.061  0.00  0.00    +0.000 C 
ATOM      5  C   UNL     1      -4.113   1.676   0.099  0.00  0.00    +0.000 A 
ATOM      6  C   UNL     1      -5.129   0.775   0.302  0.00  0.00    +0.000 A 
ATOM      7  C   UNL     1      -4.923  -0.582   0.463  0.00  0.00    +0.000 A 
ATOM      8  C   UNL     1      -6.038  -1.546   0.683  0.00  0.00    +0.000 C 
ATOM      9  C   UNL     1      -3.606  -1.007   0.410  0.00  0.00    +0.000 A 
ATOM     10  C   UNL     1      -2.540  -0.162   0.210  0.00  0.00    +0.000 A 
ATOM     11  C   UNL     1      -2.811   1.179   0.056  0.00  0.00    +0.000 A 
ENDBRANCH   1  10
BRANCH   3  12
ATOM     12  C   UNL     1       1.289  -0.308  -0.089  0.00  0.00    +0.000 A 
ATOM     13  C   UNL     1       1.593  -1.631   0.059  0.00  0.00    +0.000 A 
ATOM     14  C   UNL     1       2.924  -2.012  -0.001  0.00  0.00    +0.000 A 
ATOM     15  C   UNL     1       3.941  -1.079  -0.208  0.00  0.00    +0.000 A 
ATOM     16  F   UNL     1       5.246  -1.432  -0.270  0.00  0.00    +0.000 F 
ATOM     17  C   UNL     1       3.627   0.261  -0.357  0.00  0.00    +0.000 A 
ATOM     18  C   UNL     1       2.285   0.619  -0.293  0.00  0.00    +0.000 A 
BRANCH  17  19
ATOM     19  N   UNL     1       4.628   1.230  -0.568  0.00  0.00    +0.000 N 
ATOM     20  O   UNL     1       4.442   2.393  -0.209  0.00  0.00    +0.000 OA
ATOM     21  O   UNL     1       5.796   0.877  -1.166  0.00  0.00    +0.000 OA
ENDBRANCH  17  19
ENDBRANCH   3  12
TORSDOF 3
