REMARK  Name = 
REMARK  1 active torsions:
REMARK  status: ('A' for Active; 'I' for Inactive)
REMARK    1  A    between atoms: C_5  and  N_6
REMARK                            x       y       z     vdW  Elec       q    Type
REMARK                         _______ _______ _______ _____ _____    ______ ____
ROOT
ATOM      1  N   UNL     1      -1.572  -1.308   1.170  0.00  0.00    +0.000 NA
ATOM      2  C   UNL     1      -0.241  -1.129   0.631  0.00  0.00    +0.000 A 
ATOM      3  N   UNL     1       0.179  -0.219  -0.234  0.00  0.00    +0.000 NA
ATOM      4  C   UNL     1       1.417  -0.203  -0.613  0.00  0.00    +0.000 A 
ATOM      5  C   UNL     1       2.257  -1.152  -0.088  0.00  0.00    +0.000 A 
ATOM      6  S   UNL     1       1.186  -2.015   0.932  0.00  0.00    +0.000 S 
ATOM      7  C   UNL     1       3.691  -1.223  -0.454  0.00  0.00    +0.000 C 
ATOM      8  O   UNL     1       4.284  -2.282  -0.123  0.00  0.00    +0.000 OA
ATOM      9  C   UNL     1       4.395  -0.123  -1.166  0.00  0.00    +0.000 C 
ATOM     10  C   UNL     1       3.457   1.089  -1.070  0.00  0.00    +0.000 C 
ATOM     11  C   UNL     1       3.986   2.237  -1.923  0.00  0.00    +0.000 C 
ATOM     12  C   UNL     1       3.384   1.597   0.355  0.00  0.00    +0.000 C 
ATOM     13  C   UNL     1       2.075   0.760  -1.589  0.00  0.00    +0.000 C 
ENDROOT
BRANCH   1  18
ATOM     14  C   UNL     1      -6.035   1.990  -0.199  0.00  0.00    +0.000 C 
ATOM     15  C   UNL     1      -4.857   1.136   0.149  0.00  0.00    +0.000 A 
ATOM     16  C   UNL     1      -3.609   1.358  -0.401  0.00  0.00    +0.000 A 
ATOM     17  C   UNL     1      -2.517   0.571  -0.082  0.00  0.00    +0.000 A 
ATOM     18  C   UNL     1      -2.636  -0.466   0.798  0.00  0.00    +0.000 A 
ATOM     19  C   UNL     1      -3.876  -0.698   1.353  0.00  0.00    +0.000 A 
ATOM     20  C   UNL     1      -4.970   0.082   1.041  0.00  0.00    +0.000 A 
ENDBRANCH   1  18
TORSDOF 1
