REMARK  Name = 
REMARK  3 active torsions:
REMARK  status: ('A' for Active; 'I' for Inactive)
REMARK    1  A    between atoms: C_3  and  C_4
REMARK    2  A    between atoms: C_4  and  C_5
REMARK    3  A    between atoms: N_15  and  C_16
REMARK                            x       y       z     vdW  Elec       q    Type
REMARK                         _______ _______ _______ _____ _____    ______ ____
ROOT
ATOM      1  O   UNL     1      -1.480  -0.607   2.543  0.00  0.00    +0.000 OA
ATOM      2  C   UNL     1      -1.222  -0.832   1.335  0.00  0.00    +0.000 C 
ATOM      3  C   UNL     1       0.319  -1.134   1.032  0.00  0.00    +0.000 C 
ATOM      4  N   UNL     1       0.112  -1.573  -0.462  0.00  0.00    +0.000 NA
ATOM      5  C   UNL     1      -1.147  -1.319  -0.839  0.00  0.00    +0.000 C 
ATOM      6  S   UNL     1      -1.650  -1.522  -2.409  0.00  0.00    +0.000 S 
ATOM      7  N   UNL     1      -1.947  -0.883   0.195  0.00  0.00    +0.000 N 
ENDROOT
BRANCH   7   8
ATOM      8  C   UNL     1      -3.372  -0.527   0.089  0.00  0.00    +0.000 C 
ATOM      9  C   UNL     1      -3.557   0.077  -1.307  0.00  0.00    +0.000 C 
ATOM     10  C   UNL     1      -4.053   1.500  -1.209  0.00  0.00    +0.000 C 
ATOM     11  C   UNL     1      -3.116   2.375  -0.392  0.00  0.00    +0.000 C 
ATOM     12  C   UNL     1      -2.929   1.740   0.961  0.00  0.00    +0.000 C 
ATOM     13  C   UNL     1      -3.755   0.493   1.147  0.00  0.00    +0.000 C 
ENDBRANCH   7   8
BRANCH   3  14
ATOM     14  C   UNL     1       0.675   0.450   0.625  0.00  0.00    +0.000 C 
BRANCH  14  15
ATOM     15  C   UNL     1       2.142   0.360   0.280  0.00  0.00    +0.000 A 
ATOM     16  C   UNL     1       2.567   0.135  -0.997  0.00  0.00    +0.000 A 
ATOM     17  C   UNL     1       3.906   0.047  -1.288  0.00  0.00    +0.000 A 
ATOM     18  C   UNL     1       4.846   0.189  -0.276  0.00  0.00    +0.000 A 
ATOM     19  O   UNL     1       6.206   0.111  -0.508  0.00  0.00    +0.000 OA
ATOM     20  C   UNL     1       4.397   0.414   0.996  0.00  0.00    +0.000 A 
ATOM     21  C   UNL     1       3.060   0.505   1.308  0.00  0.00    +0.000 A 
ENDBRANCH  14  15
ENDBRANCH   3  14
TORSDOF 3
