REMARK  Name = 
REMARK  2 active torsions:
REMARK  status: ('A' for Active; 'I' for Inactive)
REMARK    1  A    between atoms: C_5  and  N_6
REMARK    2  A    between atoms: C_14  and  C_15
REMARK                            x       y       z     vdW  Elec       q    Type
REMARK                         _______ _______ _______ _____ _____    ______ ____
ROOT
ATOM      1  N   UNL     1       0.411  -0.592  -0.694  0.00  0.00    +0.000 NA
ATOM      2  C   UNL     1      -0.788  -0.085  -0.147  0.00  0.00    +0.000 A 
ATOM      3  N   UNL     1      -0.762   0.864   0.824  0.00  0.00    +0.000 NA
ATOM      4  C   UNL     1      -1.868   1.384   1.382  0.00  0.00    +0.000 A 
ATOM      5  C   UNL     1      -1.773   2.432   2.453  0.00  0.00    +0.000 C 
ATOM      6  C   UNL     1      -3.084   0.917   0.933  0.00  0.00    +0.000 A 
ATOM      7  C   UNL     1      -3.135  -0.055  -0.060  0.00  0.00    +0.000 A 
ATOM      8  C   UNL     1      -4.447  -0.576  -0.563  0.00  0.00    +0.000 C 
ATOM      9  C   UNL     1      -1.986  -0.573  -0.619  0.00  0.00    +0.000 A 
ENDROOT
BRANCH   1  14
ATOM     10  C   UNL     1       5.729   0.938   0.745  0.00  0.00    +0.000 C 
ATOM     11  C   UNL     1       4.333   0.552   0.383  0.00  0.00    +0.000 A 
ATOM     12  C   UNL     1       4.093  -0.405  -0.591  0.00  0.00    +0.000 A 
ATOM     13  C   UNL     1       2.796  -0.750  -0.913  0.00  0.00    +0.000 A 
ATOM     14  C   UNL     1       1.699  -0.179  -0.303  0.00  0.00    +0.000 A 
ATOM     15  C   UNL     1       1.946   0.772   0.665  0.00  0.00    +0.000 A 
ATOM     16  C   UNL     1       3.241   1.117   0.988  0.00  0.00    +0.000 A 
ENDBRANCH   1  14
BRANCH   9  17
ATOM     17  C   UNL     1      -2.061  -1.594  -1.661  0.00  0.00    +0.000 C 
ATOM     18  N   UNL     1      -3.309  -2.079  -2.129  0.00  0.00    +0.000 NA
ATOM     19  O   UNL     1      -1.033  -2.088  -2.192  0.00  0.00    +0.000 OA
ENDBRANCH   9  17
TORSDOF 2
