REMARK  Name = 
REMARK  5 active torsions:
REMARK  status: ('A' for Active; 'I' for Inactive)
REMARK    1  A    between atoms: C_2  and  C_5
REMARK    2  A    between atoms: C_5  and  C_6
REMARK    3  A    between atoms: C_6  and  N_9
REMARK    4  A    between atoms: C_10  and  C_12
REMARK    5  A    between atoms: C_15  and  N_16
REMARK                            x       y       z     vdW  Elec       q    Type
REMARK                         _______ _______ _______ _____ _____    ______ ____
ROOT
ATOM      1  N   UNL     1      -1.089   0.178   0.350  0.00  0.00    +0.000 NA
ATOM      2  C   UNL     1      -0.077   0.034  -0.634  0.00  0.00    +0.000 C 
ATOM      3  O   UNL     1      -0.424   0.049  -1.839  0.00  0.00    +0.000 OA
ENDROOT
BRANCH   2   4
ATOM      4  C   UNL     1       1.331  -0.127  -0.267  0.00  0.00    +0.000 A 
ATOM      5  C   UNL     1       2.311  -0.265  -1.228  0.00  0.00    +0.000 A 
ATOM      6  C   UNL     1       3.638  -0.416  -0.882  0.00  0.00    +0.000 A 
ATOM      7  C   UNL     1       4.052  -0.438   0.433  0.00  0.00    +0.000 A 
ATOM      8  C   UNL     1       3.067  -0.299   1.398  0.00  0.00    +0.000 A 
ATOM      9  C   UNL     1       1.741  -0.147   1.050  0.00  0.00    +0.000 A 
BRANCH   7  10
ATOM     10  N   UNL     1       5.417  -0.594   0.791  0.00  0.00    +0.000 N 
ATOM     11  O   UNL     1       6.259  -0.714  -0.117  0.00  0.00    +0.000 OA
ATOM     12  O   UNL     1       5.854  -0.618   2.087  0.00  0.00    +0.000 OA
ENDBRANCH   7  10
ENDBRANCH   2   4
BRANCH   1  13
ATOM     13  C   UNL     1      -2.500   0.339  -0.032  0.00  0.00    +0.000 C 
ATOM     14  C   UNL     1      -2.850  -0.950  -0.789  0.00  0.00    +0.000 C 
ATOM     15  C   UNL     1      -2.624   1.519  -0.957  0.00  0.00    +0.000 C 
BRANCH  13  16
ATOM     16  C   UNL     1      -3.330   0.467   1.213  0.00  0.00    +0.000 C 
BRANCH  16  18
ATOM     17  C   UNL     1      -5.120   1.657  -0.085  0.00  0.00    +0.000 C 
ATOM     18  C   UNL     1      -4.792   0.500   0.823  0.00  0.00    +0.000 C 
ATOM     19  C   UNL     1      -5.179  -0.789   0.089  0.00  0.00    +0.000 C 
ATOM     20  C   UNL     1      -5.684   0.614   2.044  0.00  0.00    +0.000 C 
ENDBRANCH  16  18
ENDBRANCH  13  16
ENDBRANCH   1  13
TORSDOF 5
