REMARK  Name = 
REMARK  1 active torsions:
REMARK  status: ('A' for Active; 'I' for Inactive)
REMARK    1  A    between atoms: C_8  and  C_9
REMARK                            x       y       z     vdW  Elec       q    Type
REMARK                         _______ _______ _______ _____ _____    ______ ____
ROOT
ATOM      1  C   UNL     1      -5.591   0.304  -0.282  0.00  0.00    +0.000 C 
ATOM      2  C   UNL     1      -4.147  -0.023  -0.418  0.00  0.00    +0.000 A 
ATOM      3  C   UNL     1      -3.767  -1.056  -1.251  0.00  0.00    +0.000 A 
ATOM      4  C   UNL     1      -2.422  -1.373  -1.388  0.00  0.00    +0.000 A 
ATOM      5  C   UNL     1      -2.052  -2.488  -2.290  0.00  0.00    +0.000 C 
ATOM      6  C   UNL     1      -1.452  -0.666  -0.700  0.00  0.00    +0.000 A 
ATOM      7  O   UNL     1      -0.148  -0.753  -0.647  0.00  0.00    +0.000 OA
ATOM      8  C   UNL     1       0.368   0.145   0.157  0.00  0.00    +0.000 A 
ATOM      9  N   UNL     1      -0.668   0.848   0.649  0.00  0.00    +0.000 NA
ATOM     10  C   UNL     1      -1.815   0.366   0.133  0.00  0.00    +0.000 A 
ATOM     11  C   UNL     1      -3.158   0.664   0.255  0.00  0.00    +0.000 A 
ENDROOT
BRANCH   8  12
ATOM     12  C   UNL     1       1.802   0.340   0.459  0.00  0.00    +0.000 A 
ATOM     13  C   UNL     1       2.725  -0.486  -0.146  0.00  0.00    +0.000 A 
ATOM     14  C   UNL     1       4.061  -0.350   0.097  0.00  0.00    +0.000 A 
ATOM     15  N   UNL     1       4.965  -1.233  -0.559  0.00  0.00    +0.000 NA
ATOM     16  C   UNL     1       4.497   0.624   0.958  0.00  0.00    +0.000 A 
ATOM     17  C   UNL     1       3.553   1.454   1.565  0.00  0.00    +0.000 A 
ATOM     18  C   UNL     1       2.205   1.312   1.316  0.00  0.00    +0.000 A 
ATOM     19 CL   UNL     1       1.041   2.370   2.093  0.00  0.00    +0.000 Cl
ENDBRANCH   8  12
TORSDOF 1
