REMARK  Name = 
REMARK  3 active torsions:
REMARK  status: ('A' for Active; 'I' for Inactive)
REMARK    1  A    between atoms: S_2  and  O_5
REMARK    2  A    between atoms: O_5  and  C_6
REMARK    3  A    between atoms: C_6  and  C_7
REMARK                            x       y       z     vdW  Elec       q    Type
REMARK                         _______ _______ _______ _____ _____    ______ ____
ROOT
ATOM      1  C   UNL     1       1.473  -0.233  -1.340  0.00  0.00    +0.000 C 
ATOM      2  C   UNL     1       1.116   1.198  -0.718  0.00  0.00    +0.000 C 
ATOM      3  C   UNL     1       0.785   1.190   0.720  0.00  0.00    +0.000 C 
ATOM      4  C   UNL     1      -0.639   0.640   0.535  0.00  0.00    +0.000 A 
ATOM      5  N   UNL     1      -1.764   0.938   1.252  0.00  0.00    +0.000 NA
ATOM      6  C   UNL     1      -2.814   0.311   0.591  0.00  0.00    +0.000 A 
ATOM      7  C   UNL     1      -4.188   0.355   0.772  0.00  0.00    +0.000 A 
ATOM      8  C   UNL     1      -5.070  -0.192  -0.041  0.00  0.00    +0.000 A 
ATOM      9  C   UNL     1      -4.572  -0.860  -1.126  0.00  0.00    +0.000 A 
ATOM     10  C   UNL     1      -3.235  -0.921  -1.339  0.00  0.00    +0.000 A 
ATOM     11  C   UNL     1      -2.309  -0.335  -0.514  0.00  0.00    +0.000 A 
ATOM     12  C   UNL     1      -0.967  -0.121  -0.498  0.00  0.00    +0.000 A 
ATOM     13  C   UNL     1      -0.060  -0.687  -1.545  0.00  0.00    +0.000 C 
ENDROOT
BRANCH   1  14
ATOM     14  C   UNL     1       1.627  -1.127   0.087  0.00  0.00    +0.000 C 
BRANCH  14  15
ATOM     15  O   UNL     1       2.507  -0.356   0.705  0.00  0.00    +0.000 OA
BRANCH  15  17
ATOM     16  C   UNL     1       5.312  -1.287   0.634  0.00  0.00    +0.000 C 
ATOM     17  S   UNL     1       4.040  -0.158   0.527  0.00  0.00    +0.000 S 
ATOM     18  O   UNL     1       4.379   0.959   1.607  0.00  0.00    +0.000 OA
ATOM     19  O   UNL     1       4.377   0.684  -0.761  0.00  0.00    +0.000 OA
ENDBRANCH  15  17
ENDBRANCH  14  15
ENDBRANCH   1  14
TORSDOF 3
