REMARK  Name = 
REMARK  4 active torsions:
REMARK  status: ('A' for Active; 'I' for Inactive)
REMARK    1  A    between atoms: C_2  and  C_3
REMARK    2  A    between atoms: C_4  and  N_5
REMARK    3  A    between atoms: N_5  and  C_6
REMARK    4  A    between atoms: C_6  and  C_7
REMARK                            x       y       z     vdW  Elec       q    Type
REMARK                         _______ _______ _______ _____ _____    ______ ____
ROOT
ATOM      1  C   UNL     1       1.051  -0.018   0.175  0.00  0.00    +0.000 A 
ATOM      2  C   UNL     1       0.462   1.027   0.829  0.00  0.00    +0.000 A 
ATOM      3  S   UNL     1       1.579   2.314   0.559  0.00  0.00    +0.000 S 
ATOM      4  C   UNL     1       2.737   1.478  -0.366  0.00  0.00    +0.000 A 
ATOM      5  C   UNL     1       2.220   0.213  -0.439  0.00  0.00    +0.000 A 
ATOM      6  C   UNL     1       3.106  -0.729  -1.237  0.00  0.00    +0.000 C 
ATOM      7  C   UNL     1       4.525  -0.648  -0.736  0.00  0.00    +0.000 C 
ATOM      8  C   UNL     1       5.021   0.749  -0.561  0.00  0.00    +0.000 C 
ATOM      9  C   UNL     1       4.052   1.801  -1.038  0.00  0.00    +0.000 C 
ENDROOT
BRANCH   1  11
ATOM     10  N   UNL     1      -0.117  -2.391   0.226  0.00  0.00    +0.000 NA
ATOM     11  C   UNL     1       0.396  -1.336   0.193  0.00  0.00    +0.000 C 
ENDBRANCH   1  11
BRANCH   2  12
ATOM     12  N   UNL     1      -0.750   1.160   1.554  0.00  0.00    +0.000 NA
BRANCH  12  13
ATOM     13  C   UNL     1      -1.731   0.158   1.722  0.00  0.00    +0.000 C 
BRANCH  13  14
ATOM     14  C   UNL     1      -2.440  -0.088   0.417  0.00  0.00    +0.000 A 
ATOM     15  C   UNL     1      -2.157   0.614  -0.733  0.00  0.00    +0.000 A 
ATOM     16  C   UNL     1      -2.823   0.389  -1.917  0.00  0.00    +0.000 A 
ATOM     17  C   UNL     1      -3.824  -0.580  -1.975  0.00  0.00    +0.000 A 
ATOM     18  C   UNL     1      -4.115  -1.287  -0.831  0.00  0.00    +0.000 A 
ATOM     19  C   UNL     1      -3.444  -1.053   0.343  0.00  0.00    +0.000 A 
ATOM     20  O   UNL     1      -3.746  -1.773   1.490  0.00  0.00    +0.000 OA
ENDBRANCH  13  14
ENDBRANCH  12  13
ENDBRANCH   2  12
TORSDOF 4
