MODEL 1
REMARK VINA RESULT:      -7.4      0.000      0.000
REMARK  Name = 
REMARK  1 active torsions:
REMARK  status: ('A' for Active; 'I' for Inactive)
REMARK    1  A    between atoms: C_7  and  C_8
REMARK                            x       y       z     vdW  Elec       q    Type
REMARK                         _______ _______ _______ _____ _____    ______ ____
ROOT
ATOM      1  C   UNL     1      29.826  21.760  11.385  0.00  0.00    +0.000 C 
ATOM      2  N   UNL     1      30.456  20.754  11.807  0.00  0.00    +0.000 NA
ATOM      3  N   UNL     1      31.619  20.411  11.199  0.00  0.00    +0.000 NA
ATOM      4  C   UNL     1      32.145  21.174  10.201  0.00  0.00    +0.000 C 
ATOM      5  C   UNL     1      32.393  20.845   8.856  0.00  0.00    +0.000 C 
ATOM      6  C   UNL     1      34.025  20.954   8.754  0.00  0.00    +0.000 C 
ATOM      7  C   UNL     1      33.949  22.444   9.330  0.00  0.00    +0.000 C 
ATOM      8  C   UNL     1      33.249  22.231  10.744  0.00  0.00    +0.000 C 
ATOM      9  C   UNL     1      34.480  21.200  11.247  0.00  0.00    +0.000 C 
ATOM     10  C   UNL     1      35.763  21.843  10.539  0.00  0.00    +0.000 C 
ATOM     11  C   UNL     1      36.551  20.637  10.406  0.00  0.00    +0.000 C 
ATOM     12  C   UNL     1      35.700  19.578   9.917  0.00  0.00    +0.000 C 
ATOM     13  C   UNL     1      34.179  20.034  10.147  0.00  0.00    +0.000 C 
ATOM     14  S   UNL     1      30.774  22.426  10.024  0.00  0.00    +0.000 S 
ENDROOT
BRANCH   1  21
ATOM     15  O   UNL     1      29.766  23.390  13.609  0.00  0.00    +0.000 OA
ATOM     16  C   UNL     1      28.570  23.200  12.935  0.00  0.00    +0.000 A 
ATOM     17  C   UNL     1      27.380  23.767  13.306  0.00  0.00    +0.000 A 
ATOM     18  C   UNL     1      26.195  23.573  12.632  0.00  0.00    +0.000 A 
ATOM     19  C   UNL     1      26.214  22.747  11.501  0.00  0.00    +0.000 A 
ATOM     20  C   UNL     1      27.405  22.175  11.124  0.00  0.00    +0.000 A 
ATOM     21  C   UNL     1      28.575  22.380  11.809  0.00  0.00    +0.000 A 
ENDBRANCH   1  21
TORSDOF 1
ENDMDL
MODEL 2
REMARK VINA RESULT:      -7.1     30.616     32.516
REMARK  Name = 
REMARK  1 active torsions:
REMARK  status: ('A' for Active; 'I' for Inactive)
REMARK    1  A    between atoms: C_7  and  C_8
REMARK                            x       y       z     vdW  Elec       q    Type
REMARK                         _______ _______ _______ _____ _____    ______ ____
ROOT
ATOM      1  C   UNL     1      18.807   9.332  39.232  0.00  0.00    +0.000 C 
ATOM      2  N   UNL     1      19.083   9.220  38.009  0.00  0.00    +0.000 NA
ATOM      3  N   UNL     1      20.218   9.795  37.541  0.00  0.00    +0.000 NA
ATOM      4  C   UNL     1      21.090  10.420  38.380  0.00  0.00    +0.000 C 
ATOM      5  C   UNL     1      21.494  11.768  38.414  0.00  0.00    +0.000 C 
ATOM      6  C   UNL     1      23.093  11.673  38.069  0.00  0.00    +0.000 C 
ATOM      7  C   UNL     1      23.278  10.634  39.271  0.00  0.00    +0.000 C 
ATOM      8  C   UNL     1      22.299   9.449  38.856  0.00  0.00    +0.000 C 
ATOM      9  C   UNL     1      23.126   9.213  37.410  0.00  0.00    +0.000 C 
ATOM     10  C   UNL     1      24.635   9.536  37.833  0.00  0.00    +0.000 C 
ATOM     11  C   UNL     1      25.115   9.996  36.548  0.00  0.00    +0.000 C 
ATOM     12  C   UNL     1      24.137  10.894  35.981  0.00  0.00    +0.000 C 
ATOM     13  C   UNL     1      22.758  10.667  36.769  0.00  0.00    +0.000 C 
ATOM     14  S   UNL     1      20.123  10.290  39.970  0.00  0.00    +0.000 S 
ENDROOT
BRANCH   1  21
ATOM     15  O   UNL     1      18.824   6.755  40.215  0.00  0.00    +0.000 OA
ATOM     16  C   UNL     1      17.721   7.538  40.518  0.00  0.00    +0.000 A 
ATOM     17  C   UNL     1      16.657   7.109  41.266  0.00  0.00    +0.000 A 
ATOM     18  C   UNL     1      15.563   7.891  41.563  0.00  0.00    +0.000 A 
ATOM     19  C   UNL     1      15.544   9.203  41.068  0.00  0.00    +0.000 A 
ATOM     20  C   UNL     1      16.609   9.638  40.317  0.00  0.00    +0.000 A 
ATOM     21  C   UNL     1      17.689   8.843  40.033  0.00  0.00    +0.000 A 
ENDBRANCH   1  21
TORSDOF 1
ENDMDL
MODEL 3
REMARK VINA RESULT:      -6.7      1.317      2.080
REMARK  Name = 
REMARK  1 active torsions:
REMARK  status: ('A' for Active; 'I' for Inactive)
REMARK    1  A    between atoms: C_7  and  C_8
REMARK                            x       y       z     vdW  Elec       q    Type
REMARK                         _______ _______ _______ _____ _____    ______ ____
ROOT
ATOM      1  C   UNL     1      29.840  22.520  11.043  0.00  0.00    +0.000 C 
ATOM      2  N   UNL     1      30.245  22.922   9.921  0.00  0.00    +0.000 NA
ATOM      3  N   UNL     1      31.528  22.671   9.562  0.00  0.00    +0.000 NA
ATOM      4  C   UNL     1      32.351  21.933  10.359  0.00  0.00    +0.000 C 
ATOM      5  C   UNL     1      33.551  22.302  10.995  0.00  0.00    +0.000 C 
ATOM      6  C   UNL     1      34.656  21.334  10.269  0.00  0.00    +0.000 C 
ATOM      7  C   UNL     1      33.773  20.058  10.654  0.00  0.00    +0.000 C 
ATOM      8  C   UNL     1      32.387  20.368   9.935  0.00  0.00    +0.000 C 
ATOM      9  C   UNL     1      33.135  20.446   8.430  0.00  0.00    +0.000 C 
ATOM     10  C   UNL     1      34.283  19.341   8.571  0.00  0.00    +0.000 C 
ATOM     11  C   UNL     1      35.238  19.916   7.649  0.00  0.00    +0.000 C 
ATOM     12  C   UNL     1      35.331  21.335   7.903  0.00  0.00    +0.000 C 
ATOM     13  C   UNL     1      34.045  21.758   8.765  0.00  0.00    +0.000 C 
ATOM     14  S   UNL     1      31.220  21.695  11.822  0.00  0.00    +0.000 S 
ENDROOT
BRANCH   1  21
ATOM     15  O   UNL     1      29.644  23.764  13.497  0.00  0.00    +0.000 OA
ATOM     16  C   UNL     1      28.474  23.260  12.952  0.00  0.00    +0.000 A 
ATOM     17  C   UNL     1      27.248  23.343  13.554  0.00  0.00    +0.000 A 
ATOM     18  C   UNL     1      26.088  22.840  13.006  0.00  0.00    +0.000 A 
ATOM     19  C   UNL     1      26.176  22.206  11.759  0.00  0.00    +0.000 A 
ATOM     20  C   UNL     1      27.404  22.119  11.151  0.00  0.00    +0.000 A 
ATOM     21  C   UNL     1      28.547  22.627  11.713  0.00  0.00    +0.000 A 
ENDBRANCH   1  21
TORSDOF 1
ENDMDL
MODEL 4
REMARK VINA RESULT:      -6.6     30.124     31.025
REMARK  Name = 
REMARK  1 active torsions:
REMARK  status: ('A' for Active; 'I' for Inactive)
REMARK    1  A    between atoms: C_7  and  C_8
REMARK                            x       y       z     vdW  Elec       q    Type
REMARK                         _______ _______ _______ _____ _____    ______ ____
ROOT
ATOM      1  C   UNL     1      33.621   2.047  34.760  0.00  0.00    +0.000 C 
ATOM      2  N   UNL     1      33.441   3.036  34.002  0.00  0.00    +0.000 NA
ATOM      3  N   UNL     1      33.571   4.284  34.516  0.00  0.00    +0.000 NA
ATOM      4  C   UNL     1      33.964   4.478  35.806  0.00  0.00    +0.000 C 
ATOM      5  C   UNL     1      33.276   5.087  36.872  0.00  0.00    +0.000 C 
ATOM      6  C   UNL     1      34.208   6.394  37.202  0.00  0.00    +0.000 C 
ATOM      7  C   UNL     1      35.476   5.433  37.365  0.00  0.00    +0.000 C 
ATOM      8  C   UNL     1      35.560   4.730  35.938  0.00  0.00    +0.000 C 
ATOM      9  C   UNL     1      35.729   6.216  35.167  0.00  0.00    +0.000 C 
ATOM     10  C   UNL     1      36.581   7.050  36.234  0.00  0.00    +0.000 C 
ATOM     11  C   UNL     1      36.102   8.371  35.892  0.00  0.00    +0.000 C 
ATOM     12  C   UNL     1      34.667   8.321  35.742  0.00  0.00    +0.000 C 
ATOM     13  C   UNL     1      34.253   6.780  35.570  0.00  0.00    +0.000 C 
ATOM     14  S   UNL     1      34.017   2.702  36.375  0.00  0.00    +0.000 S 
ENDROOT
BRANCH   1  21
ATOM     15  O   UNL     1      34.485   0.992  32.362  0.00  0.00    +0.000 OA
ATOM     16  C   UNL     1      33.999   0.099  33.305  0.00  0.00    +0.000 A 
ATOM     17  C   UNL     1      33.927  -1.255  33.115  0.00  0.00    +0.000 A 
ATOM     18  C   UNL     1      33.443  -2.137  34.056  0.00  0.00    +0.000 A 
ATOM     19  C   UNL     1      33.002  -1.611  35.278  0.00  0.00    +0.000 A 
ATOM     20  C   UNL     1      33.072  -0.254  35.474  0.00  0.00    +0.000 A 
ATOM     21  C   UNL     1      33.557   0.608  34.524  0.00  0.00    +0.000 A 
ENDBRANCH   1  21
TORSDOF 1
ENDMDL
MODEL 5
REMARK VINA RESULT:      -6.6      9.674     12.359
REMARK  Name = 
REMARK  1 active torsions:
REMARK  status: ('A' for Active; 'I' for Inactive)
REMARK    1  A    between atoms: C_7  and  C_8
REMARK                            x       y       z     vdW  Elec       q    Type
REMARK                         _______ _______ _______ _____ _____    ______ ____
ROOT
ATOM      1  C   UNL     1      29.657  26.932  19.330  0.00  0.00    +0.000 C 
ATOM      2  N   UNL     1      29.862  25.701  19.496  0.00  0.00    +0.000 NA
ATOM      3  N   UNL     1      29.645  25.162  20.721  0.00  0.00    +0.000 NA
ATOM      4  C   UNL     1      29.143  25.912  21.742  0.00  0.00    +0.000 C 
ATOM      5  C   UNL     1      29.719  26.240  22.983  0.00  0.00    +0.000 C 
ATOM      6  C   UNL     1      28.717  25.507  24.051  0.00  0.00    +0.000 C 
ATOM      7  C   UNL     1      27.476  26.270  23.392  0.00  0.00    +0.000 C 
ATOM      8  C   UNL     1      27.532  25.775  21.879  0.00  0.00    +0.000 C 
ATOM      9  C   UNL     1      27.372  24.169  22.352  0.00  0.00    +0.000 C 
ATOM     10  C   UNL     1      26.407  24.291  23.623  0.00  0.00    +0.000 C 
ATOM     11  C   UNL     1      26.863  23.121  24.341  0.00  0.00    +0.000 C 
ATOM     12  C   UNL     1      28.307  23.096  24.318  0.00  0.00    +0.000 C 
ATOM     13  C   UNL     1      28.790  24.091  23.156  0.00  0.00    +0.000 C 
ATOM     14  S   UNL     1      29.108  27.578  20.904  0.00  0.00    +0.000 S 
ENDROOT
BRANCH   1  21
ATOM     15  O   UNL     1      32.130  27.335  18.177  0.00  0.00    +0.000 OA
ATOM     16  C   UNL     1      31.052  27.987  17.599  0.00  0.00    +0.000 A 
ATOM     17  C   UNL     1      31.145  28.805  16.506  0.00  0.00    +0.000 A 
ATOM     18  C   UNL     1      30.070  29.450  15.936  0.00  0.00    +0.000 A 
ATOM     19  C   UNL     1      28.808  29.253  16.515  0.00  0.00    +0.000 A 
ATOM     20  C   UNL     1      28.709  28.432  17.612  0.00  0.00    +0.000 A 
ATOM     21  C   UNL     1      29.792  27.799  18.164  0.00  0.00    +0.000 A 
ENDBRANCH   1  21
TORSDOF 1
ENDMDL
MODEL 6
REMARK VINA RESULT:      -6.5     32.868     33.644
REMARK  Name = 
REMARK  1 active torsions:
REMARK  status: ('A' for Active; 'I' for Inactive)
REMARK    1  A    between atoms: C_7  and  C_8
REMARK                            x       y       z     vdW  Elec       q    Type
REMARK                         _______ _______ _______ _____ _____    ______ ____
ROOT
ATOM      1  C   UNL     1      33.152   0.329  34.672  0.00  0.00    +0.000 C 
ATOM      2  N   UNL     1      32.089  -0.287  34.946  0.00  0.00    +0.000 NA
ATOM      3  N   UNL     1      32.073  -1.639  34.838  0.00  0.00    +0.000 NA
ATOM      4  C   UNL     1      33.198  -2.334  34.515  0.00  0.00    +0.000 C 
ATOM      5  C   UNL     1      33.460  -3.150  33.399  0.00  0.00    +0.000 C 
ATOM      6  C   UNL     1      33.669  -4.628  34.074  0.00  0.00    +0.000 C 
ATOM      7  C   UNL     1      34.787  -4.016  35.039  0.00  0.00    +0.000 C 
ATOM      8  C   UNL     1      33.985  -2.885  35.822  0.00  0.00    +0.000 C 
ATOM      9  C   UNL     1      32.890  -4.014  36.420  0.00  0.00    +0.000 C 
ATOM     10  C   UNL     1      33.819  -5.300  36.628  0.00  0.00    +0.000 C 
ATOM     11  C   UNL     1      32.807  -6.317  36.444  0.00  0.00    +0.000 C 
ATOM     12  C   UNL     1      32.007  -5.973  35.292  0.00  0.00    +0.000 C 
ATOM     13  C   UNL     1      32.265  -4.423  34.969  0.00  0.00    +0.000 C 
ATOM     14  S   UNL     1      34.355  -0.905  34.201  0.00  0.00    +0.000 S 
ENDROOT
BRANCH   1  21
ATOM     15  O   UNL     1      34.106   1.508  36.976  0.00  0.00    +0.000 OA
ATOM     16  C   UNL     1      33.973   2.321  35.862  0.00  0.00    +0.000 A 
ATOM     17  C   UNL     1      34.283   3.654  35.842  0.00  0.00    +0.000 A 
ATOM     18  C   UNL     1      34.148   4.457  34.731  0.00  0.00    +0.000 A 
ATOM     19  C   UNL     1      33.664   3.868  33.554  0.00  0.00    +0.000 A 
ATOM     20  C   UNL     1      33.351   2.531  33.568  0.00  0.00    +0.000 A 
ATOM     21  C   UNL     1      33.493   1.749  34.686  0.00  0.00    +0.000 A 
ENDBRANCH   1  21
TORSDOF 1
ENDMDL
MODEL 7
REMARK VINA RESULT:      -6.5     12.221     14.975
REMARK  Name = 
REMARK  1 active torsions:
REMARK  status: ('A' for Active; 'I' for Inactive)
REMARK    1  A    between atoms: C_7  and  C_8
REMARK                            x       y       z     vdW  Elec       q    Type
REMARK                         _______ _______ _______ _____ _____    ______ ____
ROOT
ATOM      1  C   UNL     1      28.919  25.540  23.045  0.00  0.00    +0.000 C 
ATOM      2  N   UNL     1      27.851  25.096  23.543  0.00  0.00    +0.000 NA
ATOM      3  N   UNL     1      27.927  24.222  24.577  0.00  0.00    +0.000 NA
ATOM      4  C   UNL     1      29.127  23.881  25.125  0.00  0.00    +0.000 C 
ATOM      5  C   UNL     1      29.757  22.625  25.195  0.00  0.00    +0.000 C 
ATOM      6  C   UNL     1      29.810  22.338  26.807  0.00  0.00    +0.000 C 
ATOM      7  C   UNL     1      30.546  23.741  27.021  0.00  0.00    +0.000 C 
ATOM      8  C   UNL     1      29.492  24.777  26.427  0.00  0.00    +0.000 C 
ATOM      9  C   UNL     1      28.316  24.274  27.519  0.00  0.00    +0.000 C 
ATOM     10  C   UNL     1      29.189  23.940  28.818  0.00  0.00    +0.000 C 
ATOM     11  C   UNL     1      28.329  22.928  29.390  0.00  0.00    +0.000 C 
ATOM     12  C   UNL     1      27.912  22.026  28.342  0.00  0.00    +0.000 C 
ATOM     13  C   UNL     1      28.190  22.754  26.939  0.00  0.00    +0.000 C 
ATOM     14  S   UNL     1      30.261  24.794  23.959  0.00  0.00    +0.000 S 
ENDROOT
BRANCH   1  21
ATOM     15  O   UNL     1      29.657  24.597  20.560  0.00  0.00    +0.000 OA
ATOM     16  C   UNL     1      29.547  25.971  20.705  0.00  0.00    +0.000 A 
ATOM     17  C   UNL     1      29.781  26.870  19.700  0.00  0.00    +0.000 A 
ATOM     18  C   UNL     1      29.670  28.235  19.850  0.00  0.00    +0.000 A 
ATOM     19  C   UNL     1      29.296  28.725  21.109  0.00  0.00    +0.000 A 
ATOM     20  C   UNL     1      29.061  27.827  22.122  0.00  0.00    +0.000 A 
ATOM     21  C   UNL     1      29.176  26.472  21.951  0.00  0.00    +0.000 A 
ENDBRANCH   1  21
TORSDOF 1
ENDMDL
MODEL 8
REMARK VINA RESULT:      -6.2     14.469     16.823
REMARK  Name = 
REMARK  1 active torsions:
REMARK  status: ('A' for Active; 'I' for Inactive)
REMARK    1  A    between atoms: C_7  and  C_8
REMARK                            x       y       z     vdW  Elec       q    Type
REMARK                         _______ _______ _______ _____ _____    ______ ____
ROOT
ATOM      1  C   UNL     1      31.180  22.941  27.921  0.00  0.00    +0.000 C 
ATOM      2  N   UNL     1      31.537  24.011  27.361  0.00  0.00    +0.000 NA
ATOM      3  N   UNL     1      31.065  24.288  26.120  0.00  0.00    +0.000 NA
ATOM      4  C   UNL     1      30.162  23.470  25.511  0.00  0.00    +0.000 C 
ATOM      5  C   UNL     1      30.280  22.731  24.320  0.00  0.00    +0.000 C 
ATOM      6  C   UNL     1      29.150  23.421  23.355  0.00  0.00    +0.000 C 
ATOM      7  C   UNL     1      28.047  23.162  24.482  0.00  0.00    +0.000 C 
ATOM      8  C   UNL     1      28.632  23.964  25.728  0.00  0.00    +0.000 C 
ATOM      9  C   UNL     1      28.621  25.406  24.860  0.00  0.00    +0.000 C 
ATOM     10  C   UNL     1      27.318  25.235  23.947  0.00  0.00    +0.000 C 
ATOM     11  C   UNL     1      27.738  26.057  22.833  0.00  0.00    +0.000 C 
ATOM     12  C   UNL     1      29.105  25.730  22.504  0.00  0.00    +0.000 C 
ATOM     13  C   UNL     1      29.729  24.943  23.756  0.00  0.00    +0.000 C 
ATOM     14  S   UNL     1      30.088  22.105  26.781  0.00  0.00    +0.000 S 
ENDROOT
BRANCH   1  21
ATOM     15  O   UNL     1      29.431  23.218  30.036  0.00  0.00    +0.000 OA
ATOM     16  C   UNL     1      30.601  22.515  30.274  0.00  0.00    +0.000 A 
ATOM     17  C   UNL     1      30.932  21.960  31.481  0.00  0.00    +0.000 A 
ATOM     18  C   UNL     1      32.097  21.263  31.712  0.00  0.00    +0.000 A 
ATOM     19  C   UNL     1      32.993  21.116  30.644  0.00  0.00    +0.000 A 
ATOM     20  C   UNL     1      32.667  21.671  29.431  0.00  0.00    +0.000 A 
ATOM     21  C   UNL     1      31.501  22.362  29.222  0.00  0.00    +0.000 A 
ENDBRANCH   1  21
TORSDOF 1
ENDMDL
MODEL 9
REMARK VINA RESULT:      -6.2     31.127     33.615
REMARK  Name = 
REMARK  1 active torsions:
REMARK  status: ('A' for Active; 'I' for Inactive)
REMARK    1  A    between atoms: C_7  and  C_8
REMARK                            x       y       z     vdW  Elec       q    Type
REMARK                         _______ _______ _______ _____ _____    ______ ____
ROOT
ATOM      1  C   UNL     1      21.125   9.600  38.158  0.00  0.00    +0.000 C 
ATOM      2  N   UNL     1      19.908   9.621  37.836  0.00  0.00    +0.000 NA
ATOM      3  N   UNL     1      19.004   9.045  38.666  0.00  0.00    +0.000 NA
ATOM      4  C   UNL     1      19.382   8.518  39.864  0.00  0.00    +0.000 C 
ATOM      5  C   UNL     1      19.303   7.191  40.326  0.00  0.00    +0.000 C 
ATOM      6  C   UNL     1      18.255   7.307  41.580  0.00  0.00    +0.000 C 
ATOM      7  C   UNL     1      19.175   8.445  42.226  0.00  0.00    +0.000 C 
ATOM      8  C   UNL     1      19.190   9.561  41.091  0.00  0.00    +0.000 C 
ATOM      9  C   UNL     1      17.515   9.705  41.148  0.00  0.00    +0.000 C 
ATOM     10  C   UNL     1      17.213   9.464  42.701  0.00  0.00    +0.000 C 
ATOM     11  C   UNL     1      15.881   8.917  42.570  0.00  0.00    +0.000 C 
ATOM     12  C   UNL     1      15.881   7.946  41.501  0.00  0.00    +0.000 C 
ATOM     13  C   UNL     1      17.201   8.193  40.623  0.00  0.00    +0.000 C 
ATOM     14  S   UNL     1      21.228   8.746  39.724  0.00  0.00    +0.000 S 
ENDROOT
BRANCH   1  21
ATOM     15  O   UNL     1      22.155  12.055  38.877  0.00  0.00    +0.000 OA
ATOM     16  C   UNL     1      22.822  11.360  37.881  0.00  0.00    +0.000 A 
ATOM     17  C   UNL     1      23.945  11.816  37.245  0.00  0.00    +0.000 A 
ATOM     18  C   UNL     1      24.603  11.121  36.255  0.00  0.00    +0.000 A 
ATOM     19  C   UNL     1      24.088   9.872  35.882  0.00  0.00    +0.000 A 
ATOM     20  C   UNL     1      22.961   9.408  36.516  0.00  0.00    +0.000 A 
ATOM     21  C   UNL     1      22.321  10.117  37.500  0.00  0.00    +0.000 A 
ENDBRANCH   1  21
TORSDOF 1
ENDMDL
MODEL 10
REMARK VINA RESULT:      -6.1     14.959     16.825
REMARK  Name = 
REMARK  1 active torsions:
REMARK  status: ('A' for Active; 'I' for Inactive)
REMARK    1  A    between atoms: C_7  and  C_8
REMARK                            x       y       z     vdW  Elec       q    Type
REMARK                         _______ _______ _______ _____ _____    ______ ____
ROOT
ATOM      1  C   UNL     1      29.371  22.830  26.038  0.00  0.00    +0.000 C 
ATOM      2  N   UNL     1      30.042  21.810  26.344  0.00  0.00    +0.000 NA
ATOM      3  N   UNL     1      31.081  21.946  27.204  0.00  0.00    +0.000 NA
ATOM      4  C   UNL     1      31.357  23.144  27.793  0.00  0.00    +0.000 C 
ATOM      5  C   UNL     1      32.505  23.950  27.693  0.00  0.00    +0.000 C 
ATOM      6  C   UNL     1      33.089  23.935  29.225  0.00  0.00    +0.000 C 
ATOM      7  C   UNL     1      31.667  24.436  29.758  0.00  0.00    +0.000 C 
ATOM      8  C   UNL     1      30.688  23.281  29.264  0.00  0.00    +0.000 C 
ATOM      9  C   UNL     1      31.547  22.122  30.131  0.00  0.00    +0.000 C 
ATOM     10  C   UNL     1      32.004  22.945  31.424  0.00  0.00    +0.000 C 
ATOM     11  C   UNL     1      33.215  22.211  31.719  0.00  0.00    +0.000 C 
ATOM     12  C   UNL     1      33.945  22.007  30.490  0.00  0.00    +0.000 C 
ATOM     13  C   UNL     1      32.929  22.267  29.275  0.00  0.00    +0.000 C 
ATOM     14  S   UNL     1      30.091  24.204  26.924  0.00  0.00    +0.000 S 
ENDROOT
BRANCH   1  21
ATOM     15  O   UNL     1      29.739  23.414  23.368  0.00  0.00    +0.000 OA
ATOM     16  C   UNL     1      28.431  23.311  23.816  0.00  0.00    +0.000 A 
ATOM     17  C   UNL     1      27.331  23.481  23.019  0.00  0.00    +0.000 A 
ATOM     18  C   UNL     1      26.034  23.378  23.470  0.00  0.00    +0.000 A 
ATOM     19  C   UNL     1      25.835  23.081  24.826  0.00  0.00    +0.000 A 
ATOM     20  C   UNL     1      26.935  22.910  25.630  0.00  0.00    +0.000 A 
ATOM     21  C   UNL     1      28.219  23.017  25.160  0.00  0.00    +0.000 A 
ENDBRANCH   1  21
TORSDOF 1
ENDMDL
