MODEL 1
REMARK VINA RESULT:      -7.2      0.000      0.000
REMARK  Name = 
REMARK  0 active torsions:
REMARK  status: ('A' for Active; 'I' for Inactive)
REMARK                            x       y       z     vdW  Elec       q    Type
REMARK                         _______ _______ _______ _____ _____    ______ ____
ROOT
ATOM      1  C   UNL     1      33.464   0.029  37.536  0.00  0.00    +0.000 C 
ATOM      2  C   UNL     1      33.876   0.157  36.064  0.00  0.00    +0.000 C 
ATOM      3  C   UNL     1      35.112  -0.547  35.811  0.00  0.00    +0.000 C 
ATOM      4  C   UNL     1      35.170  -1.817  35.082  0.00  0.00    +0.000 C 
ATOM      5  C   UNL     1      34.009  -2.576  34.834  0.00  0.00    +0.000 C 
ATOM      6  C   UNL     1      33.435  -2.806  33.526  0.00  0.00    +0.000 C 
ATOM      7  C   UNL     1      33.950  -3.986  35.653  0.00  0.00    +0.000 C 
ATOM      8  O   UNL     1      34.521  -4.793  34.514  0.00  0.00    +0.000 OA
ATOM      9  C   UNL     1      32.402  -4.234  35.189  0.00  0.00    +0.000 C 
ATOM     10  C   UNL     1      31.784  -2.874  35.234  0.00  0.00    +0.000 C 
ATOM     11  C   UNL     1      32.962  -2.013  35.903  0.00  0.00    +0.000 C 
ATOM     12  C   UNL     1      32.605  -0.488  35.314  0.00  0.00    +0.000 C 
ATOM     13  C   UNL     1      33.251  -0.475  33.864  0.00  0.00    +0.000 C 
ATOM     14  C   UNL     1      33.756   0.795  33.450  0.00  0.00    +0.000 C 
ATOM     15  C   UNL     1      33.809   1.917  34.384  0.00  0.00    +0.000 A 
ATOM     16  C   UNL     1      33.798   3.251  33.958  0.00  0.00    +0.000 A 
ATOM     17  C   UNL     1      33.851   4.286  34.866  0.00  0.00    +0.000 A 
ATOM     18  O   UNL     1      33.845   5.613  34.522  0.00  0.00    +0.000 OA
ATOM     19  C   UNL     1      33.914   3.954  36.214  0.00  0.00    +0.000 A 
ATOM     20  C   UNL     1      33.924   2.633  36.616  0.00  0.00    +0.000 A 
ATOM     21  C   UNL     1      33.872   1.599  35.725  0.00  0.00    +0.000 A 
ENDROOT
TORSDOF 0
ENDMDL
MODEL 2
REMARK VINA RESULT:      -7.1      1.101      2.625
REMARK  Name = 
REMARK  0 active torsions:
REMARK  status: ('A' for Active; 'I' for Inactive)
REMARK                            x       y       z     vdW  Elec       q    Type
REMARK                         _______ _______ _______ _____ _____    ______ ____
ROOT
ATOM      1  C   UNL     1      33.893  -0.496  33.007  0.00  0.00    +0.000 C 
ATOM      2  C   UNL     1      33.560  -0.047  34.435  0.00  0.00    +0.000 C 
ATOM      3  C   UNL     1      32.286  -0.581  34.861  0.00  0.00    +0.000 C 
ATOM      4  C   UNL     1      32.165  -1.674  35.830  0.00  0.00    +0.000 C 
ATOM      5  C   UNL     1      33.276  -2.463  36.190  0.00  0.00    +0.000 C 
ATOM      6  C   UNL     1      33.889  -2.478  37.500  0.00  0.00    +0.000 C 
ATOM      7  C   UNL     1      33.189  -4.007  35.668  0.00  0.00    +0.000 C 
ATOM      8  O   UNL     1      32.612  -4.523  36.962  0.00  0.00    +0.000 OA
ATOM      9  C   UNL     1      34.734  -4.287  36.126  0.00  0.00    +0.000 C 
ATOM     10  C   UNL     1      35.451  -3.019  35.792  0.00  0.00    +0.000 C 
ATOM     11  C   UNL     1      34.313  -2.211  35.000  0.00  0.00    +0.000 C 
ATOM     12  C   UNL     1      34.810  -0.635  35.261  0.00  0.00    +0.000 C 
ATOM     13  C   UNL     1      34.235  -0.283  36.698  0.00  0.00    +0.000 C 
ATOM     14  C   UNL     1      33.847   1.081  36.864  0.00  0.00    +0.000 C 
ATOM     15  C   UNL     1      33.837   1.997  35.727  0.00  0.00    +0.000 A 
ATOM     16  C   UNL     1      33.968   3.384  35.877  0.00  0.00    +0.000 A 
ATOM     17  C   UNL     1      33.953   4.221  34.783  0.00  0.00    +0.000 A 
ATOM     18  O   UNL     1      34.076   5.584  34.854  0.00  0.00    +0.000 OA
ATOM     19  C   UNL     1      33.803   3.636  33.530  0.00  0.00    +0.000 A 
ATOM     20  C   UNL     1      33.674   2.268  33.401  0.00  0.00    +0.000 A 
ATOM     21  C   UNL     1      33.688   1.429  34.479  0.00  0.00    +0.000 A 
ENDROOT
TORSDOF 0
ENDMDL
MODEL 3
REMARK VINA RESULT:      -7.0     23.893     26.167
REMARK  Name = 
REMARK  0 active torsions:
REMARK  status: ('A' for Active; 'I' for Inactive)
REMARK                            x       y       z     vdW  Elec       q    Type
REMARK                         _______ _______ _______ _____ _____    ______ ____
ROOT
ATOM      1  C   UNL     1      30.932  24.513  24.746  0.00  0.00    +0.000 C 
ATOM      2  C   UNL     1      29.762  23.631  25.197  0.00  0.00    +0.000 C 
ATOM      3  C   UNL     1      30.231  22.337  25.638  0.00  0.00    +0.000 C 
ATOM      4  C   UNL     1      30.273  21.945  27.050  0.00  0.00    +0.000 C 
ATOM      5  C   UNL     1      30.133  22.896  28.081  0.00  0.00    +0.000 C 
ATOM      6  C   UNL     1      29.012  22.968  28.993  0.00  0.00    +0.000 C 
ATOM      7  C   UNL     1      31.493  23.135  28.951  0.00  0.00    +0.000 C 
ATOM      8  O   UNL     1      31.102  22.154  30.028  0.00  0.00    +0.000 OA
ATOM      9  C   UNL     1      30.818  24.409  29.724  0.00  0.00    +0.000 C 
ATOM     10  C   UNL     1      30.017  25.097  28.666  0.00  0.00    +0.000 C 
ATOM     11  C   UNL     1      30.459  24.282  27.355  0.00  0.00    +0.000 C 
ATOM     12  C   UNL     1      29.121  24.519  26.377  0.00  0.00    +0.000 C 
ATOM     13  C   UNL     1      28.088  23.417  26.865  0.00  0.00    +0.000 C 
ATOM     14  C   UNL     1      27.252  22.889  25.835  0.00  0.00    +0.000 C 
ATOM     15  C   UNL     1      27.484  23.237  24.435  0.00  0.00    +0.000 A 
ATOM     16  C   UNL     1      26.468  23.193  23.471  0.00  0.00    +0.000 A 
ATOM     17  C   UNL     1      26.721  23.526  22.159  0.00  0.00    +0.000 A 
ATOM     18  O   UNL     1      25.778  23.505  21.164  0.00  0.00    +0.000 OA
ATOM     19  C   UNL     1      28.017  23.907  21.832  0.00  0.00    +0.000 A 
ATOM     20  C   UNL     1      29.006  23.945  22.794  0.00  0.00    +0.000 A 
ATOM     21  C   UNL     1      28.767  23.617  24.099  0.00  0.00    +0.000 A 
ENDROOT
TORSDOF 0
ENDMDL
MODEL 4
REMARK VINA RESULT:      -7.0     23.583     25.876
REMARK  Name = 
REMARK  0 active torsions:
REMARK  status: ('A' for Active; 'I' for Inactive)
REMARK                            x       y       z     vdW  Elec       q    Type
REMARK                         _______ _______ _______ _____ _____    ______ ____
ROOT
ATOM      1  C   UNL     1      27.670  22.738  28.024  0.00  0.00    +0.000 C 
ATOM      2  C   UNL     1      28.464  23.393  26.887  0.00  0.00    +0.000 C 
ATOM      3  C   UNL     1      28.882  24.727  27.252  0.00  0.00    +0.000 C 
ATOM      4  C   UNL     1      30.268  25.062  27.593  0.00  0.00    +0.000 C 
ATOM      5  C   UNL     1      31.220  24.060  27.866  0.00  0.00    +0.000 C 
ATOM      6  C   UNL     1      32.370  23.764  27.039  0.00  0.00    +0.000 C 
ATOM      7  C   UNL     1      31.709  24.015  29.423  0.00  0.00    +0.000 C 
ATOM      8  O   UNL     1      32.925  24.872  29.176  0.00  0.00    +0.000 OA
ATOM      9  C   UNL     1      32.516  22.615  29.168  0.00  0.00    +0.000 C 
ATOM     10  C   UNL     1      31.634  21.848  28.237  0.00  0.00    +0.000 C 
ATOM     11  C   UNL     1      30.326  22.778  28.202  0.00  0.00    +0.000 C 
ATOM     12  C   UNL     1      29.689  22.363  26.711  0.00  0.00    +0.000 C 
ATOM     13  C   UNL     1      30.503  23.256  25.682  0.00  0.00    +0.000 C 
ATOM     14  C   UNL     1      29.756  23.679  24.541  0.00  0.00    +0.000 C 
ATOM     15  C   UNL     1      28.319  23.432  24.459  0.00  0.00    +0.000 A 
ATOM     16  C   UNL     1      27.639  23.346  23.236  0.00  0.00    +0.000 A 
ATOM     17  C   UNL     1      26.283  23.114  23.193  0.00  0.00    +0.000 A 
ATOM     18  O   UNL     1      25.554  23.018  22.036  0.00  0.00    +0.000 OA
ATOM     19  C   UNL     1      25.618  22.969  24.405  0.00  0.00    +0.000 A 
ATOM     20  C   UNL     1      26.303  23.056  25.601  0.00  0.00    +0.000 A 
ATOM     21  C   UNL     1      27.649  23.286  25.655  0.00  0.00    +0.000 A 
ENDROOT
TORSDOF 0
ENDMDL
MODEL 5
REMARK VINA RESULT:      -7.0     24.557     26.978
REMARK  Name = 
REMARK  0 active torsions:
REMARK  status: ('A' for Active; 'I' for Inactive)
REMARK                            x       y       z     vdW  Elec       q    Type
REMARK                         _______ _______ _______ _____ _____    ______ ____
ROOT
ATOM      1  C   UNL     1      25.679  23.058  25.282  0.00  0.00    +0.000 C 
ATOM      2  C   UNL     1      26.882  23.984  25.502  0.00  0.00    +0.000 C 
ATOM      3  C   UNL     1      26.473  25.221  26.128  0.00  0.00    +0.000 C 
ATOM      4  C   UNL     1      26.753  25.532  27.533  0.00  0.00    +0.000 C 
ATOM      5  C   UNL     1      27.179  24.537  28.435  0.00  0.00    +0.000 C 
ATOM      6  C   UNL     1      28.488  24.483  29.049  0.00  0.00    +0.000 C 
ATOM      7  C   UNL     1      26.080  24.168  29.584  0.00  0.00    +0.000 C 
ATOM      8  O   UNL     1      26.672  25.111  30.601  0.00  0.00    +0.000 OA
ATOM      9  C   UNL     1      26.978  22.897  30.087  0.00  0.00    +0.000 C 
ATOM     10  C   UNL     1      27.533  22.319  28.827  0.00  0.00    +0.000 C 
ATOM     11  C   UNL     1      26.753  23.175  27.715  0.00  0.00    +0.000 C 
ATOM     12  C   UNL     1      27.826  23.074  26.435  0.00  0.00    +0.000 C 
ATOM     13  C   UNL     1      28.895  24.208  26.738  0.00  0.00    +0.000 C 
ATOM     14  C   UNL     1      29.434  24.841  25.577  0.00  0.00    +0.000 C 
ATOM     15  C   UNL     1      28.890  24.556  24.252  0.00  0.00    +0.000 A 
ATOM     16  C   UNL     1      29.642  24.715  23.080  0.00  0.00    +0.000 A 
ATOM     17  C   UNL     1      29.098  24.439  21.846  0.00  0.00    +0.000 A 
ATOM     18  O   UNL     1      29.772  24.571  20.660  0.00  0.00    +0.000 OA
ATOM     19  C   UNL     1      27.780  23.998  21.809  0.00  0.00    +0.000 A 
ATOM     20  C   UNL     1      27.053  23.848  22.973  0.00  0.00    +0.000 A 
ATOM     21  C   UNL     1      27.583  24.118  24.204  0.00  0.00    +0.000 A 
ENDROOT
TORSDOF 0
ENDMDL
MODEL 6
REMARK VINA RESULT:      -6.9     25.364     27.352
REMARK  Name = 
REMARK  0 active torsions:
REMARK  status: ('A' for Active; 'I' for Inactive)
REMARK                            x       y       z     vdW  Elec       q    Type
REMARK                         _______ _______ _______ _____ _____    ______ ____
ROOT
ATOM      1  C   UNL     1      26.126  26.405  25.444  0.00  0.00    +0.000 C 
ATOM      2  C   UNL     1      26.534  24.960  25.753  0.00  0.00    +0.000 C 
ATOM      3  C   UNL     1      25.876  24.035  24.859  0.00  0.00    +0.000 C 
ATOM      4  C   UNL     1      26.573  23.353  23.764  0.00  0.00    +0.000 C 
ATOM      5  C   UNL     1      27.849  23.768  23.335  0.00  0.00    +0.000 C 
ATOM      6  C   UNL     1      29.063  22.994  23.482  0.00  0.00    +0.000 C 
ATOM      7  C   UNL     1      27.864  24.428  21.842  0.00  0.00    +0.000 C 
ATOM      8  O   UNL     1      28.235  23.137  21.159  0.00  0.00    +0.000 OA
ATOM      9  C   UNL     1      29.420  24.898  22.027  0.00  0.00    +0.000 C 
ATOM     10  C   UNL     1      29.507  25.328  23.454  0.00  0.00    +0.000 C 
ATOM     11  C   UNL     1      27.966  25.258  23.900  0.00  0.00    +0.000 C 
ATOM     12  C   UNL     1      28.130  25.022  25.549  0.00  0.00    +0.000 C 
ATOM     13  C   UNL     1      28.372  23.460  25.693  0.00  0.00    +0.000 C 
ATOM     14  C   UNL     1      27.826  22.882  26.878  0.00  0.00    +0.000 C 
ATOM     15  C   UNL     1      26.973  23.667  27.767  0.00  0.00    +0.000 A 
ATOM     16  C   UNL     1      26.828  23.368  29.128  0.00  0.00    +0.000 A 
ATOM     17  C   UNL     1      26.015  24.128  29.939  0.00  0.00    +0.000 A 
ATOM     18  O   UNL     1      25.826  23.894  31.276  0.00  0.00    +0.000 OA
ATOM     19  C   UNL     1      25.348  25.200  29.355  0.00  0.00    +0.000 A 
ATOM     20  C   UNL     1      25.503  25.480  28.012  0.00  0.00    +0.000 A 
ATOM     21  C   UNL     1      26.307  24.732  27.199  0.00  0.00    +0.000 A 
ENDROOT
TORSDOF 0
ENDMDL
MODEL 7
REMARK VINA RESULT:      -6.9     23.219     25.925
REMARK  Name = 
REMARK  0 active torsions:
REMARK  status: ('A' for Active; 'I' for Inactive)
REMARK                            x       y       z     vdW  Elec       q    Type
REMARK                         _______ _______ _______ _____ _____    ______ ____
ROOT
ATOM      1  C   UNL     1      27.984  25.004  27.859  0.00  0.00    +0.000 C 
ATOM      2  C   UNL     1      28.614  23.753  27.233  0.00  0.00    +0.000 C 
ATOM      3  C   UNL     1      27.599  22.791  26.871  0.00  0.00    +0.000 C 
ATOM      4  C   UNL     1      27.201  22.538  25.483  0.00  0.00    +0.000 C 
ATOM      5  C   UNL     1      27.571  23.412  24.442  0.00  0.00    +0.000 C 
ATOM      6  C   UNL     1      28.481  23.081  23.368  0.00  0.00    +0.000 C 
ATOM      7  C   UNL     1      26.320  24.235  23.791  0.00  0.00    +0.000 C 
ATOM      8  O   UNL     1      26.118  23.249  22.669  0.00  0.00    +0.000 OA
ATOM      9  C   UNL     1      27.341  25.172  22.923  0.00  0.00    +0.000 C 
ATOM     10  C   UNL     1      28.494  25.409  23.843  0.00  0.00    +0.000 C 
ATOM     11  C   UNL     1      27.948  24.764  25.207  0.00  0.00    +0.000 C 
ATOM     12  C   UNL     1      29.388  24.377  25.967  0.00  0.00    +0.000 C 
ATOM     13  C   UNL     1      29.799  22.984  25.327  0.00  0.00    +0.000 C 
ATOM     14  C   UNL     1      30.481  22.100  26.217  0.00  0.00    +0.000 C 
ATOM     15  C   UNL     1      30.613  22.425  27.635  0.00  0.00    +0.000 A 
ATOM     16  C   UNL     1      31.646  21.913  28.431  0.00  0.00    +0.000 A 
ATOM     17  C   UNL     1      31.741  22.238  29.766  0.00  0.00    +0.000 A 
ATOM     18  O   UNL     1      32.722  21.776  30.603  0.00  0.00    +0.000 OA
ATOM     19  C   UNL     1      30.775  23.090  30.289  0.00  0.00    +0.000 A 
ATOM     20  C   UNL     1      29.763  23.585  29.490  0.00  0.00    +0.000 A 
ATOM     21  C   UNL     1      29.660  23.270  28.164  0.00  0.00    +0.000 A 
ENDROOT
TORSDOF 0
ENDMDL
MODEL 8
REMARK VINA RESULT:      -6.7     19.191     21.243
REMARK  Name = 
REMARK  0 active torsions:
REMARK  status: ('A' for Active; 'I' for Inactive)
REMARK                            x       y       z     vdW  Elec       q    Type
REMARK                         _______ _______ _______ _____ _____    ______ ____
ROOT
ATOM      1  C   UNL     1      25.108   4.520  14.466  0.00  0.00    +0.000 C 
ATOM      2  C   UNL     1      25.337   4.006  15.893  0.00  0.00    +0.000 C 
ATOM      3  C   UNL     1      26.497   3.147  15.952  0.00  0.00    +0.000 C 
ATOM      4  C   UNL     1      27.767   3.564  16.553  0.00  0.00    +0.000 C 
ATOM      5  C   UNL     1      28.029   4.916  16.851  0.00  0.00    +0.000 C 
ATOM      6  C   UNL     1      28.175   5.456  18.185  0.00  0.00    +0.000 C 
ATOM      7  C   UNL     1      29.189   5.587  15.919  0.00  0.00    +0.000 C 
ATOM      8  O   UNL     1      30.290   5.326  16.915  0.00  0.00    +0.000 OA
ATOM      9  C   UNL     1      28.860   7.074  16.517  0.00  0.00    +0.000 C 
ATOM     10  C   UNL     1      27.373   7.091  16.659  0.00  0.00    +0.000 C 
ATOM     11  C   UNL     1      26.971   5.708  15.952  0.00  0.00    +0.000 C 
ATOM     12  C   UNL     1      25.515   5.382  16.710  0.00  0.00    +0.000 C 
ATOM     13  C   UNL     1      25.938   4.702  18.080  0.00  0.00    +0.000 C 
ATOM     14  C   UNL     1      25.033   3.704  18.552  0.00  0.00    +0.000 C 
ATOM     15  C   UNL     1      23.917   3.257  17.722  0.00  0.00    +0.000 A 
ATOM     16  C   UNL     1      22.750   2.702  18.265  0.00  0.00    +0.000 A 
ATOM     17  C   UNL     1      21.717   2.290  17.454  0.00  0.00    +0.000 A 
ATOM     18  O   UNL     1      20.549   1.740  17.914  0.00  0.00    +0.000 OA
ATOM     19  C   UNL     1      21.876   2.446  16.081  0.00  0.00    +0.000 A 
ATOM     20  C   UNL     1      23.033   2.994  15.563  0.00  0.00    +0.000 A 
ATOM     21  C   UNL     1      24.064   3.407  16.359  0.00  0.00    +0.000 A 
ENDROOT
TORSDOF 0
ENDMDL
MODEL 9
REMARK VINA RESULT:      -6.7     22.760     25.719
REMARK  Name = 
REMARK  0 active torsions:
REMARK  status: ('A' for Active; 'I' for Inactive)
REMARK                            x       y       z     vdW  Elec       q    Type
REMARK                         _______ _______ _______ _____ _____    ______ ____
ROOT
ATOM      1  C   UNL     1      30.261  22.309  25.659  0.00  0.00    +0.000 C 
ATOM      2  C   UNL     1      29.633  23.100  26.813  0.00  0.00    +0.000 C 
ATOM      3  C   UNL     1      29.659  24.518  26.540  0.00  0.00    +0.000 C 
ATOM      4  C   UNL     1      28.461  25.280  26.175  0.00  0.00    +0.000 C 
ATOM      5  C   UNL     1      27.269  24.635  25.787  0.00  0.00    +0.000 C 
ATOM      6  C   UNL     1      26.037  24.650  26.544  0.00  0.00    +0.000 C 
ATOM      7  C   UNL     1      26.885  24.842  24.215  0.00  0.00    +0.000 C 
ATOM      8  O   UNL     1      25.970  26.010  24.483  0.00  0.00    +0.000 OA
ATOM      9  C   UNL     1      25.681  23.740  24.327  0.00  0.00    +0.000 C 
ATOM     10  C   UNL     1      26.233  22.683  25.226  0.00  0.00    +0.000 C 
ATOM     11  C   UNL     1      27.756  23.167  25.385  0.00  0.00    +0.000 C 
ATOM     12  C   UNL     1      28.148  22.482  26.861  0.00  0.00    +0.000 C 
ATOM     13  C   UNL     1      27.579  23.512  27.926  0.00  0.00    +0.000 C 
ATOM     14  C   UNL     1      28.348  23.613  29.124  0.00  0.00    +0.000 C 
ATOM     15  C   UNL     1      29.638  22.936  29.241  0.00  0.00    +0.000 A 
ATOM     16  C   UNL     1      30.185  22.569  30.478  0.00  0.00    +0.000 A 
ATOM     17  C   UNL     1      31.403  21.933  30.554  0.00  0.00    +0.000 A 
ATOM     18  O   UNL     1      31.999  21.546  31.726  0.00  0.00    +0.000 OA
ATOM     19  C   UNL     1      32.066  21.670  29.360  0.00  0.00    +0.000 A 
ATOM     20  C   UNL     1      31.512  22.039  28.150  0.00  0.00    +0.000 A 
ATOM     21  C   UNL     1      30.303  22.671  28.063  0.00  0.00    +0.000 A 
ENDROOT
TORSDOF 0
ENDMDL
MODEL 10
REMARK VINA RESULT:      -6.6     16.904     18.245
REMARK  Name = 
REMARK  0 active torsions:
REMARK  status: ('A' for Active; 'I' for Inactive)
REMARK                            x       y       z     vdW  Elec       q    Type
REMARK                         _______ _______ _______ _____ _____    ______ ____
ROOT
ATOM      1  C   UNL     1      20.657 -10.172  23.959  0.00  0.00    +0.000 C 
ATOM      2  C   UNL     1      21.441  -8.972  24.504  0.00  0.00    +0.000 C 
ATOM      3  C   UNL     1      22.520  -9.406  25.361  0.00  0.00    +0.000 C 
ATOM      4  C   UNL     1      23.927  -9.363  24.952  0.00  0.00    +0.000 C 
ATOM      5  C   UNL     1      24.296  -9.168  23.606  0.00  0.00    +0.000 C 
ATOM      6  C   UNL     1      24.973  -7.995  23.096  0.00  0.00    +0.000 C 
ATOM      7  C   UNL     1      24.982 -10.475  22.911  0.00  0.00    +0.000 C 
ATOM      8  O   UNL     1      26.391 -10.016  23.191  0.00  0.00    +0.000 OA
ATOM      9  C   UNL     1      24.933  -9.763  21.439  0.00  0.00    +0.000 C 
ATOM     10  C   UNL     1      23.631  -9.030  21.430  0.00  0.00    +0.000 C 
ATOM     11  C   UNL     1      22.969  -9.544  22.799  0.00  0.00    +0.000 C 
ATOM     12  C   UNL     1      21.943  -8.268  23.146  0.00  0.00    +0.000 C 
ATOM     13  C   UNL     1      22.881  -7.201  23.855  0.00  0.00    +0.000 C 
ATOM     14  C   UNL     1      22.238  -6.425  24.866  0.00  0.00    +0.000 C 
ATOM     15  C   UNL     1      20.879  -6.741  25.298  0.00  0.00    +0.000 A 
ATOM     16  C   UNL     1      20.029  -5.784  25.868  0.00  0.00    +0.000 A 
ATOM     17  C   UNL     1      18.754  -6.116  26.266  0.00  0.00    +0.000 A 
ATOM     18  O   UNL     1      17.869  -5.234  26.831  0.00  0.00    +0.000 OA
ATOM     19  C   UNL     1      18.344  -7.432  26.080  0.00  0.00    +0.000 A 
ATOM     20  C   UNL     1      19.195  -8.362  25.516  0.00  0.00    +0.000 A 
ATOM     21  C   UNL     1      20.463  -8.044  25.118  0.00  0.00    +0.000 A 
ENDROOT
TORSDOF 0
ENDMDL
