MODEL 1
REMARK VINA RESULT:      -6.5      0.000      0.000
REMARK  Name = 
REMARK  5 active torsions:
REMARK  status: ('A' for Active; 'I' for Inactive)
REMARK    1  A    between atoms: C_2  and  C_3
REMARK    2  A    between atoms: C_3  and  C_4
REMARK    3  A    between atoms: C_4  and  C_5
REMARK    4  A    between atoms: C_8  and  C_9
REMARK    5  A    between atoms: C_14  and  C_15
REMARK                            x       y       z     vdW  Elec       q    Type
REMARK                         _______ _______ _______ _____ _____    ______ ____
ROOT
ATOM      1  C   UNL     1      14.503  12.626  33.024  0.00  0.00    +0.000 A 
ATOM      2  C   UNL     1      14.479  13.245  34.256  0.00  0.00    +0.000 A 
ATOM      3  C   UNL     1      15.160  12.703  35.327  0.00  0.00    +0.000 A 
ATOM      4  C   UNL     1      15.886  11.535  35.221  0.00  0.00    +0.000 A 
ATOM      5  C   UNL     1      15.896  10.933  33.984  0.00  0.00    +0.000 A 
ATOM      6  C   UNL     1      15.222  11.460  32.902  0.00  0.00    +0.000 A 
ENDROOT
BRANCH   4   7
ATOM      7  C   UNL     1      16.617  10.956  36.377  0.00  0.00    +0.000 A 
ATOM      8  C   UNL     1      17.933  10.624  36.225  0.00  0.00    +0.000 A 
ATOM      9  S   UNL     1      18.369  10.012  37.752  0.00  0.00    +0.000 S 
ATOM     10  C   UNL     1      16.875  10.190  38.546  0.00  0.00    +0.000 A 
ATOM     11  N   UNL     1      16.561   9.845  39.915  0.00  0.00    +0.000 NA
ATOM     12  C   UNL     1      16.064  10.730  37.589  0.00  0.00    +0.000 A 
BRANCH  12  13
ATOM     13  C   UNL     1      14.665  11.028  37.919  0.00  0.00    +0.000 C 
ATOM     14  N   UNL     1      13.554  11.280  38.186  0.00  0.00    +0.000 NA
ENDBRANCH  12  13
ENDBRANCH   4   7
BRANCH   1  15
ATOM     15  C   UNL     1      13.762  13.212  31.850  0.00  0.00    +0.000 C 
BRANCH  15  16
ATOM     16  C   UNL     1      14.668  14.257  31.218  0.00  0.00    +0.000 C 
BRANCH  16  18
ATOM     17  C   UNL     1      16.907  13.650  30.290  0.00  0.00    +0.000 C 
ATOM     18  C   UNL     1      15.436  13.629  30.058  0.00  0.00    +0.000 C 
ENDBRANCH  16  18
ENDBRANCH  15  16
ENDBRANCH   1  15
TORSDOF 5
ENDMDL
MODEL 2
REMARK VINA RESULT:      -6.1     19.902     22.227
REMARK  Name = 
REMARK  5 active torsions:
REMARK  status: ('A' for Active; 'I' for Inactive)
REMARK    1  A    between atoms: C_2  and  C_3
REMARK    2  A    between atoms: C_3  and  C_4
REMARK    3  A    between atoms: C_4  and  C_5
REMARK    4  A    between atoms: C_8  and  C_9
REMARK    5  A    between atoms: C_14  and  C_15
REMARK                            x       y       z     vdW  Elec       q    Type
REMARK                         _______ _______ _______ _____ _____    ______ ____
ROOT
ATOM      1  C   UNL     1      33.601   1.906  33.402  0.00  0.00    +0.000 A 
ATOM      2  C   UNL     1      34.173   1.032  32.503  0.00  0.00    +0.000 A 
ATOM      3  C   UNL     1      34.290  -0.310  32.807  0.00  0.00    +0.000 A 
ATOM      4  C   UNL     1      33.847  -0.834  34.003  0.00  0.00    +0.000 A 
ATOM      5  C   UNL     1      33.279   0.057  34.886  0.00  0.00    +0.000 A 
ATOM      6  C   UNL     1      33.154   1.400  34.600  0.00  0.00    +0.000 A 
ENDROOT
BRANCH   4   7
ATOM      7  C   UNL     1      33.974  -2.278  34.325  0.00  0.00    +0.000 A 
ATOM      8  C   UNL     1      33.266  -3.182  33.585  0.00  0.00    +0.000 A 
ATOM      9  S   UNL     1      33.694  -4.680  34.273  0.00  0.00    +0.000 S 
ATOM     10  C   UNL     1      34.756  -4.125  35.479  0.00  0.00    +0.000 A 
ATOM     11  N   UNL     1      35.484  -4.921  36.443  0.00  0.00    +0.000 NA
ATOM     12  C   UNL     1      34.752  -2.769  35.314  0.00  0.00    +0.000 A 
BRANCH  12  13
ATOM     13  C   UNL     1      35.574  -1.936  36.200  0.00  0.00    +0.000 C 
ATOM     14  N   UNL     1      36.241  -1.272  36.895  0.00  0.00    +0.000 NA
ENDBRANCH  12  13
ENDBRANCH   4   7
BRANCH   1  15
ATOM     15  C   UNL     1      33.471   3.373  33.078  0.00  0.00    +0.000 C 
BRANCH  15  16
ATOM     16  C   UNL     1      34.114   4.148  34.219  0.00  0.00    +0.000 C 
BRANCH  16  18
ATOM     17  C   UNL     1      32.087   5.488  33.645  0.00  0.00    +0.000 C 
ATOM     18  C   UNL     1      33.241   5.347  34.574  0.00  0.00    +0.000 C 
ENDBRANCH  16  18
ENDBRANCH  15  16
ENDBRANCH   1  15
TORSDOF 5
ENDMDL
MODEL 3
REMARK VINA RESULT:      -6.0     20.281     23.323
REMARK  Name = 
REMARK  5 active torsions:
REMARK  status: ('A' for Active; 'I' for Inactive)
REMARK    1  A    between atoms: C_2  and  C_3
REMARK    2  A    between atoms: C_3  and  C_4
REMARK    3  A    between atoms: C_4  and  C_5
REMARK    4  A    between atoms: C_8  and  C_9
REMARK    5  A    between atoms: C_14  and  C_15
REMARK                            x       y       z     vdW  Elec       q    Type
REMARK                         _______ _______ _______ _____ _____    ______ ____
ROOT
ATOM      1  C   UNL     1      33.041  25.039  24.902  0.00  0.00    +0.000 A 
ATOM      2  C   UNL     1      32.701  23.727  24.650  0.00  0.00    +0.000 A 
ATOM      3  C   UNL     1      31.384  23.371  24.443  0.00  0.00    +0.000 A 
ATOM      4  C   UNL     1      30.359  24.294  24.476  0.00  0.00    +0.000 A 
ATOM      5  C   UNL     1      30.721  25.598  24.729  0.00  0.00    +0.000 A 
ATOM      6  C   UNL     1      32.032  25.972  24.938  0.00  0.00    +0.000 A 
ENDROOT
BRANCH   4   7
ATOM      7  C   UNL     1      28.944  23.906  24.252  0.00  0.00    +0.000 A 
ATOM      8  C   UNL     1      28.182  23.544  25.327  0.00  0.00    +0.000 A 
ATOM      9  S   UNL     1      26.667  23.187  24.637  0.00  0.00    +0.000 S 
ATOM     10  C   UNL     1      27.034  23.503  23.007  0.00  0.00    +0.000 A 
ATOM     11  N   UNL     1      26.150  23.390  21.869  0.00  0.00    +0.000 NA
ATOM     12  C   UNL     1      28.345  23.886  23.041  0.00  0.00    +0.000 A 
BRANCH  12  13
ATOM     13  C   UNL     1      29.020  24.245  21.788  0.00  0.00    +0.000 C 
ATOM     14  N   UNL     1      29.564  24.516  20.787  0.00  0.00    +0.000 NA
ENDBRANCH  12  13
ENDBRANCH   4   7
BRANCH   1  15
ATOM     15  C   UNL     1      34.478  25.436  25.129  0.00  0.00    +0.000 C 
BRANCH  15  16
ATOM     16  C   UNL     1      35.340  24.537  24.254  0.00  0.00    +0.000 C 
BRANCH  16  18
ATOM     17  C   UNL     1      37.144  23.026  25.091  0.00  0.00    +0.000 C 
ATOM     18  C   UNL     1      36.740  24.439  24.852  0.00  0.00    +0.000 C 
ENDBRANCH  16  18
ENDBRANCH  15  16
ENDBRANCH   1  15
TORSDOF 5
ENDMDL
MODEL 4
REMARK VINA RESULT:      -5.8      3.437      6.474
REMARK  Name = 
REMARK  5 active torsions:
REMARK  status: ('A' for Active; 'I' for Inactive)
REMARK    1  A    between atoms: C_2  and  C_3
REMARK    2  A    between atoms: C_3  and  C_4
REMARK    3  A    between atoms: C_4  and  C_5
REMARK    4  A    between atoms: C_8  and  C_9
REMARK    5  A    between atoms: C_14  and  C_15
REMARK                            x       y       z     vdW  Elec       q    Type
REMARK                         _______ _______ _______ _____ _____    ______ ____
ROOT
ATOM      1  C   UNL     1      20.891  10.609  37.541  0.00  0.00    +0.000 A 
ATOM      2  C   UNL     1      20.063   9.759  36.838  0.00  0.00    +0.000 A 
ATOM      3  C   UNL     1      18.704   9.991  36.781  0.00  0.00    +0.000 A 
ATOM      4  C   UNL     1      18.115  11.067  37.413  0.00  0.00    +0.000 A 
ATOM      5  C   UNL     1      18.959  11.902  38.109  0.00  0.00    +0.000 A 
ATOM      6  C   UNL     1      20.319  11.686  38.177  0.00  0.00    +0.000 A 
ENDROOT
BRANCH   4   7
ATOM      7  C   UNL     1      16.652  11.312  37.348  0.00  0.00    +0.000 A 
ATOM      8  C   UNL     1      16.149  12.021  36.294  0.00  0.00    +0.000 A 
ATOM      9  S   UNL     1      14.476  12.067  36.609  0.00  0.00    +0.000 S 
ATOM     10  C   UNL     1      14.455  11.190  38.066  0.00  0.00    +0.000 A 
ATOM     11  N   UNL     1      13.303  10.862  38.877  0.00  0.00    +0.000 NA
ATOM     12  C   UNL     1      15.768  10.878  38.273  0.00  0.00    +0.000 A 
BRANCH  12  13
ATOM     13  C   UNL     1      16.143  10.105  39.464  0.00  0.00    +0.000 C 
ATOM     14  N   UNL     1      16.450   9.480  40.405  0.00  0.00    +0.000 NA
ENDBRANCH  12  13
ENDBRANCH   4   7
BRANCH   1  15
ATOM     15  C   UNL     1      22.376  10.362  37.608  0.00  0.00    +0.000 C 
BRANCH  15  16
ATOM     16  C   UNL     1      22.735   9.443  36.449  0.00  0.00    +0.000 C 
BRANCH  16  18
ATOM     17  C   UNL     1      24.526  11.156  36.140  0.00  0.00    +0.000 C 
ATOM     18  C   UNL     1      24.170   9.717  36.009  0.00  0.00    +0.000 C 
ENDBRANCH  16  18
ENDBRANCH  15  16
ENDBRANCH   1  15
TORSDOF 5
ENDMDL
MODEL 5
REMARK VINA RESULT:      -5.8      2.921      3.961
REMARK  Name = 
REMARK  5 active torsions:
REMARK  status: ('A' for Active; 'I' for Inactive)
REMARK    1  A    between atoms: C_2  and  C_3
REMARK    2  A    between atoms: C_3  and  C_4
REMARK    3  A    between atoms: C_4  and  C_5
REMARK    4  A    between atoms: C_8  and  C_9
REMARK    5  A    between atoms: C_14  and  C_15
REMARK                            x       y       z     vdW  Elec       q    Type
REMARK                         _______ _______ _______ _____ _____    ______ ____
ROOT
ATOM      1  C   UNL     1      16.863  11.035  34.331  0.00  0.00    +0.000 A 
ATOM      2  C   UNL     1      16.907  11.923  35.385  0.00  0.00    +0.000 A 
ATOM      3  C   UNL     1      17.396  11.529  36.614  0.00  0.00    +0.000 A 
ATOM      4  C   UNL     1      17.856  10.250  36.846  0.00  0.00    +0.000 A 
ATOM      5  C   UNL     1      17.803   9.380  35.781  0.00  0.00    +0.000 A 
ATOM      6  C   UNL     1      17.318   9.755  34.546  0.00  0.00    +0.000 A 
ENDROOT
BRANCH   4   7
ATOM      7  C   UNL     1      18.381   9.831  38.171  0.00  0.00    +0.000 A 
ATOM      8  C   UNL     1      17.497   9.599  39.186  0.00  0.00    +0.000 A 
ATOM      9  S   UNL     1      18.498   9.153  40.490  0.00  0.00    +0.000 S 
ATOM     10  C   UNL     1      20.009   9.272  39.718  0.00  0.00    +0.000 A 
ATOM     11  N   UNL     1      21.311   9.016  40.292  0.00  0.00    +0.000 NA
ATOM     12  C   UNL     1      19.692   9.660  38.447  0.00  0.00    +0.000 A 
BRANCH  12  13
ATOM     13  C   UNL     1      20.769   9.868  37.472  0.00  0.00    +0.000 C 
ATOM     14  N   UNL     1      21.633  10.019  36.697  0.00  0.00    +0.000 NA
ENDBRANCH  12  13
ENDBRANCH   4   7
BRANCH   1  15
ATOM     15  C   UNL     1      16.330  11.458  32.986  0.00  0.00    +0.000 C 
BRANCH  15  16
ATOM     16  C   UNL     1      15.014  10.725  32.769  0.00  0.00    +0.000 C 
BRANCH  16  18
ATOM     17  C   UNL     1      14.614  12.156  30.761  0.00  0.00    +0.000 C 
ATOM     18  C   UNL     1      14.650  10.764  31.288  0.00  0.00    +0.000 C 
ENDBRANCH  16  18
ENDBRANCH  15  16
ENDBRANCH   1  15
TORSDOF 5
ENDMDL
MODEL 6
REMARK VINA RESULT:      -5.7     17.611     20.601
REMARK  Name = 
REMARK  5 active torsions:
REMARK  status: ('A' for Active; 'I' for Inactive)
REMARK    1  A    between atoms: C_2  and  C_3
REMARK    2  A    between atoms: C_3  and  C_4
REMARK    3  A    between atoms: C_4  and  C_5
REMARK    4  A    between atoms: C_8  and  C_9
REMARK    5  A    between atoms: C_14  and  C_15
REMARK                            x       y       z     vdW  Elec       q    Type
REMARK                         _______ _______ _______ _____ _____    ______ ____
ROOT
ATOM      1  C   UNL     1      28.519  23.067  28.418  0.00  0.00    +0.000 A 
ATOM      2  C   UNL     1      28.542  24.355  27.927  0.00  0.00    +0.000 A 
ATOM      3  C   UNL     1      28.397  24.593  26.575  0.00  0.00    +0.000 A 
ATOM      4  C   UNL     1      28.224  23.572  25.664  0.00  0.00    +0.000 A 
ATOM      5  C   UNL     1      28.204  22.295  26.176  0.00  0.00    +0.000 A 
ATOM      6  C   UNL     1      28.347  22.037  27.523  0.00  0.00    +0.000 A 
ENDROOT
BRANCH   4   7
ATOM      7  C   UNL     1      28.068  23.833  24.210  0.00  0.00    +0.000 A 
ATOM      8  C   UNL     1      26.809  23.948  23.693  0.00  0.00    +0.000 A 
ATOM      9  S   UNL     1      27.085  24.237  22.038  0.00  0.00    +0.000 S 
ATOM     10  C   UNL     1      28.785  24.206  22.041  0.00  0.00    +0.000 A 
ATOM     11  N   UNL     1      29.669  24.391  20.912  0.00  0.00    +0.000 NA
ATOM     12  C   UNL     1      29.100  23.968  23.349  0.00  0.00    +0.000 A 
BRANCH  12  13
ATOM     13  C   UNL     1      30.512  23.874  23.741  0.00  0.00    +0.000 C 
ATOM     14  N   UNL     1      31.636  23.782  24.052  0.00  0.00    +0.000 NA
ENDBRANCH  12  13
ENDBRANCH   4   7
BRANCH   1  15
ATOM     15  C   UNL     1      28.677  22.799  29.893  0.00  0.00    +0.000 C 
BRANCH  15  16
ATOM     16  C   UNL     1      27.617  23.616  30.618  0.00  0.00    +0.000 C 
BRANCH  16  18
ATOM     17  C   UNL     1      26.320  21.481  30.577  0.00  0.00    +0.000 C 
ATOM     18  C   UNL     1      26.252  22.961  30.427  0.00  0.00    +0.000 C 
ENDBRANCH  16  18
ENDBRANCH  15  16
ENDBRANCH   1  15
TORSDOF 5
ENDMDL
MODEL 7
REMARK VINA RESULT:      -5.5     18.819     20.912
REMARK  Name = 
REMARK  5 active torsions:
REMARK  status: ('A' for Active; 'I' for Inactive)
REMARK    1  A    between atoms: C_2  and  C_3
REMARK    2  A    between atoms: C_3  and  C_4
REMARK    3  A    between atoms: C_4  and  C_5
REMARK    4  A    between atoms: C_8  and  C_9
REMARK    5  A    between atoms: C_14  and  C_15
REMARK                            x       y       z     vdW  Elec       q    Type
REMARK                         _______ _______ _______ _____ _____    ______ ____
ROOT
ATOM      1  C   UNL     1      31.160  23.106  28.139  0.00  0.00    +0.000 A 
ATOM      2  C   UNL     1      30.861  22.010  27.357  0.00  0.00    +0.000 A 
ATOM      3  C   UNL     1      29.795  22.043  26.481  0.00  0.00    +0.000 A 
ATOM      4  C   UNL     1      28.989  23.154  26.346  0.00  0.00    +0.000 A 
ATOM      5  C   UNL     1      29.305  24.236  27.135  0.00  0.00    +0.000 A 
ATOM      6  C   UNL     1      30.366  24.222  28.016  0.00  0.00    +0.000 A 
ENDROOT
BRANCH   4   7
ATOM      7  C   UNL     1      27.844  23.185  25.401  0.00  0.00    +0.000 A 
ATOM      8  C   UNL     1      26.590  22.924  25.878  0.00  0.00    +0.000 A 
ATOM      9  S   UNL     1      25.604  23.061  24.497  0.00  0.00    +0.000 S 
ATOM     10  C   UNL     1      26.801  23.445  23.351  0.00  0.00    +0.000 A 
ATOM     11  N   UNL     1      26.617  23.696  21.939  0.00  0.00    +0.000 NA
ATOM     12  C   UNL     1      27.955  23.457  24.083  0.00  0.00    +0.000 A 
BRANCH  12  13
ATOM     13  C   UNL     1      29.225  23.758  23.413  0.00  0.00    +0.000 C 
ATOM     14  N   UNL     1      30.231  23.998  22.864  0.00  0.00    +0.000 NA
ENDBRANCH  12  13
ENDBRANCH   4   7
BRANCH   1  15
ATOM     15  C   UNL     1      32.322  23.078  29.098  0.00  0.00    +0.000 C 
BRANCH  15  16
ATOM     16  C   UNL     1      32.741  21.624  29.259  0.00  0.00    +0.000 C 
BRANCH  16  18
ATOM     17  C   UNL     1      31.881  21.186  31.563  0.00  0.00    +0.000 C 
ATOM     18  C   UNL     1      33.095  21.356  30.719  0.00  0.00    +0.000 C 
ENDBRANCH  16  18
ENDBRANCH  15  16
ENDBRANCH   1  15
TORSDOF 5
ENDMDL
MODEL 8
REMARK VINA RESULT:      -5.4     19.985     21.607
REMARK  Name = 
REMARK  5 active torsions:
REMARK  status: ('A' for Active; 'I' for Inactive)
REMARK    1  A    between atoms: C_2  and  C_3
REMARK    2  A    between atoms: C_3  and  C_4
REMARK    3  A    between atoms: C_4  and  C_5
REMARK    4  A    between atoms: C_8  and  C_9
REMARK    5  A    between atoms: C_14  and  C_15
REMARK                            x       y       z     vdW  Elec       q    Type
REMARK                         _______ _______ _______ _____ _____    ______ ____
ROOT
ATOM      1  C   UNL     1      25.469   4.444  18.060  0.00  0.00    +0.000 A 
ATOM      2  C   UNL     1      24.930   3.466  18.867  0.00  0.00    +0.000 A 
ATOM      3  C   UNL     1      23.876   2.692  18.424  0.00  0.00    +0.000 A 
ATOM      4  C   UNL     1      23.319   2.857  17.173  0.00  0.00    +0.000 A 
ATOM      5  C   UNL     1      23.872   3.839  16.384  0.00  0.00    +0.000 A 
ATOM      6  C   UNL     1      24.924   4.622  16.809  0.00  0.00    +0.000 A 
ENDROOT
BRANCH   4   7
ATOM      7  C   UNL     1      22.185   2.022  16.701  0.00  0.00    +0.000 A 
ATOM      8  C   UNL     1      22.429   1.033  15.790  0.00  0.00    +0.000 A 
ATOM      9  S   UNL     1      20.895   0.343  15.532  0.00  0.00    +0.000 S 
ATOM     10  C   UNL     1      19.982   1.321  16.582  0.00  0.00    +0.000 A 
ATOM     11  N   UNL     1      18.560   1.250  16.836  0.00  0.00    +0.000 NA
ATOM     12  C   UNL     1      20.908   2.173  17.115  0.00  0.00    +0.000 A 
BRANCH  12  13
ATOM     13  C   UNL     1      20.476   3.184  18.087  0.00  0.00    +0.000 C 
ATOM     14  N   UNL     1      20.117   3.986  18.860  0.00  0.00    +0.000 NA
ENDBRANCH  12  13
ENDBRANCH   4   7
BRANCH   1  15
ATOM     15  C   UNL     1      26.619   5.293  18.537  0.00  0.00    +0.000 C 
BRANCH  15  16
ATOM     16  C   UNL     1      26.592   6.586  17.735  0.00  0.00    +0.000 C 
BRANCH  16  18
ATOM     17  C   UNL     1      28.866   5.722  17.169  0.00  0.00    +0.000 C 
ATOM     18  C   UNL     1      28.007   6.932  17.280  0.00  0.00    +0.000 C 
ENDBRANCH  16  18
ENDBRANCH  15  16
ENDBRANCH   1  15
TORSDOF 5
ENDMDL
MODEL 9
REMARK VINA RESULT:      -5.4     18.648     20.097
REMARK  Name = 
REMARK  5 active torsions:
REMARK  status: ('A' for Active; 'I' for Inactive)
REMARK    1  A    between atoms: C_2  and  C_3
REMARK    2  A    between atoms: C_3  and  C_4
REMARK    3  A    between atoms: C_4  and  C_5
REMARK    4  A    between atoms: C_8  and  C_9
REMARK    5  A    between atoms: C_14  and  C_15
REMARK                            x       y       z     vdW  Elec       q    Type
REMARK                         _______ _______ _______ _____ _____    ______ ____
ROOT
ATOM      1  C   UNL     1      30.682  23.381  25.286  0.00  0.00    +0.000 A 
ATOM      2  C   UNL     1      30.107  22.258  25.841  0.00  0.00    +0.000 A 
ATOM      3  C   UNL     1      30.449  21.851  27.115  0.00  0.00    +0.000 A 
ATOM      4  C   UNL     1      31.368  22.535  27.883  0.00  0.00    +0.000 A 
ATOM      5  C   UNL     1      31.931  23.652  27.310  0.00  0.00    +0.000 A 
ATOM      6  C   UNL     1      31.601  24.074  26.039  0.00  0.00    +0.000 A 
ENDROOT
BRANCH   4   7
ATOM      7  C   UNL     1      31.733  22.092  29.253  0.00  0.00    +0.000 A 
ATOM      8  C   UNL     1      32.959  21.526  29.457  0.00  0.00    +0.000 A 
ATOM      9  S   UNL     1      32.962  21.176  31.123  0.00  0.00    +0.000 S 
ATOM     10  C   UNL     1      31.413  21.755  31.520  0.00  0.00    +0.000 A 
ATOM     11  N   UNL     1      30.781  21.754  32.821  0.00  0.00    +0.000 NA
ATOM     12  C   UNL     1      30.926  22.213  30.329  0.00  0.00    +0.000 A 
BRANCH  12  13
ATOM     13  C   UNL     1      29.580  22.797  30.282  0.00  0.00    +0.000 C 
ATOM     14  N   UNL     1      28.502  23.252  30.254  0.00  0.00    +0.000 NA
ENDBRANCH  12  13
ENDBRANCH   4   7
BRANCH   1  15
ATOM     15  C   UNL     1      30.314  23.832  23.896  0.00  0.00    +0.000 C 
BRANCH  15  16
ATOM     16  C   UNL     1      29.004  23.149  23.530  0.00  0.00    +0.000 C 
BRANCH  16  18
ATOM     17  C   UNL     1      29.343  24.824  21.709  0.00  0.00    +0.000 C 
ATOM     18  C   UNL     1      28.491  23.710  22.207  0.00  0.00    +0.000 C 
ENDBRANCH  16  18
ENDBRANCH  15  16
ENDBRANCH   1  15
TORSDOF 5
ENDMDL
MODEL 10
REMARK VINA RESULT:      -5.3     21.862     22.906
REMARK  Name = 
REMARK  5 active torsions:
REMARK  status: ('A' for Active; 'I' for Inactive)
REMARK    1  A    between atoms: C_2  and  C_3
REMARK    2  A    between atoms: C_3  and  C_4
REMARK    3  A    between atoms: C_4  and  C_5
REMARK    4  A    between atoms: C_8  and  C_9
REMARK    5  A    between atoms: C_14  and  C_15
REMARK                            x       y       z     vdW  Elec       q    Type
REMARK                         _______ _______ _______ _____ _____    ______ ____
ROOT
ATOM      1  C   UNL     1      21.589  -6.846  24.993  0.00  0.00    +0.000 A 
ATOM      2  C   UNL     1      21.742  -8.188  25.266  0.00  0.00    +0.000 A 
ATOM      3  C   UNL     1      20.794  -8.866  26.005  0.00  0.00    +0.000 A 
ATOM      4  C   UNL     1      19.665  -8.245  26.499  0.00  0.00    +0.000 A 
ATOM      5  C   UNL     1      19.532  -6.905  26.214  0.00  0.00    +0.000 A 
ATOM      6  C   UNL     1      20.469  -6.211  25.478  0.00  0.00    +0.000 A 
ENDROOT
BRANCH   4   7
ATOM      7  C   UNL     1      18.648  -8.979  27.294  0.00  0.00    +0.000 A 
ATOM      8  C   UNL     1      18.851  -9.143  28.635  0.00  0.00    +0.000 A 
ATOM      9  S   UNL     1      17.480 -10.015  29.141  0.00  0.00    +0.000 S 
ATOM     10  C   UNL     1      16.683 -10.151  27.645  0.00  0.00    +0.000 A 
ATOM     11  N   UNL     1      15.419 -10.801  27.379  0.00  0.00    +0.000 NA
ATOM     12  C   UNL     1      17.515  -9.504  26.777  0.00  0.00    +0.000 A 
BRANCH  12  13
ATOM     13  C   UNL     1      17.145  -9.417  25.359  0.00  0.00    +0.000 C 
ATOM     14  N   UNL     1      16.863  -9.338  24.226  0.00  0.00    +0.000 NA
ENDBRANCH  12  13
ENDBRANCH   4   7
BRANCH   1  15
ATOM     15  C   UNL     1      22.620  -6.099  24.186  0.00  0.00    +0.000 C 
BRANCH  15  16
ATOM     16  C   UNL     1      23.536  -7.135  23.551  0.00  0.00    +0.000 C 
BRANCH  16  18
ATOM     17  C   UNL     1      25.937  -7.694  23.151  0.00  0.00    +0.000 C 
ATOM     18  C   UNL     1      24.987  -6.685  23.693  0.00  0.00    +0.000 C 
ENDBRANCH  16  18
ENDBRANCH  15  16
ENDBRANCH   1  15
TORSDOF 5
ENDMDL
