MODEL 1
REMARK VINA RESULT:      -7.1      0.000      0.000
REMARK  Name = 
REMARK  7 active torsions:
REMARK  status: ('A' for Active; 'I' for Inactive)
REMARK    1  A    between atoms: N_2  and  C_4
REMARK    2  A    between atoms: C_4  and  C_5
REMARK    3  A    between atoms: C_5  and  C_6
REMARK    4  A    between atoms: C_6  and  N_7
REMARK    5  A    between atoms: C_13  and  C_14
REMARK    6  A    between atoms: N_16  and  C_17
REMARK    7  A    between atoms: C_20  and  C_21
REMARK                            x       y       z     vdW  Elec       q    Type
REMARK                         _______ _______ _______ _____ _____    ______ ____
ROOT
ATOM      1  C   UNL     1      37.496   1.201  14.313  0.00  0.00    +0.000 C 
ATOM      2  O   UNL     1      37.429   0.528  13.257  0.00  0.00    +0.000 OA
ATOM      3  N   UNL     1      38.689   1.105  15.063  0.00  0.00    +0.000 NA
ENDROOT
BRANCH   1  10
ATOM      4  N   UNL     1      35.682   0.262  16.170  0.00  0.00    +0.000 NA
ATOM      5  C   UNL     1      35.466   1.551  15.618  0.00  0.00    +0.000 A 
ATOM      6  N   UNL     1      34.419   2.316  15.971  0.00  0.00    +0.000 NA
ATOM      7  C   UNL     1      34.244   3.549  15.421  0.00  0.00    +0.000 A 
ATOM      8  C   UNL     1      35.116   4.071  14.491  0.00  0.00    +0.000 A 
ATOM      9  C   UNL     1      36.194   3.288  14.126  0.00  0.00    +0.000 A 
ATOM     10  C   UNL     1      36.364   2.023  14.696  0.00  0.00    +0.000 A 
BRANCH   4  11
ATOM     11  C   UNL     1      34.725  -0.226  17.144  0.00  0.00    +0.000 C 
BRANCH  11  12
ATOM     12  C   UNL     1      35.378  -1.413  17.852  0.00  0.00    +0.000 C 
BRANCH  12  13
ATOM     13  C   UNL     1      36.712  -1.628  17.192  0.00  0.00    +0.000 C 
BRANCH  13  15
ATOM     14  C   UNL     1      38.600  -2.805  17.922  0.00  0.00    +0.000 C 
ATOM     15  N   UNL     1      37.803  -1.597  18.143  0.00  0.00    +0.000 NA
ATOM     16  C   UNL     1      37.313  -1.671  19.516  0.00  0.00    +0.000 C 
ENDBRANCH  13  15
ENDBRANCH  12  13
ENDBRANCH  11  12
ENDBRANCH   4  11
ENDBRANCH   1  10
BRANCH   3  17
ATOM     17  C   UNL     1      39.790   0.273  14.641  0.00  0.00    +0.000 A 
ATOM     18  C   UNL     1      39.823  -1.070  14.956  0.00  0.00    +0.000 A 
ATOM     19  C   UNL     1      40.878  -1.876  14.554  0.00  0.00    +0.000 A 
ATOM     20  C   UNL     1      41.904  -1.342  13.834  0.00  0.00    +0.000 A 
ATOM     21  C   UNL     1      41.901  -0.013  13.506  0.00  0.00    +0.000 A 
ATOM     22  C   UNL     1      40.848   0.768  13.913  0.00  0.00    +0.000 A 
BRANCH  20  23
ATOM     23  C   UNL     1      43.031  -2.201  13.405  0.00  0.00    +0.000 A 
ATOM     24  C   UNL     1      44.236  -2.314  14.022  0.00  0.00    +0.000 A 
ATOM     25  C   UNL     1      45.142  -3.144  13.492  0.00  0.00    +0.000 A 
ATOM     26  C   UNL     1      46.432  -3.396  13.977  0.00  0.00    +0.000 A 
ATOM     27  C   UNL     1      47.265  -4.255  13.362  0.00  0.00    +0.000 A 
ATOM     28  C   UNL     1      46.937  -4.945  12.235  0.00  0.00    +0.000 A 
ATOM     29  C   UNL     1      45.661  -4.717  11.726  0.00  0.00    +0.000 A 
ATOM     30  C   UNL     1      44.785  -3.822  12.361  0.00  0.00    +0.000 A 
ATOM     31  S   UNL     1      43.187  -3.266  12.087  0.00  0.00    +0.000 S 
ENDBRANCH  20  23
ENDBRANCH   3  17
TORSDOF 7
ENDMDL
MODEL 2
REMARK VINA RESULT:      -7.0      1.315      2.001
REMARK  Name = 
REMARK  7 active torsions:
REMARK  status: ('A' for Active; 'I' for Inactive)
REMARK    1  A    between atoms: N_2  and  C_4
REMARK    2  A    between atoms: C_4  and  C_5
REMARK    3  A    between atoms: C_5  and  C_6
REMARK    4  A    between atoms: C_6  and  N_7
REMARK    5  A    between atoms: C_13  and  C_14
REMARK    6  A    between atoms: N_16  and  C_17
REMARK    7  A    between atoms: C_20  and  C_21
REMARK                            x       y       z     vdW  Elec       q    Type
REMARK                         _______ _______ _______ _____ _____    ______ ____
ROOT
ATOM      1  C   UNL     1      37.532   0.877  14.459  0.00  0.00    +0.000 C 
ATOM      2  O   UNL     1      37.426   0.121  13.464  0.00  0.00    +0.000 OA
ATOM      3  N   UNL     1      38.775   0.888  15.130  0.00  0.00    +0.000 NA
ENDROOT
BRANCH   1  10
ATOM      4  N   UNL     1      35.800  -0.057  16.395  0.00  0.00    +0.000 NA
ATOM      5  C   UNL     1      35.535   1.211  15.817  0.00  0.00    +0.000 A 
ATOM      6  N   UNL     1      34.480   1.959  16.183  0.00  0.00    +0.000 NA
ATOM      7  C   UNL     1      34.256   3.173  15.607  0.00  0.00    +0.000 A 
ATOM      8  C   UNL     1      35.086   3.691  14.637  0.00  0.00    +0.000 A 
ATOM      9  C   UNL     1      36.172   2.926  14.258  0.00  0.00    +0.000 A 
ATOM     10  C   UNL     1      36.392   1.680  14.856  0.00  0.00    +0.000 A 
BRANCH   4  11
ATOM     11  C   UNL     1      34.886  -0.543  17.410  0.00  0.00    +0.000 C 
BRANCH  11  12
ATOM     12  C   UNL     1      34.559  -1.993  17.056  0.00  0.00    +0.000 C 
BRANCH  12  13
ATOM     13  C   UNL     1      35.870  -2.727  16.988  0.00  0.00    +0.000 C 
BRANCH  13  15
ATOM     14  C   UNL     1      37.019  -3.601  15.144  0.00  0.00    +0.000 C 
ATOM     15  N   UNL     1      35.850  -3.791  16.006  0.00  0.00    +0.000 NA
ATOM     16  C   UNL     1      34.679  -3.693  15.141  0.00  0.00    +0.000 C 
ENDBRANCH  13  15
ENDBRANCH  12  13
ENDBRANCH  11  12
ENDBRANCH   4  11
ENDBRANCH   1  10
BRANCH   3  17
ATOM     17  C   UNL     1      39.882   0.070  14.697  0.00  0.00    +0.000 A 
ATOM     18  C   UNL     1      40.887   0.598  13.912  0.00  0.00    +0.000 A 
ATOM     19  C   UNL     1      41.955  -0.181  13.492  0.00  0.00    +0.000 A 
ATOM     20  C   UNL     1      42.022  -1.493  13.856  0.00  0.00    +0.000 A 
ATOM     21  C   UNL     1      41.041  -2.047  14.633  0.00  0.00    +0.000 A 
ATOM     22  C   UNL     1      39.992  -1.259  15.038  0.00  0.00    +0.000 A 
BRANCH  20  23
ATOM     23  C   UNL     1      43.160  -2.326  13.407  0.00  0.00    +0.000 A 
ATOM     24  C   UNL     1      43.182  -3.139  12.319  0.00  0.00    +0.000 A 
ATOM     25  C   UNL     1      44.304  -3.822  12.063  0.00  0.00    +0.000 A 
ATOM     26  C   UNL     1      44.523  -4.705  10.996  0.00  0.00    +0.000 A 
ATOM     27  C   UNL     1      45.696  -5.341  10.833  0.00  0.00    +0.000 A 
ATOM     28  C   UNL     1      46.758  -5.189  11.671  0.00  0.00    +0.000 A 
ATOM     29  C   UNL     1      46.575  -4.318  12.742  0.00  0.00    +0.000 A 
ATOM     30  C   UNL     1      45.353  -3.649  12.920  0.00  0.00    +0.000 A 
ATOM     31  S   UNL     1      44.720  -2.532  14.056  0.00  0.00    +0.000 S 
ENDBRANCH  20  23
ENDBRANCH   3  17
TORSDOF 7
ENDMDL
MODEL 3
REMARK VINA RESULT:      -6.9     23.824     28.459
REMARK  Name = 
REMARK  7 active torsions:
REMARK  status: ('A' for Active; 'I' for Inactive)
REMARK    1  A    between atoms: N_2  and  C_4
REMARK    2  A    between atoms: C_4  and  C_5
REMARK    3  A    between atoms: C_5  and  C_6
REMARK    4  A    between atoms: C_6  and  N_7
REMARK    5  A    between atoms: C_13  and  C_14
REMARK    6  A    between atoms: N_16  and  C_17
REMARK    7  A    between atoms: C_20  and  C_21
REMARK                            x       y       z     vdW  Elec       q    Type
REMARK                         _______ _______ _______ _____ _____    ______ ____
ROOT
ATOM      1  C   UNL     1      12.292   1.195  28.831  0.00  0.00    +0.000 C 
ATOM      2  O   UNL     1      12.505   2.066  27.954  0.00  0.00    +0.000 OA
ATOM      3  N   UNL     1      13.195   0.112  28.896  0.00  0.00    +0.000 NA
ENDROOT
BRANCH   1  10
ATOM      4  N   UNL     1      12.684   1.697  31.517  0.00  0.00    +0.000 NA
ATOM      5  C   UNL     1      11.351   1.597  31.044  0.00  0.00    +0.000 A 
ATOM      6  N   UNL     1      10.290   1.740  31.856  0.00  0.00    +0.000 NA
ATOM      7  C   UNL     1       9.022   1.638  31.368  0.00  0.00    +0.000 A 
ATOM      8  C   UNL     1       8.764   1.390  30.037  0.00  0.00    +0.000 A 
ATOM      9  C   UNL     1       9.853   1.244  29.199  0.00  0.00    +0.000 A 
ATOM     10  C   UNL     1      11.150   1.349  29.711  0.00  0.00    +0.000 A 
BRANCH   4  11
ATOM     11  C   UNL     1      12.885   1.959  32.929  0.00  0.00    +0.000 C 
BRANCH  11  12
ATOM     12  C   UNL     1      14.386   2.162  33.135  0.00  0.00    +0.000 C 
BRANCH  12  13
ATOM     13  C   UNL     1      14.794   1.244  34.255  0.00  0.00    +0.000 C 
BRANCH  13  15
ATOM     14  C   UNL     1      14.131  -0.674  35.425  0.00  0.00    +0.000 C 
ATOM     15  N   UNL     1      14.261  -0.092  34.087  0.00  0.00    +0.000 NA
ATOM     16  C   UNL     1      15.190  -0.946  33.354  0.00  0.00    +0.000 C 
ENDBRANCH  13  15
ENDBRANCH  12  13
ENDBRANCH  11  12
ENDBRANCH   4  11
ENDBRANCH   1  10
BRANCH   3  17
ATOM     17  C   UNL     1      14.320   0.002  27.998  0.00  0.00    +0.000 A 
ATOM     18  C   UNL     1      14.176  -0.573  26.752  0.00  0.00    +0.000 A 
ATOM     19  C   UNL     1      15.252  -0.682  25.883  0.00  0.00    +0.000 A 
ATOM     20  C   UNL     1      16.476  -0.216  26.257  0.00  0.00    +0.000 A 
ATOM     21  C   UNL     1      16.652   0.358  27.487  0.00  0.00    +0.000 A 
ATOM     22  C   UNL     1      15.575   0.457  28.332  0.00  0.00    +0.000 A 
BRANCH  20  23
ATOM     23  C   UNL     1      17.625  -0.334  25.331  0.00  0.00    +0.000 A 
ATOM     24  C   UNL     1      18.350   0.692  24.815  0.00  0.00    +0.000 A 
ATOM     25  C   UNL     1      19.361   0.400  23.988  0.00  0.00    +0.000 A 
ATOM     26  C   UNL     1      20.219   1.311  23.358  0.00  0.00    +0.000 A 
ATOM     27  C   UNL     1      21.208   0.905  22.542  0.00  0.00    +0.000 A 
ATOM     28  C   UNL     1      21.462  -0.403  22.260  0.00  0.00    +0.000 A 
ATOM     29  C   UNL     1      20.627  -1.335  22.870  0.00  0.00    +0.000 A 
ATOM     30  C   UNL     1      19.592  -0.920  23.724  0.00  0.00    +0.000 A 
ATOM     31  S   UNL     1      18.377  -1.699  24.648  0.00  0.00    +0.000 S 
ENDBRANCH  20  23
ENDBRANCH   3  17
TORSDOF 7
ENDMDL
MODEL 4
REMARK VINA RESULT:      -6.9      1.656      2.209
REMARK  Name = 
REMARK  7 active torsions:
REMARK  status: ('A' for Active; 'I' for Inactive)
REMARK    1  A    between atoms: N_2  and  C_4
REMARK    2  A    between atoms: C_4  and  C_5
REMARK    3  A    between atoms: C_5  and  C_6
REMARK    4  A    between atoms: C_6  and  N_7
REMARK    5  A    between atoms: C_13  and  C_14
REMARK    6  A    between atoms: N_16  and  C_17
REMARK    7  A    between atoms: C_20  and  C_21
REMARK                            x       y       z     vdW  Elec       q    Type
REMARK                         _______ _______ _______ _____ _____    ______ ____
ROOT
ATOM      1  C   UNL     1      38.028   0.069  14.892  0.00  0.00    +0.000 C 
ATOM      2  O   UNL     1      39.129   0.659  15.003  0.00  0.00    +0.000 OA
ATOM      3  N   UNL     1      38.029  -1.171  14.217  0.00  0.00    +0.000 NA
ENDROOT
BRANCH   1  10
ATOM      4  N   UNL     1      37.254  -0.539  17.471  0.00  0.00    +0.000 NA
ATOM      5  C   UNL     1      36.461   0.377  16.734  0.00  0.00    +0.000 A 
ATOM      6  N   UNL     1      35.360   0.949  17.251  0.00  0.00    +0.000 NA
ATOM      7  C   UNL     1      34.622   1.825  16.514  0.00  0.00    +0.000 A 
ATOM      8  C   UNL     1      34.959   2.168  15.223  0.00  0.00    +0.000 A 
ATOM      9  C   UNL     1      36.091   1.582  14.688  0.00  0.00    +0.000 A 
ATOM     10  C   UNL     1      36.841   0.683  15.453  0.00  0.00    +0.000 A 
BRANCH   4  11
ATOM     11  C   UNL     1      36.842  -0.855  18.825  0.00  0.00    +0.000 C 
BRANCH  11  12
ATOM     12  C   UNL     1      37.465  -2.207  19.175  0.00  0.00    +0.000 C 
BRANCH  12  13
ATOM     13  C   UNL     1      38.467  -2.511  18.096  0.00  0.00    +0.000 C 
BRANCH  13  15
ATOM     14  C   UNL     1      38.176  -4.736  17.425  0.00  0.00    +0.000 C 
ATOM     15  N   UNL     1      39.019  -3.844  18.224  0.00  0.00    +0.000 NA
ATOM     16  C   UNL     1      38.938  -4.323  19.600  0.00  0.00    +0.000 C 
ENDBRANCH  13  15
ENDBRANCH  12  13
ENDBRANCH  11  12
ENDBRANCH   4  11
ENDBRANCH   1  10
BRANCH   3  17
ATOM     17  C   UNL     1      39.237  -1.745  13.676  0.00  0.00    +0.000 A 
ATOM     18  C   UNL     1      39.368  -1.969  12.321  0.00  0.00    +0.000 A 
ATOM     19  C   UNL     1      40.527  -2.519  11.792  0.00  0.00    +0.000 A 
ATOM     20  C   UNL     1      41.560  -2.847  12.618  0.00  0.00    +0.000 A 
ATOM     21  C   UNL     1      41.461  -2.638  13.967  0.00  0.00    +0.000 A 
ATOM     22  C   UNL     1      40.306  -2.092  14.470  0.00  0.00    +0.000 A 
BRANCH  20  23
ATOM     23  C   UNL     1      42.796  -3.436  12.055  0.00  0.00    +0.000 A 
ATOM     24  C   UNL     1      43.973  -3.612  12.710  0.00  0.00    +0.000 A 
ATOM     25  C   UNL     1      44.992  -4.163  12.041  0.00  0.00    +0.000 A 
ATOM     26  C   UNL     1      46.276  -4.426  12.538  0.00  0.00    +0.000 A 
ATOM     27  C   UNL     1      47.230  -4.987  11.773  0.00  0.00    +0.000 A 
ATOM     28  C   UNL     1      47.040  -5.344  10.473  0.00  0.00    +0.000 A 
ATOM     29  C   UNL     1      45.774  -5.097   9.948  0.00  0.00    +0.000 A 
ATOM     30  C   UNL     1      44.772  -4.512  10.739  0.00  0.00    +0.000 A 
ATOM     31  S   UNL     1      43.138  -4.050  10.505  0.00  0.00    +0.000 S 
ENDBRANCH  20  23
ENDBRANCH   3  17
TORSDOF 7
ENDMDL
MODEL 5
REMARK VINA RESULT:      -6.8      4.937      9.022
REMARK  Name = 
REMARK  7 active torsions:
REMARK  status: ('A' for Active; 'I' for Inactive)
REMARK    1  A    between atoms: N_2  and  C_4
REMARK    2  A    between atoms: C_4  and  C_5
REMARK    3  A    between atoms: C_5  and  C_6
REMARK    4  A    between atoms: C_6  and  N_7
REMARK    5  A    between atoms: C_13  and  C_14
REMARK    6  A    between atoms: N_16  and  C_17
REMARK    7  A    between atoms: C_20  and  C_21
REMARK                            x       y       z     vdW  Elec       q    Type
REMARK                         _______ _______ _______ _____ _____    ______ ____
ROOT
ATOM      1  C   UNL     1      36.850  -0.679  15.794  0.00  0.00    +0.000 C 
ATOM      2  O   UNL     1      37.576  -0.645  16.816  0.00  0.00    +0.000 OA
ATOM      3  N   UNL     1      36.573   0.552  15.160  0.00  0.00    +0.000 NA
ENDROOT
BRANCH   1  10
ATOM      4  N   UNL     1      38.256  -2.102  13.892  0.00  0.00    +0.000 NA
ATOM      5  C   UNL     1      37.048  -2.659  14.386  0.00  0.00    +0.000 A 
ATOM      6  N   UNL     1      36.579  -3.844  13.960  0.00  0.00    +0.000 NA
ATOM      7  C   UNL     1      35.416  -4.350  14.457  0.00  0.00    +0.000 A 
ATOM      8  C   UNL     1      34.672  -3.686  15.408  0.00  0.00    +0.000 A 
ATOM      9  C   UNL     1      35.151  -2.467  15.849  0.00  0.00    +0.000 A 
ATOM     10  C   UNL     1      36.347  -1.957  15.331  0.00  0.00    +0.000 A 
BRANCH   4  11
ATOM     11  C   UNL     1      38.989  -2.853  12.892  0.00  0.00    +0.000 C 
BRANCH  11  12
ATOM     12  C   UNL     1      39.515  -1.843  11.873  0.00  0.00    +0.000 C 
BRANCH  12  13
ATOM     13  C   UNL     1      39.493  -0.499  12.549  0.00  0.00    +0.000 C 
BRANCH  13  15
ATOM     14  C   UNL     1      37.599   0.534  11.638  0.00  0.00    +0.000 C 
ATOM     15  N   UNL     1      39.063   0.555  11.654  0.00  0.00    +0.000 NA
ATOM     16  C   UNL     1      39.494   0.297  10.284  0.00  0.00    +0.000 C 
ENDBRANCH  13  15
ENDBRANCH  12  13
ENDBRANCH  11  12
ENDBRANCH   4  11
ENDBRANCH   1  10
BRANCH   3  17
ATOM     17  C   UNL     1      37.097   1.801  15.658  0.00  0.00    +0.000 A 
ATOM     18  C   UNL     1      36.515   2.434  16.736  0.00  0.00    +0.000 A 
ATOM     19  C   UNL     1      37.013   3.634  17.221  0.00  0.00    +0.000 A 
ATOM     20  C   UNL     1      38.098   4.207  16.627  0.00  0.00    +0.000 A 
ATOM     21  C   UNL     1      38.698   3.605  15.555  0.00  0.00    +0.000 A 
ATOM     22  C   UNL     1      38.190   2.417  15.091  0.00  0.00    +0.000 A 
BRANCH  20  23
ATOM     23  C   UNL     1      38.630   5.489  17.142  0.00  0.00    +0.000 A 
ATOM     24  C   UNL     1      38.885   5.789  18.442  0.00  0.00    +0.000 A 
ATOM     25  C   UNL     1      39.367   7.004  18.727  0.00  0.00    +0.000 A 
ATOM     26  C   UNL     1      39.693   7.500  19.997  0.00  0.00    +0.000 A 
ATOM     27  C   UNL     1      40.173   8.744  20.170  0.00  0.00    +0.000 A 
ATOM     28  C   UNL     1      40.384   9.619  19.148  0.00  0.00    +0.000 A 
ATOM     29  C   UNL     1      40.071   9.158  17.872  0.00  0.00    +0.000 A 
ATOM     30  C   UNL     1      39.569   7.860  17.682  0.00  0.00    +0.000 A 
ATOM     31  S   UNL     1      39.072   6.922  16.337  0.00  0.00    +0.000 S 
ENDBRANCH  20  23
ENDBRANCH   3  17
TORSDOF 7
ENDMDL
MODEL 6
REMARK VINA RESULT:      -6.8     26.221     29.303
REMARK  Name = 
REMARK  7 active torsions:
REMARK  status: ('A' for Active; 'I' for Inactive)
REMARK    1  A    between atoms: N_2  and  C_4
REMARK    2  A    between atoms: C_4  and  C_5
REMARK    3  A    between atoms: C_5  and  C_6
REMARK    4  A    between atoms: C_6  and  N_7
REMARK    5  A    between atoms: C_13  and  C_14
REMARK    6  A    between atoms: N_16  and  C_17
REMARK    7  A    between atoms: C_20  and  C_21
REMARK                            x       y       z     vdW  Elec       q    Type
REMARK                         _______ _______ _______ _____ _____    ______ ____
ROOT
ATOM      1  C   UNL     1      10.528   3.794   9.015  0.00  0.00    +0.000 C 
ATOM      2  O   UNL     1      11.719   3.839   9.407  0.00  0.00    +0.000 OA
ATOM      3  N   UNL     1      10.084   2.580   8.446  0.00  0.00    +0.000 NA
ENDROOT
BRANCH   1  10
ATOM      4  N   UNL     1       8.928   4.063  11.248  0.00  0.00    +0.000 NA
ATOM      5  C   UNL     1       8.900   5.097  10.277  0.00  0.00    +0.000 A 
ATOM      6  N   UNL     1       8.128   6.188  10.415  0.00  0.00    +0.000 NA
ATOM      7  C   UNL     1       8.126   7.162   9.463  0.00  0.00    +0.000 A 
ATOM      8  C   UNL     1       8.904   7.083   8.328  0.00  0.00    +0.000 A 
ATOM      9  C   UNL     1       9.700   5.963   8.183  0.00  0.00    +0.000 A 
ATOM     10  C   UNL     1       9.693   4.969   9.167  0.00  0.00    +0.000 A 
BRANCH   4  11
ATOM     11  C   UNL     1       8.085   4.210  12.418  0.00  0.00    +0.000 C 
BRANCH  11  12
ATOM     12  C   UNL     1       8.139   2.883  13.175  0.00  0.00    +0.000 C 
BRANCH  12  13
ATOM     13  C   UNL     1       8.325   1.805  12.142  0.00  0.00    +0.000 C 
BRANCH  13  15
ATOM     14  C   UNL     1       7.825  -0.359  11.398  0.00  0.00    +0.000 C 
ATOM     15  N   UNL     1       7.465   0.665  12.381  0.00  0.00    +0.000 NA
ATOM     16  C   UNL     1       6.065   0.997  12.138  0.00  0.00    +0.000 C 
ENDBRANCH  13  15
ENDBRANCH  12  13
ENDBRANCH  11  12
ENDBRANCH   4  11
ENDBRANCH   1  10
BRANCH   3  17
ATOM     17  C   UNL     1      10.952   1.435   8.317  0.00  0.00    +0.000 A 
ATOM     18  C   UNL     1      11.746   1.272   7.200  0.00  0.00    +0.000 A 
ATOM     19  C   UNL     1      12.585   0.174   7.068  0.00  0.00    +0.000 A 
ATOM     20  C   UNL     1      12.631  -0.765   8.054  0.00  0.00    +0.000 A 
ATOM     21  C   UNL     1      11.855  -0.633   9.173  0.00  0.00    +0.000 A 
ATOM     22  C   UNL     1      11.033   0.460   9.285  0.00  0.00    +0.000 A 
BRANCH  20  23
ATOM     23  C   UNL     1      13.524  -1.938   7.913  0.00  0.00    +0.000 A 
ATOM     24  C   UNL     1      13.849  -2.823   8.891  0.00  0.00    +0.000 A 
ATOM     25  C   UNL     1      14.676  -3.829   8.584  0.00  0.00    +0.000 A 
ATOM     26  C   UNL     1      15.126  -4.837   9.447  0.00  0.00    +0.000 A 
ATOM     27  C   UNL     1      15.961  -5.806   9.030  0.00  0.00    +0.000 A 
ATOM     28  C   UNL     1      16.434  -5.895   7.757  0.00  0.00    +0.000 A 
ATOM     29  C   UNL     1      16.006  -4.909   6.873  0.00  0.00    +0.000 A 
ATOM     30  C   UNL     1      15.135  -3.893   7.299  0.00  0.00    +0.000 A 
ATOM     31  S   UNL     1      14.386  -2.534   6.572  0.00  0.00    +0.000 S 
ENDBRANCH  20  23
ENDBRANCH   3  17
TORSDOF 7
ENDMDL
MODEL 7
REMARK VINA RESULT:      -6.7      5.146      9.093
REMARK  Name = 
REMARK  7 active torsions:
REMARK  status: ('A' for Active; 'I' for Inactive)
REMARK    1  A    between atoms: N_2  and  C_4
REMARK    2  A    between atoms: C_4  and  C_5
REMARK    3  A    between atoms: C_5  and  C_6
REMARK    4  A    between atoms: C_6  and  N_7
REMARK    5  A    between atoms: C_13  and  C_14
REMARK    6  A    between atoms: N_16  and  C_17
REMARK    7  A    between atoms: C_20  and  C_21
REMARK                            x       y       z     vdW  Elec       q    Type
REMARK                         _______ _______ _______ _____ _____    ______ ____
ROOT
ATOM      1  C   UNL     1      35.388   6.665  14.175  0.00  0.00    +0.000 C 
ATOM      2  O   UNL     1      36.531   6.527  14.673  0.00  0.00    +0.000 OA
ATOM      3  N   UNL     1      34.617   5.495  13.999  0.00  0.00    +0.000 NA
ENDROOT
BRANCH   1  10
ATOM      4  N   UNL     1      35.414   7.456  11.531  0.00  0.00    +0.000 NA
ATOM      5  C   UNL     1      34.950   8.382  12.501  0.00  0.00    +0.000 A 
ATOM      6  N   UNL     1      34.528   9.614  12.171  0.00  0.00    +0.000 NA
ATOM      7  C   UNL     1      34.088  10.477  13.128  0.00  0.00    +0.000 A 
ATOM      8  C   UNL     1      34.051  10.138  14.464  0.00  0.00    +0.000 A 
ATOM      9  C   UNL     1      34.484   8.871  14.807  0.00  0.00    +0.000 A 
ATOM     10  C   UNL     1      34.934   7.994  13.815  0.00  0.00    +0.000 A 
BRANCH   4  11
ATOM     11  C   UNL     1      35.427   7.878  10.144  0.00  0.00    +0.000 C 
BRANCH  11  12
ATOM     12  C   UNL     1      34.098   7.434   9.532  0.00  0.00    +0.000 C 
BRANCH  12  13
ATOM     13  C   UNL     1      34.357   7.186   8.072  0.00  0.00    +0.000 C 
BRANCH  13  15
ATOM     14  C   UNL     1      33.201   7.010   6.042  0.00  0.00    +0.000 C 
ATOM     15  N   UNL     1      33.390   7.852   7.225  0.00  0.00    +0.000 NA
ATOM     16  C   UNL     1      33.899   9.133   6.742  0.00  0.00    +0.000 C 
ENDBRANCH  13  15
ENDBRANCH  12  13
ENDBRANCH  11  12
ENDBRANCH   4  11
ENDBRANCH   1  10
BRANCH   3  17
ATOM     17  C   UNL     1      35.112   4.192  14.374  0.00  0.00    +0.000 A 
ATOM     18  C   UNL     1      34.505   3.467  15.378  0.00  0.00    +0.000 A 
ATOM     19  C   UNL     1      34.974   2.213  15.744  0.00  0.00    +0.000 A 
ATOM     20  C   UNL     1      36.054   1.681  15.106  0.00  0.00    +0.000 A 
ATOM     21  C   UNL     1      36.679   2.376  14.107  0.00  0.00    +0.000 A 
ATOM     22  C   UNL     1      36.199   3.614  13.759  0.00  0.00    +0.000 A 
BRANCH  20  23
ATOM     23  C   UNL     1      36.557   0.344  15.497  0.00  0.00    +0.000 A 
ATOM     24  C   UNL     1      37.837  -0.097  15.389  0.00  0.00    +0.000 A 
ATOM     25  C   UNL     1      38.113  -1.342  15.793  0.00  0.00    +0.000 A 
ATOM     26  C   UNL     1      39.363  -1.975  15.764  0.00  0.00    +0.000 A 
ATOM     27  C   UNL     1      39.528  -3.237  16.199  0.00  0.00    +0.000 A 
ATOM     28  C   UNL     1      38.517  -4.000  16.698  0.00  0.00    +0.000 A 
ATOM     29  C   UNL     1      37.260  -3.401  16.741  0.00  0.00    +0.000 A 
ATOM     30  C   UNL     1      37.079  -2.083  16.290  0.00  0.00    +0.000 A 
ATOM     31  S   UNL     1      35.757  -1.000  16.168  0.00  0.00    +0.000 S 
ENDBRANCH  20  23
ENDBRANCH   3  17
TORSDOF 7
ENDMDL
MODEL 8
REMARK VINA RESULT:      -6.5      4.090     10.406
REMARK  Name = 
REMARK  7 active torsions:
REMARK  status: ('A' for Active; 'I' for Inactive)
REMARK    1  A    between atoms: N_2  and  C_4
REMARK    2  A    between atoms: C_4  and  C_5
REMARK    3  A    between atoms: C_5  and  C_6
REMARK    4  A    between atoms: C_6  and  N_7
REMARK    5  A    between atoms: C_13  and  C_14
REMARK    6  A    between atoms: N_16  and  C_17
REMARK    7  A    between atoms: C_20  and  C_21
REMARK                            x       y       z     vdW  Elec       q    Type
REMARK                         _______ _______ _______ _____ _____    ______ ____
ROOT
ATOM      1  C   UNL     1      36.403   0.658  15.945  0.00  0.00    +0.000 C 
ATOM      2  O   UNL     1      36.739   1.519  16.793  0.00  0.00    +0.000 OA
ATOM      3  N   UNL     1      35.875   1.131  14.723  0.00  0.00    +0.000 NA
ENDROOT
BRANCH   1  10
ATOM      4  N   UNL     1      38.803  -0.592  15.402  0.00  0.00    +0.000 NA
ATOM      5  C   UNL     1      37.767  -1.362  15.990  0.00  0.00    +0.000 A 
ATOM      6  N   UNL     1      37.921  -2.664  16.286  0.00  0.00    +0.000 NA
ATOM      7  C   UNL     1      36.905  -3.373  16.851  0.00  0.00    +0.000 A 
ATOM      8  C   UNL     1      35.685  -2.803  17.146  0.00  0.00    +0.000 A 
ATOM      9  C   UNL     1      35.523  -1.464  16.843  0.00  0.00    +0.000 A 
ATOM     10  C   UNL     1      36.573  -0.746  16.263  0.00  0.00    +0.000 A 
BRANCH   4  11
ATOM     11  C   UNL     1      40.062  -1.255  15.118  0.00  0.00    +0.000 C 
BRANCH  11  12
ATOM     12  C   UNL     1      40.863  -0.318  14.214  0.00  0.00    +0.000 C 
BRANCH  12  13
ATOM     13  C   UNL     1      41.435  -1.168  13.113  0.00  0.00    +0.000 C 
BRANCH  13  15
ATOM     14  C   UNL     1      41.348  -3.384  12.360  0.00  0.00    +0.000 C 
ATOM     15  N   UNL     1      40.528  -2.223  12.711  0.00  0.00    +0.000 NA
ATOM     16  C   UNL     1      39.790  -1.859  11.506  0.00  0.00    +0.000 C 
ENDBRANCH  13  15
ENDBRANCH  12  13
ENDBRANCH  11  12
ENDBRANCH   4  11
ENDBRANCH   1  10
BRANCH   3  17
ATOM     17  C   UNL     1      35.725   2.540  14.452  0.00  0.00    +0.000 A 
ATOM     18  C   UNL     1      36.632   3.207  13.655  0.00  0.00    +0.000 A 
ATOM     19  C   UNL     1      36.495   4.562  13.388  0.00  0.00    +0.000 A 
ATOM     20  C   UNL     1      35.449   5.255  13.919  0.00  0.00    +0.000 A 
ATOM     21  C   UNL     1      34.532   4.622  14.715  0.00  0.00    +0.000 A 
ATOM     22  C   UNL     1      34.686   3.281  14.966  0.00  0.00    +0.000 A 
BRANCH  20  23
ATOM     23  C   UNL     1      35.302   6.700  13.637  0.00  0.00    +0.000 A 
ATOM     24  C   UNL     1      34.607   7.599  14.381  0.00  0.00    +0.000 A 
ATOM     25  C   UNL     1      34.582   8.873  13.974  0.00  0.00    +0.000 A 
ATOM     26  C   UNL     1      33.925   9.940  14.601  0.00  0.00    +0.000 A 
ATOM     27  C   UNL     1      33.966  11.189  14.102  0.00  0.00    +0.000 A 
ATOM     28  C   UNL     1      34.637  11.524  12.965  0.00  0.00    +0.000 A 
ATOM     29  C   UNL     1      35.301  10.485  12.317  0.00  0.00    +0.000 A 
ATOM     30  C   UNL     1      35.263   9.179  12.831  0.00  0.00    +0.000 A 
ATOM     31  S   UNL     1      35.914   7.661  12.372  0.00  0.00    +0.000 S 
ENDBRANCH  20  23
ENDBRANCH   3  17
TORSDOF 7
ENDMDL
MODEL 9
REMARK VINA RESULT:      -6.5      4.013      9.983
REMARK  Name = 
REMARK  7 active torsions:
REMARK  status: ('A' for Active; 'I' for Inactive)
REMARK    1  A    between atoms: N_2  and  C_4
REMARK    2  A    between atoms: C_4  and  C_5
REMARK    3  A    between atoms: C_5  and  C_6
REMARK    4  A    between atoms: C_6  and  N_7
REMARK    5  A    between atoms: C_13  and  C_14
REMARK    6  A    between atoms: N_16  and  C_17
REMARK    7  A    between atoms: C_20  and  C_21
REMARK                            x       y       z     vdW  Elec       q    Type
REMARK                         _______ _______ _______ _____ _____    ______ ____
ROOT
ATOM      1  C   UNL     1      38.487   0.903  14.286  0.00  0.00    +0.000 C 
ATOM      2  O   UNL     1      38.347   1.266  13.094  0.00  0.00    +0.000 OA
ATOM      3  N   UNL     1      38.076   1.809  15.288  0.00  0.00    +0.000 NA
ENDROOT
BRANCH   1  10
ATOM      4  N   UNL     1      36.826  -1.209  14.919  0.00  0.00    +0.000 NA
ATOM      5  C   UNL     1      38.224  -1.448  14.876  0.00  0.00    +0.000 A 
ATOM      6  N   UNL     1      38.752  -2.657  15.129  0.00  0.00    +0.000 NA
ATOM      7  C   UNL     1      40.100  -2.851  15.078  0.00  0.00    +0.000 A 
ATOM      8  C   UNL     1      40.978  -1.836  14.767  0.00  0.00    +0.000 A 
ATOM      9  C   UNL     1      40.438  -0.591  14.505  0.00  0.00    +0.000 A 
ATOM     10  C   UNL     1      39.053  -0.403  14.561  0.00  0.00    +0.000 A 
BRANCH   4  11
ATOM     11  C   UNL     1      35.959  -2.322  15.253  0.00  0.00    +0.000 C 
BRANCH  11  12
ATOM     12  C   UNL     1      35.175  -1.916  16.501  0.00  0.00    +0.000 C 
BRANCH  12  13
ATOM     13  C   UNL     1      36.006  -2.331  17.685  0.00  0.00    +0.000 C 
BRANCH  13  15
ATOM     14  C   UNL     1      37.647  -1.735  19.246  0.00  0.00    +0.000 C 
ATOM     15  N   UNL     1      36.635  -1.199  18.334  0.00  0.00    +0.000 NA
ATOM     16  C   UNL     1      35.681  -0.464  19.160  0.00  0.00    +0.000 C 
ENDBRANCH  13  15
ENDBRANCH  12  13
ENDBRANCH  11  12
ENDBRANCH   4  11
ENDBRANCH   1  10
BRANCH   3  17
ATOM     17  C   UNL     1      37.516   3.100  14.965  0.00  0.00    +0.000 A 
ATOM     18  C   UNL     1      36.169   3.242  14.708  0.00  0.00    +0.000 A 
ATOM     19  C   UNL     1      35.622   4.479  14.398  0.00  0.00    +0.000 A 
ATOM     20  C   UNL     1      36.424   5.580  14.343  0.00  0.00    +0.000 A 
ATOM     21  C   UNL     1      37.766   5.472  14.593  0.00  0.00    +0.000 A 
ATOM     22  C   UNL     1      38.286   4.239  14.898  0.00  0.00    +0.000 A 
BRANCH  20  23
ATOM     23  C   UNL     1      35.843   6.900  14.011  0.00  0.00    +0.000 A 
ATOM     24  C   UNL     1      35.401   7.830  14.897  0.00  0.00    +0.000 A 
ATOM     25  C   UNL     1      34.903   8.975  14.415  0.00  0.00    +0.000 A 
ATOM     26  C   UNL     1      34.401  10.049  15.162  0.00  0.00    +0.000 A 
ATOM     27  C   UNL     1      33.922  11.159  14.572  0.00  0.00    +0.000 A 
ATOM     28  C   UNL     1      33.882  11.337  13.223  0.00  0.00    +0.000 A 
ATOM     29  C   UNL     1      34.374  10.288  12.451  0.00  0.00    +0.000 A 
ATOM     30  C   UNL     1      34.876   9.125  13.058  0.00  0.00    +0.000 A 
ATOM     31  S   UNL     1      35.553   7.649  12.510  0.00  0.00    +0.000 S 
ENDBRANCH  20  23
ENDBRANCH   3  17
TORSDOF 7
ENDMDL
MODEL 10
REMARK VINA RESULT:      -6.5      4.807      8.927
REMARK  Name = 
REMARK  7 active torsions:
REMARK  status: ('A' for Active; 'I' for Inactive)
REMARK    1  A    between atoms: N_2  and  C_4
REMARK    2  A    between atoms: C_4  and  C_5
REMARK    3  A    between atoms: C_5  and  C_6
REMARK    4  A    between atoms: C_6  and  N_7
REMARK    5  A    between atoms: C_13  and  C_14
REMARK    6  A    between atoms: N_16  and  C_17
REMARK    7  A    between atoms: C_20  and  C_21
REMARK                            x       y       z     vdW  Elec       q    Type
REMARK                         _______ _______ _______ _____ _____    ______ ____
ROOT
ATOM      1  C   UNL     1      40.124   0.355  13.029  0.00  0.00    +0.000 C 
ATOM      2  O   UNL     1      40.749   0.312  14.116  0.00  0.00    +0.000 OA
ATOM      3  N   UNL     1      39.281   1.467  12.815  0.00  0.00    +0.000 NA
ENDROOT
BRANCH   1  10
ATOM      4  N   UNL     1      38.650  -1.964  13.285  0.00  0.00    +0.000 NA
ATOM      5  C   UNL     1      39.567  -1.871  12.206  0.00  0.00    +0.000 A 
ATOM      6  N   UNL     1      39.732  -2.866  11.318  0.00  0.00    +0.000 NA
ATOM      7  C   UNL     1      40.621  -2.742  10.294  0.00  0.00    +0.000 A 
ATOM      8  C   UNL     1      41.384  -1.608  10.115  0.00  0.00    +0.000 A 
ATOM      9  C   UNL     1      41.216  -0.583  11.025  0.00  0.00    +0.000 A 
ATOM     10  C   UNL     1      40.301  -0.721  12.074  0.00  0.00    +0.000 A 
BRANCH   4  11
ATOM     11  C   UNL     1      37.879  -3.186  13.414  0.00  0.00    +0.000 C 
BRANCH  11  12
ATOM     12  C   UNL     1      36.847  -2.945  14.516  0.00  0.00    +0.000 C 
BRANCH  12  13
ATOM     13  C   UNL     1      37.607  -2.884  15.812  0.00  0.00    +0.000 C 
BRANCH  13  15
ATOM     14  C   UNL     1      35.532  -2.620  16.867  0.00  0.00    +0.000 C 
ATOM     15  N   UNL     1      36.906  -2.116  16.820  0.00  0.00    +0.000 NA
ATOM     16  C   UNL     1      36.816  -0.708  16.448  0.00  0.00    +0.000 C 
ENDBRANCH  13  15
ENDBRANCH  12  13
ENDBRANCH  11  12
ENDBRANCH   4  11
ENDBRANCH   1  10
BRANCH   3  17
ATOM     17  C   UNL     1      39.138   2.516  13.796  0.00  0.00    +0.000 A 
ATOM     18  C   UNL     1      38.181   2.433  14.786  0.00  0.00    +0.000 A 
ATOM     19  C   UNL     1      38.037   3.436  15.734  0.00  0.00    +0.000 A 
ATOM     20  C   UNL     1      38.852   4.528  15.694  0.00  0.00    +0.000 A 
ATOM     21  C   UNL     1      39.811   4.640  14.724  0.00  0.00    +0.000 A 
ATOM     22  C   UNL     1      39.937   3.636  13.796  0.00  0.00    +0.000 A 
BRANCH  20  23
ATOM     23  C   UNL     1      38.699   5.600  16.703  0.00  0.00    +0.000 A 
ATOM     24  C   UNL     1      39.243   5.616  17.947  0.00  0.00    +0.000 A 
ATOM     25  C   UNL     1      38.998   6.673  18.731  0.00  0.00    +0.000 A 
ATOM     26  C   UNL     1      39.466   6.875  20.036  0.00  0.00    +0.000 A 
ATOM     27  C   UNL     1      39.156   7.981  20.736  0.00  0.00    +0.000 A 
ATOM     28  C   UNL     1      38.376   8.985  20.251  0.00  0.00    +0.000 A 
ATOM     29  C   UNL     1      37.893   8.816  18.956  0.00  0.00    +0.000 A 
ATOM     30  C   UNL     1      38.212   7.665  18.217  0.00  0.00    +0.000 A 
ATOM     31  S   UNL     1      37.848   7.073  16.651  0.00  0.00    +0.000 S 
ENDBRANCH  20  23
ENDBRANCH   3  17
TORSDOF 7
ENDMDL
