MODEL 1
REMARK VINA RESULT:      -6.6      0.000      0.000
REMARK  Name = 
REMARK  2 active torsions:
REMARK  status: ('A' for Active; 'I' for Inactive)
REMARK    1  A    between atoms: N_2  and  C_4
REMARK    2  A    between atoms: C_7  and  C_8
REMARK                            x       y       z     vdW  Elec       q    Type
REMARK                         _______ _______ _______ _____ _____    ______ ____
ROOT
ATOM      1  C   UNL     1      17.779  -7.224  27.485  0.00  0.00    +0.000 C 
ATOM      2  C   UNL     1      18.783  -6.762  26.776  0.00  0.00    +0.000 C 
ATOM      3  C   UNL     1      18.905  -5.348  26.318  0.00  0.00    +0.000 C 
ATOM      4  O   UNL     1      18.055  -4.463  26.600  0.00  0.00    +0.000 OA
ATOM      5  N   UNL     1      20.094  -5.287  25.572  0.00  0.00    +0.000 NA
ATOM      6  C   UNL     1      20.724  -6.557  25.529  0.00  0.00    +0.000 A 
ATOM      7  C   UNL     1      21.906  -6.989  24.912  0.00  0.00    +0.000 A 
ATOM      8  C   UNL     1      22.257  -8.307  25.044  0.00  0.00    +0.000 A 
ATOM      9 CL   UNL     1      23.722  -8.885  24.290  0.00  0.00    +0.000 Cl
ATOM     10  C   UNL     1      21.477  -9.188  25.761  0.00  0.00    +0.000 A 
ATOM     11  C   UNL     1      20.309  -8.770  26.374  0.00  0.00    +0.000 A 
ATOM     12  C   UNL     1      19.938  -7.451  26.254  0.00  0.00    +0.000 A 
ENDROOT
BRANCH   1  16
ATOM     13  C   UNL     1      17.328 -11.318  28.564  0.00  0.00    +0.000 A 
ATOM     14  C   UNL     1      16.749 -10.789  27.422  0.00  0.00    +0.000 A 
ATOM     15  C   UNL     1      16.940  -9.459  27.116  0.00  0.00    +0.000 A 
ATOM     16  C   UNL     1      17.703  -8.590  27.907  0.00  0.00    +0.000 A 
ATOM     17  C   UNL     1      18.260  -9.156  29.029  0.00  0.00    +0.000 A 
ATOM     18  C   UNL     1      18.080 -10.490  29.356  0.00  0.00    +0.000 A 
BRANCH  13  20
ATOM     19  C   UNL     1      16.428 -13.622  28.070  0.00  0.00    +0.000 C 
ATOM     20  N   UNL     1      17.146 -12.678  28.897  0.00  0.00    +0.000 N 
ATOM     21  C   UNL     1      17.695 -13.189  30.142  0.00  0.00    +0.000 C 
ENDBRANCH  13  20
ENDBRANCH   1  16
TORSDOF 2
ENDMDL
MODEL 2
REMARK VINA RESULT:      -6.6     21.729     23.374
REMARK  Name = 
REMARK  2 active torsions:
REMARK  status: ('A' for Active; 'I' for Inactive)
REMARK    1  A    between atoms: N_2  and  C_4
REMARK    2  A    between atoms: C_7  and  C_8
REMARK                            x       y       z     vdW  Elec       q    Type
REMARK                         _______ _______ _______ _____ _____    ______ ____
ROOT
ATOM      1  C   UNL     1      18.240   9.394  38.201  0.00  0.00    +0.000 C 
ATOM      2  C   UNL     1      19.267   9.968  38.783  0.00  0.00    +0.000 C 
ATOM      3  C   UNL     1      20.204   9.267  39.709  0.00  0.00    +0.000 C 
ATOM      4  O   UNL     1      20.099   8.044  39.990  0.00  0.00    +0.000 OA
ATOM      5  N   UNL     1      21.127  10.239  40.128  0.00  0.00    +0.000 NA
ATOM      6  C   UNL     1      20.838  11.495  39.536  0.00  0.00    +0.000 A 
ATOM      7  C   UNL     1      21.460  12.745  39.653  0.00  0.00    +0.000 A 
ATOM      8  C   UNL     1      20.932  13.796  38.948  0.00  0.00    +0.000 A 
ATOM      9 CL   UNL     1      21.679  15.370  39.068  0.00  0.00    +0.000 Cl
ATOM     10  C   UNL     1      19.823  13.636  38.146  0.00  0.00    +0.000 A 
ATOM     11  C   UNL     1      19.203  12.405  38.024  0.00  0.00    +0.000 A 
ATOM     12  C   UNL     1      19.716  11.337  38.723  0.00  0.00    +0.000 A 
ENDROOT
BRANCH   1  16
ATOM     13  C   UNL     1      15.849  11.489  35.368  0.00  0.00    +0.000 A 
ATOM     14  C   UNL     1      16.954  10.744  34.991  0.00  0.00    +0.000 A 
ATOM     15  C   UNL     1      17.683  10.075  35.950  0.00  0.00    +0.000 A 
ATOM     16  C   UNL     1      17.366  10.104  37.316  0.00  0.00    +0.000 A 
ATOM     17  C   UNL     1      16.262  10.854  37.645  0.00  0.00    +0.000 A 
ATOM     18  C   UNL     1      15.516  11.534  36.697  0.00  0.00    +0.000 A 
BRANCH  13  20
ATOM     19  C   UNL     1      15.108  11.878  32.988  0.00  0.00    +0.000 C 
ATOM     20  N   UNL     1      15.086  12.182  34.402  0.00  0.00    +0.000 N 
ATOM     21  C   UNL     1      14.224  13.275  34.820  0.00  0.00    +0.000 C 
ENDBRANCH  13  20
ENDBRANCH   1  16
TORSDOF 2
ENDMDL
MODEL 3
REMARK VINA RESULT:      -6.5     33.249     34.779
REMARK  Name = 
REMARK  2 active torsions:
REMARK  status: ('A' for Active; 'I' for Inactive)
REMARK    1  A    between atoms: N_2  and  C_4
REMARK    2  A    between atoms: C_7  and  C_8
REMARK                            x       y       z     vdW  Elec       q    Type
REMARK                         _______ _______ _______ _____ _____    ______ ____
ROOT
ATOM      1  C   UNL     1      28.392  23.412  23.224  0.00  0.00    +0.000 C 
ATOM      2  C   UNL     1      27.284  23.474  23.926  0.00  0.00    +0.000 C 
ATOM      3  C   UNL     1      25.919  23.278  23.355  0.00  0.00    +0.000 C 
ATOM      4  O   UNL     1      25.719  23.008  22.142  0.00  0.00    +0.000 OA
ATOM      5  N   UNL     1      25.027  23.458  24.426  0.00  0.00    +0.000 NA
ATOM      6  C   UNL     1      25.731  23.751  25.622  0.00  0.00    +0.000 A 
ATOM      7  C   UNL     1      25.284  24.012  26.924  0.00  0.00    +0.000 A 
ATOM      8  C   UNL     1      26.223  24.277  27.886  0.00  0.00    +0.000 A 
ATOM      9 CL   UNL     1      25.707  24.608  29.522  0.00  0.00    +0.000 Cl
ATOM     10  C   UNL     1      27.569  24.288  27.590  0.00  0.00    +0.000 A 
ATOM     11  C   UNL     1      28.019  24.031  26.307  0.00  0.00    +0.000 A 
ATOM     12  C   UNL     1      27.093  23.763  25.327  0.00  0.00    +0.000 A 
ENDROOT
BRANCH   1  16
ATOM     13  C   UNL     1      32.242  24.238  24.845  0.00  0.00    +0.000 A 
ATOM     14  C   UNL     1      31.434  25.234  24.322  0.00  0.00    +0.000 A 
ATOM     15  C   UNL     1      30.191  24.910  23.823  0.00  0.00    +0.000 A 
ATOM     16  C   UNL     1      29.683  23.604  23.813  0.00  0.00    +0.000 A 
ATOM     17  C   UNL     1      30.517  22.647  24.342  0.00  0.00    +0.000 A 
ATOM     18  C   UNL     1      31.770  22.951  24.848  0.00  0.00    +0.000 A 
BRANCH  13  20
ATOM     19  C   UNL     1      33.762  24.920  26.739  0.00  0.00    +0.000 C 
ATOM     20  N   UNL     1      33.519  24.548  25.363  0.00  0.00    +0.000 N 
ATOM     21  C   UNL     1      34.677  24.506  24.485  0.00  0.00    +0.000 C 
ENDBRANCH  13  20
ENDBRANCH   1  16
TORSDOF 2
ENDMDL
MODEL 4
REMARK VINA RESULT:      -6.3     15.126     18.180
REMARK  Name = 
REMARK  2 active torsions:
REMARK  status: ('A' for Active; 'I' for Inactive)
REMARK    1  A    between atoms: N_2  and  C_4
REMARK    2  A    between atoms: C_7  and  C_8
REMARK                            x       y       z     vdW  Elec       q    Type
REMARK                         _______ _______ _______ _____ _____    ______ ____
ROOT
ATOM      1  C   UNL     1      26.188   5.024  18.831  0.00  0.00    +0.000 C 
ATOM      2  C   UNL     1      26.858   5.776  17.989  0.00  0.00    +0.000 C 
ATOM      3  C   UNL     1      27.852   6.810  18.399  0.00  0.00    +0.000 C 
ATOM      4  O   UNL     1      28.152   7.030  19.602  0.00  0.00    +0.000 OA
ATOM      5  N   UNL     1      28.307   7.399  17.207  0.00  0.00    +0.000 NA
ATOM      6  C   UNL     1      27.672   6.811  16.084  0.00  0.00    +0.000 A 
ATOM      7  C   UNL     1      27.789   7.064  14.710  0.00  0.00    +0.000 A 
ATOM      8  C   UNL     1      27.020   6.323  13.851  0.00  0.00    +0.000 A 
ATOM      9 CL   UNL     1      27.137   6.609  12.132  0.00  0.00    +0.000 Cl
ATOM     10  C   UNL     1      26.156   5.356  14.315  0.00  0.00    +0.000 A 
ATOM     11  C   UNL     1      26.034   5.098  15.669  0.00  0.00    +0.000 A 
ATOM     12  C   UNL     1      26.796   5.831  16.549  0.00  0.00    +0.000 A 
ENDROOT
BRANCH   1  16
ATOM     13  C   UNL     1      23.175   2.251  17.664  0.00  0.00    +0.000 A 
ATOM     14  C   UNL     1      22.870   3.532  18.092  0.00  0.00    +0.000 A 
ATOM     15  C   UNL     1      23.888   4.392  18.444  0.00  0.00    +0.000 A 
ATOM     16  C   UNL     1      25.244   4.040  18.394  0.00  0.00    +0.000 A 
ATOM     17  C   UNL     1      25.501   2.760  17.963  0.00  0.00    +0.000 A 
ATOM     18  C   UNL     1      24.493   1.880  17.605  0.00  0.00    +0.000 A 
BRANCH  13  20
ATOM     19  C   UNL     1      20.757   1.532  17.646  0.00  0.00    +0.000 C 
ATOM     20  N   UNL     1      22.148   1.353  17.295  0.00  0.00    +0.000 N 
ATOM     21  C   UNL     1      22.479   0.165  16.525  0.00  0.00    +0.000 C 
ENDBRANCH  13  20
ENDBRANCH   1  16
TORSDOF 2
ENDMDL
MODEL 5
REMARK VINA RESULT:      -6.3     21.718     22.590
REMARK  Name = 
REMARK  2 active torsions:
REMARK  status: ('A' for Active; 'I' for Inactive)
REMARK    1  A    between atoms: N_2  and  C_4
REMARK    2  A    between atoms: C_7  and  C_8
REMARK                            x       y       z     vdW  Elec       q    Type
REMARK                         _______ _______ _______ _____ _____    ______ ____
ROOT
ATOM      1  C   UNL     1      15.176   9.838  40.467  0.00  0.00    +0.000 C 
ATOM      2  C   UNL     1      15.722  10.213  39.334  0.00  0.00    +0.000 C 
ATOM      3  C   UNL     1      14.992  10.936  38.252  0.00  0.00    +0.000 C 
ATOM      4  O   UNL     1      13.782  11.272  38.350  0.00  0.00    +0.000 OA
ATOM      5  N   UNL     1      15.922  11.115  37.215  0.00  0.00    +0.000 NA
ATOM      6  C   UNL     1      17.179  10.559  37.567  0.00  0.00    +0.000 A 
ATOM      7  C   UNL     1      18.392  10.486  36.869  0.00  0.00    +0.000 A 
ATOM      8  C   UNL     1      19.450   9.865  37.481  0.00  0.00    +0.000 A 
ATOM      9 CL   UNL     1      20.980   9.753  36.645  0.00  0.00    +0.000 Cl
ATOM     10  C   UNL     1      19.332   9.327  38.744  0.00  0.00    +0.000 A 
ATOM     11  C   UNL     1      18.138   9.395  39.440  0.00  0.00    +0.000 A 
ATOM     12  C   UNL     1      17.064  10.014  38.844  0.00  0.00    +0.000 A 
ENDROOT
BRANCH   1  16
ATOM     13  C   UNL     1      17.225   7.550  43.416  0.00  0.00    +0.000 A 
ATOM     14  C   UNL     1      16.521   6.957  42.382  0.00  0.00    +0.000 A 
ATOM     15  C   UNL     1      15.888   7.748  41.448  0.00  0.00    +0.000 A 
ATOM     16  C   UNL     1      15.915   9.149  41.482  0.00  0.00    +0.000 A 
ATOM     17  C   UNL     1      16.626   9.696  42.524  0.00  0.00    +0.000 A 
ATOM     18  C   UNL     1      17.268   8.919  43.474  0.00  0.00    +0.000 A 
BRANCH  13  20
ATOM     19  C   UNL     1      18.320   5.401  44.153  0.00  0.00    +0.000 C 
ATOM     20  N   UNL     1      17.883   6.759  44.384  0.00  0.00    +0.000 N 
ATOM     21  C   UNL     1      18.144   7.312  45.703  0.00  0.00    +0.000 C 
ENDBRANCH  13  20
ENDBRANCH   1  16
TORSDOF 2
ENDMDL
MODEL 6
REMARK VINA RESULT:      -6.2     33.313     34.912
REMARK  Name = 
REMARK  2 active torsions:
REMARK  status: ('A' for Active; 'I' for Inactive)
REMARK    1  A    between atoms: N_2  and  C_4
REMARK    2  A    between atoms: C_7  and  C_8
REMARK                            x       y       z     vdW  Elec       q    Type
REMARK                         _______ _______ _______ _____ _____    ______ ____
ROOT
ATOM      1  C   UNL     1      30.536  23.680  23.761  0.00  0.00    +0.000 C 
ATOM      2  C   UNL     1      29.461  24.361  23.437  0.00  0.00    +0.000 C 
ATOM      3  C   UNL     1      29.071  24.691  22.035  0.00  0.00    +0.000 C 
ATOM      4  O   UNL     1      29.736  24.316  21.034  0.00  0.00    +0.000 OA
ATOM      5  N   UNL     1      27.891  25.447  22.134  0.00  0.00    +0.000 NA
ATOM      6  C   UNL     1      27.514  25.614  23.491  0.00  0.00    +0.000 A 
ATOM      7  C   UNL     1      26.436  26.287  24.081  0.00  0.00    +0.000 A 
ATOM      8  C   UNL     1      26.343  26.280  25.449  0.00  0.00    +0.000 A 
ATOM      9 CL   UNL     1      25.014  27.107  26.223  0.00  0.00    +0.000 Cl
ATOM     10  C   UNL     1      27.278  25.634  26.227  0.00  0.00    +0.000 A 
ATOM     11  C   UNL     1      28.346  24.967  25.653  0.00  0.00    +0.000 A 
ATOM     12  C   UNL     1      28.458  24.961  24.282  0.00  0.00    +0.000 A 
ENDROOT
BRANCH   1  16
ATOM     13  C   UNL     1      31.301  22.625  27.815  0.00  0.00    +0.000 A 
ATOM     14  C   UNL     1      30.445  21.890  27.011  0.00  0.00    +0.000 A 
ATOM     15  C   UNL     1      30.246  22.271  25.702  0.00  0.00    +0.000 A 
ATOM     16  C   UNL     1      30.872  23.382  25.121  0.00  0.00    +0.000 A 
ATOM     17  C   UNL     1      31.713  24.082  25.953  0.00  0.00    +0.000 A 
ATOM     18  C   UNL     1      31.926  23.717  27.272  0.00  0.00    +0.000 A 
BRANCH  13  20
ATOM     19  C   UNL     1      32.644  21.456  29.601  0.00  0.00    +0.000 C 
ATOM     20  N   UNL     1      31.521  22.253  29.159  0.00  0.00    +0.000 N 
ATOM     21  C   UNL     1      30.578  22.673  30.182  0.00  0.00    +0.000 C 
ENDBRANCH  13  20
ENDBRANCH   1  16
TORSDOF 2
ENDMDL
MODEL 7
REMARK VINA RESULT:      -6.1     32.882     34.396
REMARK  Name = 
REMARK  2 active torsions:
REMARK  status: ('A' for Active; 'I' for Inactive)
REMARK    1  A    between atoms: N_2  and  C_4
REMARK    2  A    between atoms: C_7  and  C_8
REMARK                            x       y       z     vdW  Elec       q    Type
REMARK                         _______ _______ _______ _____ _____    ______ ____
ROOT
ATOM      1  C   UNL     1      27.580  22.409  27.849  0.00  0.00    +0.000 C 
ATOM      2  C   UNL     1      26.926  23.090  28.761  0.00  0.00    +0.000 C 
ATOM      3  C   UNL     1      26.715  22.623  30.163  0.00  0.00    +0.000 C 
ATOM      4  O   UNL     1      27.175  21.535  30.598  0.00  0.00    +0.000 OA
ATOM      5  N   UNL     1      25.949  23.622  30.787  0.00  0.00    +0.000 NA
ATOM      6  C   UNL     1      25.665  24.676  29.883  0.00  0.00    +0.000 A 
ATOM      7  C   UNL     1      24.941  25.866  30.037  0.00  0.00    +0.000 A 
ATOM      8  C   UNL     1      24.831  26.699  28.954  0.00  0.00    +0.000 A 
ATOM      9 CL   UNL     1      23.936  28.191  29.107  0.00  0.00    +0.000 Cl
ATOM     10  C   UNL     1      25.413  26.383  27.746  0.00  0.00    +0.000 A 
ATOM     11  C   UNL     1      26.130  25.211  27.584  0.00  0.00    +0.000 A 
ATOM     12  C   UNL     1      26.252  24.361  28.658  0.00  0.00    +0.000 A 
ENDROOT
BRANCH   1  16
ATOM     13  C   UNL     1      27.903  23.688  23.801  0.00  0.00    +0.000 A 
ATOM     14  C   UNL     1      26.765  23.068  24.289  0.00  0.00    +0.000 A 
ATOM     15  C   UNL     1      26.712  22.687  25.612  0.00  0.00    +0.000 A 
ATOM     16  C   UNL     1      27.763  22.895  26.515  0.00  0.00    +0.000 A 
ATOM     17  C   UNL     1      28.872  23.515  25.989  0.00  0.00    +0.000 A 
ATOM     18  C   UNL     1      28.947  23.905  24.663  0.00  0.00    +0.000 A 
BRANCH  13  20
ATOM     19  C   UNL     1      29.195  24.543  21.810  0.00  0.00    +0.000 C 
ATOM     20  N   UNL     1      27.980  24.089  22.448  0.00  0.00    +0.000 N 
ATOM     21  C   UNL     1      26.782  24.061  21.625  0.00  0.00    +0.000 C 
ENDBRANCH  13  20
ENDBRANCH   1  16
TORSDOF 2
ENDMDL
MODEL 8
REMARK VINA RESULT:      -6.1     21.387     22.982
REMARK  Name = 
REMARK  2 active torsions:
REMARK  status: ('A' for Active; 'I' for Inactive)
REMARK    1  A    between atoms: N_2  and  C_4
REMARK    2  A    between atoms: C_7  and  C_8
REMARK                            x       y       z     vdW  Elec       q    Type
REMARK                         _______ _______ _______ _____ _____    ______ ____
ROOT
ATOM      1  C   UNL     1      17.127  11.558  37.085  0.00  0.00    +0.000 C 
ATOM      2  C   UNL     1      16.201  11.125  37.908  0.00  0.00    +0.000 C 
ATOM      3  C   UNL     1      14.757  11.487  37.808  0.00  0.00    +0.000 C 
ATOM      4  O   UNL     1      14.299  12.226  36.898  0.00  0.00    +0.000 OA
ATOM      5  N   UNL     1      14.126  10.846  38.888  0.00  0.00    +0.000 NA
ATOM      6  C   UNL     1      15.066  10.112  39.655  0.00  0.00    +0.000 A 
ATOM      7  C   UNL     1      14.918   9.331  40.809  0.00  0.00    +0.000 A 
ATOM      8  C   UNL     1      16.038   8.741  41.335  0.00  0.00    +0.000 A 
ATOM      9 CL   UNL     1      15.896   7.760  42.773  0.00  0.00    +0.000 Cl
ATOM     10  C   UNL     1      17.276   8.907  40.753  0.00  0.00    +0.000 A 
ATOM     11  C   UNL     1      17.431   9.676  39.613  0.00  0.00    +0.000 A 
ATOM     12  C   UNL     1      16.320  10.276  39.069  0.00  0.00    +0.000 A 
ENDROOT
BRANCH   1  16
ATOM     13  C   UNL     1      21.149  10.186  37.359  0.00  0.00    +0.000 A 
ATOM     14  C   UNL     1      20.212   9.565  36.549  0.00  0.00    +0.000 A 
ATOM     15  C   UNL     1      18.929  10.061  36.489  0.00  0.00    +0.000 A 
ATOM     16  C   UNL     1      18.503  11.183  37.215  0.00  0.00    +0.000 A 
ATOM     17  C   UNL     1      19.464  11.768  38.005  0.00  0.00    +0.000 A 
ATOM     18  C   UNL     1      20.760  11.285  38.080  0.00  0.00    +0.000 A 
BRANCH  13  20
ATOM     19  C   UNL     1      23.369   9.621  36.304  0.00  0.00    +0.000 C 
ATOM     20  N   UNL     1      22.471   9.696  37.435  0.00  0.00    +0.000 N 
ATOM     21  C   UNL     1      22.988   9.224  38.709  0.00  0.00    +0.000 C 
ENDBRANCH  13  20
ENDBRANCH   1  16
TORSDOF 2
ENDMDL
MODEL 9
REMARK VINA RESULT:      -6.1     33.040     34.581
REMARK  Name = 
REMARK  2 active torsions:
REMARK  status: ('A' for Active; 'I' for Inactive)
REMARK    1  A    between atoms: N_2  and  C_4
REMARK    2  A    between atoms: C_7  and  C_8
REMARK                            x       y       z     vdW  Elec       q    Type
REMARK                         _______ _______ _______ _____ _____    ______ ____
ROOT
ATOM      1  C   UNL     1      26.444  23.081  24.251  0.00  0.00    +0.000 C 
ATOM      2  C   UNL     1      26.900  24.040  23.479  0.00  0.00    +0.000 C 
ATOM      3  C   UNL     1      26.660  24.117  22.009  0.00  0.00    +0.000 C 
ATOM      4  O   UNL     1      25.968  23.270  21.384  0.00  0.00    +0.000 OA
ATOM      5  N   UNL     1      27.341  25.264  21.569  0.00  0.00    +0.000 NA
ATOM      6  C   UNL     1      27.989  25.910  22.652  0.00  0.00    +0.000 A 
ATOM      7  C   UNL     1      28.782  27.063  22.709  0.00  0.00    +0.000 A 
ATOM      8  C   UNL     1      29.287  27.439  23.927  0.00  0.00    +0.000 A 
ATOM      9 CL   UNL     1      30.280  28.871  24.039  0.00  0.00    +0.000 Cl
ATOM     10  C   UNL     1      29.026  26.711  25.066  0.00  0.00    +0.000 A 
ATOM     11  C   UNL     1      28.243  25.571  25.020  0.00  0.00    +0.000 A 
ATOM     12  C   UNL     1      27.727  25.175  23.808  0.00  0.00    +0.000 A 
ENDROOT
BRANCH   1  16
ATOM     13  C   UNL     1      27.017  23.207  28.468  0.00  0.00    +0.000 A 
ATOM     14  C   UNL     1      25.957  23.849  27.849  0.00  0.00    +0.000 A 
ATOM     15  C   UNL     1      25.814  23.762  26.482  0.00  0.00    +0.000 A 
ATOM     16  C   UNL     1      26.696  23.047  25.660  0.00  0.00    +0.000 A 
ATOM     17  C   UNL     1      27.732  22.425  26.315  0.00  0.00    +0.000 A 
ATOM     18  C   UNL     1      27.895  22.500  27.688  0.00  0.00    +0.000 A 
BRANCH  13  20
ATOM     19  C   UNL     1      26.353  24.084  30.738  0.00  0.00    +0.000 C 
ATOM     20  N   UNL     1      27.183  23.280  29.869  0.00  0.00    +0.000 N 
ATOM     21  C   UNL     1      28.247  22.521  30.504  0.00  0.00    +0.000 C 
ENDBRANCH  13  20
ENDBRANCH   1  16
TORSDOF 2
ENDMDL
MODEL 10
REMARK VINA RESULT:      -6.1     32.870     34.096
REMARK  Name = 
REMARK  2 active torsions:
REMARK  status: ('A' for Active; 'I' for Inactive)
REMARK    1  A    between atoms: N_2  and  C_4
REMARK    2  A    between atoms: C_7  and  C_8
REMARK                            x       y       z     vdW  Elec       q    Type
REMARK                         _______ _______ _______ _____ _____    ______ ____
ROOT
ATOM      1  C   UNL     1      26.588  23.447  27.911  0.00  0.00    +0.000 C 
ATOM      2  C   UNL     1      27.472  23.095  28.815  0.00  0.00    +0.000 C 
ATOM      3  C   UNL     1      27.139  22.789  30.237  0.00  0.00    +0.000 C 
ATOM      4  O   UNL     1      25.963  22.819  30.685  0.00  0.00    +0.000 OA
ATOM      5  N   UNL     1      28.362  22.492  30.862  0.00  0.00    +0.000 NA
ATOM      6  C   UNL     1      29.434  22.589  29.939  0.00  0.00    +0.000 A 
ATOM      7  C   UNL     1      30.814  22.396  30.091  0.00  0.00    +0.000 A 
ATOM      8  C   UNL     1      31.614  22.577  28.992  0.00  0.00    +0.000 A 
ATOM      9 CL   UNL     1      33.339  22.346  29.141  0.00  0.00    +0.000 Cl
ATOM     10  C   UNL     1      31.086  22.936  27.772  0.00  0.00    +0.000 A 
ATOM     11  C   UNL     1      29.725  23.128  27.612  0.00  0.00    +0.000 A 
ATOM     12  C   UNL     1      28.903  22.952  28.702  0.00  0.00    +0.000 A 
ENDROOT
BRANCH   1  16
ATOM     13  C   UNL     1      27.603  24.561  23.929  0.00  0.00    +0.000 A 
ATOM     14  C   UNL     1      27.499  25.491  24.950  0.00  0.00    +0.000 A 
ATOM     15  C   UNL     1      27.181  25.071  26.223  0.00  0.00    +0.000 A 
ATOM     16  C   UNL     1      26.951  23.729  26.555  0.00  0.00    +0.000 A 
ATOM     17  C   UNL     1      27.065  22.840  25.512  0.00  0.00    +0.000 A 
ATOM     18  C   UNL     1      27.383  23.241  24.225  0.00  0.00    +0.000 A 
BRANCH  13  20
ATOM     19  C   UNL     1      27.463  26.198  22.014  0.00  0.00    +0.000 C 
ATOM     20  N   UNL     1      27.929  24.969  22.616  0.00  0.00    +0.000 N 
ATOM     21  C   UNL     1      28.776  24.121  21.794  0.00  0.00    +0.000 C 
ENDBRANCH  13  20
ENDBRANCH   1  16
TORSDOF 2
ENDMDL
