REMARK  Name = 
REMARK  8 active torsions:
REMARK  status: ('A' for Active; 'I' for Inactive)
REMARK    1  A    between atoms: C_2  and  C_3
REMARK    2  A    between atoms: C_3  and  C_23
REMARK    3  A    between atoms: C_4  and  C_5
REMARK    4  A    between atoms: C_4  and  C_11
REMARK    5  A    between atoms: C_14  and  O_15
REMARK    6  A    between atoms: O_15  and  C_16
REMARK    7  A    between atoms: C_16  and  C_17
REMARK    8  A    between atoms: C_17  and  N_18
REMARK                            x       y       z     vdW  Elec       q    Type
REMARK                         _______ _______ _______ _____ _____    ______ ____
ROOT
ATOM      1  C   UNL     1      -1.628  -1.375   0.506  0.00  0.00    +0.000 C 
ATOM      2  C   UNL     1      -0.942  -0.317   0.178  0.00  0.00    +0.000 C 
ENDROOT
BRANCH   2   3
ATOM      3  C   UNL     1      -1.562   1.004   0.051  0.00  0.00    +0.000 A 
ATOM      4  C   UNL     1      -1.167   1.816  -1.017  0.00  0.00    +0.000 A 
ATOM      5  C   UNL     1      -1.675   3.077  -1.205  0.00  0.00    +0.000 A 
ATOM      6  C   UNL     1      -2.604   3.613  -0.347  0.00  0.00    +0.000 A 
ATOM      7  C   UNL     1      -2.998   2.798   0.721  0.00  0.00    +0.000 A 
ATOM      8  C   UNL     1      -2.476   1.529   0.896  0.00  0.00    +0.000 A 
ENDBRANCH   2   3
BRANCH   2   9
ATOM      9  C   UNL     1       0.485  -0.480  -0.085  0.00  0.00    +0.000 A 
ATOM     10  C   UNL     1       1.242  -1.421   0.550  0.00  0.00    +0.000 A 
ATOM     11  C   UNL     1       2.592  -1.582   0.315  0.00  0.00    +0.000 A 
ATOM     12  C   UNL     1       3.238  -0.784  -0.585  0.00  0.00    +0.000 A 
ATOM     13  C   UNL     1       2.489   0.192  -1.254  0.00  0.00    +0.000 A 
ATOM     14  C   UNL     1       1.121   0.330  -0.993  0.00  0.00    +0.000 A 
BRANCH  12  15
ATOM     15  O   UNL     1       4.607  -0.924  -0.846  0.00  0.00    +0.000 OA
BRANCH  15  16
ATOM     16  C   UNL     1       5.191  -0.053  -1.785  0.00  0.00    +0.000 C 
BRANCH  16  17
ATOM     17  C   UNL     1       5.000   1.371  -1.244  0.00  0.00    +0.000 C 
BRANCH  17  18
ATOM     18  N   UNL     1       5.693   1.396   0.057  0.00  0.00    +0.000 NA
ATOM     19  C   UNL     1       5.588   2.692   0.692  0.00  0.00    +0.000 C 
ATOM     20  C   UNL     1       7.099   1.055  -0.213  0.00  0.00    +0.000 C 
ENDBRANCH  17  18
ENDBRANCH  16  17
ENDBRANCH  15  16
ENDBRANCH  12  15
ENDBRANCH   2   9
BRANCH   1  21
ATOM     21  C   UNL     1      -3.062  -1.316   0.719  0.00  0.00    +0.000 A 
ATOM     22  C   UNL     1      -3.704  -1.936   1.784  0.00  0.00    +0.000 A 
ATOM     23  C   UNL     1      -5.050  -1.907   1.967  0.00  0.00    +0.000 A 
ATOM     24  C   UNL     1      -5.874  -1.232   1.068  0.00  0.00    +0.000 A 
ATOM     25  C   UNL     1      -5.258  -0.613   0.010  0.00  0.00    +0.000 A 
ATOM     26  C   UNL     1      -3.882  -0.649  -0.168  0.00  0.00    +0.000 A 
ENDBRANCH   1  21
BRANCH   1  28
ATOM     27  C   UNL     1      -1.569  -3.610  -0.393  0.00  0.00    +0.000 C 
ATOM     28  C   UNL     1      -0.895  -2.705   0.622  0.00  0.00    +0.000 C 
ENDBRANCH   1  28
TORSDOF 8
