REMARK  Name = 
REMARK  6 active torsions:
REMARK  status: ('A' for Active; 'I' for Inactive)
REMARK    1  A    between atoms: C_3  and  C_4
REMARK    2  A    between atoms: C_11  and  C_12
REMARK    3  A    between atoms: C_15  and  O_16
REMARK    4  A    between atoms: O_16  and  C_17
REMARK    5  A    between atoms: C_17  and  C_18
REMARK    6  A    between atoms: C_18  and  N_19
REMARK                            x       y       z     vdW  Elec       q    Type
REMARK                         _______ _______ _______ _____ _____    ______ ____
ROOT
ATOM      1  C   UNL     1      -3.659  -0.169  -1.809  0.00  0.00    +0.000 C 
ATOM      2  C   UNL     1      -3.236   0.385  -0.475  0.00  0.00    +0.000 C 
ATOM      3  C   UNL     1      -2.751  -0.339   0.390  0.00  0.00    +0.000 C 
ATOM      4  C   UNL     1      -2.253   0.063   1.846  0.00  0.00    +0.000 C 
ATOM      5  O   UNL     1      -2.485   1.558   1.922  0.00  0.00    +0.000 OA
ATOM      6  C   UNL     1      -3.002   2.318   0.998  0.00  0.00    +0.000 A 
ATOM      7  C   UNL     1      -3.165   3.671   1.226  0.00  0.00    +0.000 A 
ATOM      8  C   UNL     1      -3.700   4.501   0.288  0.00  0.00    +0.000 A 
ATOM      9  C   UNL     1      -4.096   3.997  -0.923  0.00  0.00    +0.000 A 
ATOM     10  O   UNL     1      -4.653   4.845  -1.902  0.00  0.00    +0.000 OA
ATOM     11  C   UNL     1      -3.938   2.651  -1.156  0.00  0.00    +0.000 A 
ATOM     12  C   UNL     1      -3.378   1.786  -0.175  0.00  0.00    +0.000 A 
ENDROOT
BRANCH   3  13
ATOM     13  C   UNL     1      -2.537  -1.788   0.214  0.00  0.00    +0.000 A 
ATOM     14  C   UNL     1      -2.758  -2.704   1.223  0.00  0.00    +0.000 A 
ATOM     15  C   UNL     1      -2.551  -4.051   1.070  0.00  0.00    +0.000 A 
ATOM     16  C   UNL     1      -2.102  -4.549  -0.134  0.00  0.00    +0.000 A 
ATOM     17  O   UNL     1      -1.906  -5.918  -0.249  0.00  0.00    +0.000 OA
ATOM     18  C   UNL     1      -1.876  -3.649  -1.153  0.00  0.00    +0.000 A 
ATOM     19  C   UNL     1      -2.085  -2.306  -0.992  0.00  0.00    +0.000 A 
ENDBRANCH   3  13
BRANCH   4  20
ATOM     20  C   UNL     1      -0.692   0.034   1.559  0.00  0.00    +0.000 A 
ATOM     21  C   UNL     1       0.134   0.889   2.225  0.00  0.00    +0.000 A 
ATOM     22  C   UNL     1       1.519   0.859   1.980  0.00  0.00    +0.000 A 
ATOM     23  C   UNL     1       2.069  -0.019   1.076  0.00  0.00    +0.000 A 
ATOM     24  C   UNL     1       1.218  -0.872   0.415  0.00  0.00    +0.000 A 
ATOM     25  C   UNL     1      -0.170  -0.838   0.665  0.00  0.00    +0.000 A 
BRANCH  23  26
ATOM     26  O   UNL     1       3.447  -0.033   0.845  0.00  0.00    +0.000 OA
BRANCH  26  27
ATOM     27  C   UNL     1       3.978  -0.936  -0.074  0.00  0.00    +0.000 C 
BRANCH  27  28
ATOM     28  C   UNL     1       5.490  -0.663  -0.075  0.00  0.00    +0.000 C 
BRANCH  28  29
ATOM     29  N   UNL     1       5.698   0.736  -0.490  0.00  0.00    +0.000 NA
ATOM     30  C   UNL     1       5.308   0.764  -1.894  0.00  0.00    +0.000 C 
ATOM     31  C   UNL     1       5.842  -0.490  -2.537  0.00  0.00    +0.000 C 
ATOM     32  C   UNL     1       7.363  -0.461  -2.459  0.00  0.00    +0.000 C 
ATOM     33  C   UNL     1       7.806  -0.252  -1.027  0.00  0.00    +0.000 C 
ATOM     34  C   UNL     1       7.123   0.977  -0.419  0.00  0.00    +0.000 C 
ENDBRANCH  28  29
ENDBRANCH  27  28
ENDBRANCH  26  27
ENDBRANCH  23  26
ENDBRANCH   4  20
TORSDOF 6
