REMARK  Name = 
REMARK  8 active torsions:
REMARK  status: ('A' for Active; 'I' for Inactive)
REMARK    1  A    between atoms: C_2  and  C_3
REMARK    2  A    between atoms: C_3  and  C_24
REMARK    3  A    between atoms: C_4  and  C_5
REMARK    4  A    between atoms: C_4  and  C_17
REMARK    5  A    between atoms: C_8  and  O_9
REMARK    6  A    between atoms: O_9  and  C_10
REMARK    7  A    between atoms: C_10  and  C_11
REMARK    8  A    between atoms: C_11  and  N_12
REMARK                            x       y       z     vdW  Elec       q    Type
REMARK                         _______ _______ _______ _____ _____    ______ ____
ROOT
ATOM      1  C   UNL     1      -2.437  -0.125  -0.166  0.00  0.00    +0.000 C 
ATOM      2  C   UNL     1      -1.276   0.452  -0.072  0.00  0.00    +0.000 C 
ENDROOT
BRANCH   2   3
ATOM      3  C   UNL     1      -1.148   1.932  -0.116  0.00  0.00    +0.000 A 
ATOM      4  C   UNL     1      -0.277   2.522   0.782  0.00  0.00    +0.000 A 
ATOM      5  C   UNL     1      -0.103   3.887   0.772  0.00  0.00    +0.000 A 
ATOM      6  C   UNL     1      -0.805   4.677  -0.144  0.00  0.00    +0.000 A 
ATOM      7  C   UNL     1      -1.656   4.045  -1.014  0.00  0.00    +0.000 A 
ATOM      8  O   UNL     1      -2.381   4.814  -1.954  0.00  0.00    +0.000 OA
ATOM      9  C   UNL     1      -1.839   2.669  -1.011  0.00  0.00    +0.000 A 
ENDBRANCH   2   3
BRANCH   2  10
ATOM     10  C   UNL     1      -0.047  -0.272   0.071  0.00  0.00    +0.000 A 
ATOM     11  C   UNL     1       0.995   0.122  -0.778  0.00  0.00    +0.000 A 
ATOM     12  C   UNL     1       2.209  -0.499  -0.697  0.00  0.00    +0.000 A 
ATOM     13  C   UNL     1       2.396  -1.521   0.234  0.00  0.00    +0.000 A 
ATOM     14  C   UNL     1       1.386  -1.926   1.081  0.00  0.00    +0.000 A 
ATOM     15  C   UNL     1       0.181  -1.257   0.947  0.00  0.00    +0.000 A 
BRANCH  13  16
ATOM     16  O   UNL     1       3.638  -2.135   0.295  0.00  0.00    +0.000 OA
BRANCH  16  17
ATOM     17  C   UNL     1       4.655  -1.689  -0.594  0.00  0.00    +0.000 C 
BRANCH  17  18
ATOM     18  C   UNL     1       4.937  -0.213  -0.371  0.00  0.00    +0.000 C 
BRANCH  18  19
ATOM     19  N   UNL     1       5.364  -0.030   0.986  0.00  0.00    +0.000 NA
ATOM     20  C   UNL     1       6.665  -0.620   1.225  0.00  0.00    +0.000 C 
ATOM     21  C   UNL     1       5.512   1.419   1.206  0.00  0.00    +0.000 C 
ENDBRANCH  18  19
ENDBRANCH  17  18
ENDBRANCH  16  17
ENDBRANCH  13  16
ENDBRANCH   2  10
BRANCH   1  22
ATOM     22  C   UNL     1      -2.667  -1.536  -0.121  0.00  0.00    +0.000 A 
ATOM     23  C   UNL     1      -3.439  -2.161  -1.116  0.00  0.00    +0.000 A 
ATOM     24  C   UNL     1      -3.721  -3.507  -1.097  0.00  0.00    +0.000 A 
ATOM     25  C   UNL     1      -3.248  -4.335  -0.074  0.00  0.00    +0.000 A 
ATOM     26  C   UNL     1      -2.499  -3.744   0.896  0.00  0.00    +0.000 A 
ATOM     27  C   UNL     1      -2.228  -2.415   0.864  0.00  0.00    +0.000 A 
ENDBRANCH   1  22
BRANCH   1  29
ATOM     28  C   UNL     1      -4.558   0.617   0.866  0.00  0.00    +0.000 C 
ATOM     29  C   UNL     1      -3.611   0.830  -0.314  0.00  0.00    +0.000 C 
ENDBRANCH   1  29
TORSDOF 8
