REMARK  Name = 
REMARK  6 active torsions:
REMARK  status: ('A' for Active; 'I' for Inactive)
REMARK    1  A    between atoms: C_7  and  C_8
REMARK    2  A    between atoms: C_10  and  C_11
REMARK    3  A    between atoms: C_19  and  N_20
REMARK    4  A    between atoms: N_20  and  C_22
REMARK    5  A    between atoms: C_22  and  C_23
REMARK    6  A    between atoms: C_23  and  C_24
REMARK                            x       y       z     vdW  Elec       q    Type
REMARK                         _______ _______ _______ _____ _____    ______ ____
ROOT
ATOM      1  C   UNL     1      -1.349   1.535  -0.176  0.00  0.00    +0.000 A 
ATOM      2  C   UNL     1      -2.180   0.423  -0.159  0.00  0.00    +0.000 A 
ATOM      3  C   UNL     1      -1.676  -0.833  -0.382  0.00  0.00    +0.000 A 
ATOM      4  N   UNL     1      -0.360  -0.947  -0.616  0.00  0.00    +0.000 NA
ATOM      5  C   UNL     1       0.504   0.080  -0.648  0.00  0.00    +0.000 A 
ATOM      6  C   UNL     1       0.001   1.357  -0.423  0.00  0.00    +0.000 A 
ENDROOT
BRANCH   1  13
ATOM      7  C   UNL     1       0.028   3.316   1.630  0.00  0.00    +0.000 C 
ATOM      8  C   UNL     1      -1.210   3.756   0.917  0.00  0.00    +0.000 A 
ATOM      9  C   UNL     1      -1.724   5.026   1.105  0.00  0.00    +0.000 A 
ATOM     10  C   UNL     1      -2.877   5.447   0.450  0.00  0.00    +0.000 A 
ATOM     11  C   UNL     1      -3.490   4.570  -0.388  0.00  0.00    +0.000 A 
ATOM     12  C   UNL     1      -2.999   3.318  -0.585  0.00  0.00    +0.000 A 
ATOM     13  C   UNL     1      -1.857   2.880   0.055  0.00  0.00    +0.000 A 
ENDBRANCH   1  13
BRANCH   3  14
ATOM     14  C   UNL     1      -2.514  -2.031  -0.370  0.00  0.00    +0.000 A 
ATOM     15  C   UNL     1      -3.867  -1.983  -0.143  0.00  0.00    +0.000 A 
ATOM     16  C   UNL     1      -4.617  -3.139  -0.136  0.00  0.00    +0.000 A 
ATOM     17  C   UNL     1      -4.052  -4.391  -0.354  0.00  0.00    +0.000 A 
ATOM     18  O   UNL     1      -4.840  -5.549  -0.341  0.00  0.00    +0.000 OA
ATOM     19  C   UNL     1      -2.689  -4.434  -0.582  0.00  0.00    +0.000 A 
ATOM     20  C   UNL     1      -1.952  -3.272  -0.586  0.00  0.00    +0.000 A 
ENDBRANCH   3  14
BRANCH   5  21
ATOM     21  N   UNL     1       1.914  -0.103  -0.905  0.00  0.00    +0.000 N 
ATOM     22  C   UNL     1       2.777   1.064  -0.925  0.00  0.00    +0.000 C 
BRANCH  21  23
ATOM     23  C   UNL     1       2.362  -1.454  -1.121  0.00  0.00    +0.000 C 
BRANCH  23  24
ATOM     24  C   UNL     1       3.219  -2.025  -0.047  0.00  0.00    +0.000 C 
BRANCH  24  25
ATOM     25  C   UNL     1       4.446  -1.218   0.129  0.00  0.00    +0.000 A 
ATOM     26  C   UNL     1       4.416  -0.189   1.047  0.00  0.00    +0.000 A 
ATOM     27  C   UNL     1       5.534   0.579   1.239  0.00  0.00    +0.000 A 
ATOM     28  C   UNL     1       6.693   0.332   0.521  0.00  0.00    +0.000 A 
ATOM     29  C   UNL     1       6.752  -0.674  -0.390  0.00  0.00    +0.000 A 
ATOM     30  C   UNL     1       5.606  -1.441  -0.568  0.00  0.00    +0.000 A 
ENDBRANCH  24  25
ENDBRANCH  23  24
ENDBRANCH  21  23
ENDBRANCH   5  21
TORSDOF 6
