REMARK  Name = 
REMARK  7 active torsions:
REMARK  status: ('A' for Active; 'I' for Inactive)
REMARK    1  A    between atoms: C_5  and  C_6
REMARK    2  A    between atoms: C_16  and  C_17
REMARK    3  A    between atoms: C_17  and  C_18
REMARK    4  A    between atoms: C_21  and  O_22
REMARK    5  A    between atoms: O_22  and  C_23
REMARK    6  A    between atoms: C_23  and  C_24
REMARK    7  A    between atoms: C_24  and  N_25
REMARK                            x       y       z     vdW  Elec       q    Type
REMARK                         _______ _______ _______ _____ _____    ______ ____
ROOT
ATOM      1  C   UNL     1      -3.021   0.977   0.379  0.00  0.00    +0.000 A 
ATOM      2  C   UNL     1      -3.995   0.554   1.317  0.00  0.00    +0.000 A 
ATOM      3  C   UNL     1      -4.353  -0.770   1.412  0.00  0.00    +0.000 A 
ATOM      4  C   UNL     1      -3.795  -1.740   0.613  0.00  0.00    +0.000 A 
ATOM      5  C   UNL     1      -4.156  -3.071   0.705  0.00  0.00    +0.000 A 
ATOM      6  C   UNL     1      -3.602  -4.048  -0.095  0.00  0.00    +0.000 A 
ATOM      7  O   UNL     1      -3.972  -5.382   0.004  0.00  0.00    +0.000 OA
ATOM      8  C   UNL     1      -2.648  -3.625  -1.011  0.00  0.00    +0.000 A 
ATOM      9  C   UNL     1      -2.275  -2.292  -1.113  0.00  0.00    +0.000 A 
ATOM     10  C   UNL     1      -2.850  -1.339  -0.296  0.00  0.00    +0.000 A 
ATOM     11  C   UNL     1      -2.479   0.009  -0.395  0.00  0.00    +0.000 A 
ENDROOT
BRANCH   1  16
ATOM     12  O   UNL     1      -2.584   6.610  -0.018  0.00  0.00    +0.000 OA
ATOM     13  C   UNL     1      -2.644   5.236   0.072  0.00  0.00    +0.000 A 
ATOM     14  C   UNL     1      -3.837   4.599   0.307  0.00  0.00    +0.000 A 
ATOM     15  C   UNL     1      -3.921   3.260   0.399  0.00  0.00    +0.000 A 
ATOM     16  C   UNL     1      -2.783   2.412   0.262  0.00  0.00    +0.000 A 
ATOM     17  C   UNL     1      -1.635   3.066   0.034  0.00  0.00    +0.000 A 
ATOM     18  C   UNL     1      -1.522   4.426  -0.066  0.00  0.00    +0.000 A 
ENDBRANCH   1  16
BRANCH  11  19
ATOM     19  C   UNL     1      -1.361   0.282  -1.323  0.00  0.00    +0.000 C 
BRANCH  19  20
ATOM     20  C   UNL     1      -0.074   0.013  -0.637  0.00  0.00    +0.000 A 
ATOM     21  C   UNL     1       0.479  -1.284  -0.687  0.00  0.00    +0.000 A 
ATOM     22  C   UNL     1       1.671  -1.508  -0.043  0.00  0.00    +0.000 A 
ATOM     23  C   UNL     1       2.372  -0.557   0.652  0.00  0.00    +0.000 A 
ATOM     24  C   UNL     1       1.831   0.728   0.707  0.00  0.00    +0.000 A 
ATOM     25  C   UNL     1       0.642   0.926   0.058  0.00  0.00    +0.000 A 
BRANCH  23  26
ATOM     26  O   UNL     1       3.575  -0.766   1.307  0.00  0.00    +0.000 OA
BRANCH  26  27
ATOM     27  C   UNL     1       4.264  -1.985   1.352  0.00  0.00    +0.000 C 
BRANCH  27  28
ATOM     28  C   UNL     1       4.664  -2.474  -0.026  0.00  0.00    +0.000 C 
BRANCH  28  29
ATOM     29  N   UNL     1       5.498  -1.524  -0.646  0.00  0.00    +0.000 NA
ATOM     30  C   UNL     1       4.963  -0.286  -1.023  0.00  0.00    +0.000 C 
ATOM     31  C   UNL     1       5.959   0.817  -1.224  0.00  0.00    +0.000 C 
ATOM     32  C   UNL     1       7.040   0.860  -0.211  0.00  0.00    +0.000 C 
ATOM     33  C   UNL     1       7.661  -0.477  -0.036  0.00  0.00    +0.000 C 
ATOM     34  C   UNL     1       6.887  -1.645  -0.507  0.00  0.00    +0.000 C 
ENDBRANCH  28  29
ENDBRANCH  27  28
ENDBRANCH  26  27
ENDBRANCH  23  26
ENDBRANCH  19  20
ENDBRANCH  11  19
TORSDOF 7
