REMARK  Name = 
REMARK  5 active torsions:
REMARK  status: ('A' for Active; 'I' for Inactive)
REMARK    1  A    between atoms: C_8  and  C_9
REMARK    2  A    between atoms: C_11  and  C_12
REMARK    3  A    between atoms: N_20  and  C_22
REMARK    4  A    between atoms: C_22  and  C_23
REMARK    5  A    between atoms: C_23  and  C_24
REMARK                            x       y       z     vdW  Elec       q    Type
REMARK                         _______ _______ _______ _____ _____    ______ ____
ROOT
ATOM      1  C   UNL     1      -0.803  -0.904  -0.095  0.00  0.00    +0.000 A 
ATOM      2  C   UNL     1      -1.312   0.372  -0.174  0.00  0.00    +0.000 A 
ATOM      3  C   UNL     1      -0.500   1.480  -0.323  0.00  0.00    +0.000 A 
ATOM      4  C   UNL     1       0.855   1.241  -0.388  0.00  0.00    +0.000 A 
ATOM      5  C   UNL     1       1.386  -0.031  -0.310  0.00  0.00    +0.000 A 
ATOM      6  N   UNL     1       2.797  -0.201  -0.378  0.00  0.00    +0.000 N 
ATOM      7  C   UNL     1       3.338  -1.541  -0.299  0.00  0.00    +0.000 C 
ATOM      8  N   UNL     1       0.531  -1.033  -0.168  0.00  0.00    +0.000 NA
ENDROOT
BRANCH   1  16
ATOM      9  C   UNL     1      -3.603  -0.593   0.112  0.00  0.00    +0.000 C 
ATOM     10  C   UNL     1      -3.028  -1.963   0.161  0.00  0.00    +0.000 A 
ATOM     11  C   UNL     1      -3.837  -3.075   0.308  0.00  0.00    +0.000 A 
ATOM     12  C   UNL     1      -3.317  -4.353   0.357  0.00  0.00    +0.000 A 
ATOM     13  O   UNL     1      -4.136  -5.476   0.504  0.00  0.00    +0.000 OA
ATOM     14  C   UNL     1      -1.948  -4.471   0.253  0.00  0.00    +0.000 A 
ATOM     15  C   UNL     1      -1.146  -3.357   0.106  0.00  0.00    +0.000 A 
ATOM     16  C   UNL     1      -1.658  -2.079   0.057  0.00  0.00    +0.000 A 
ENDBRANCH   1  16
BRANCH   3  17
ATOM     17  C   UNL     1      -0.993   2.832  -0.411  0.00  0.00    +0.000 A 
ATOM     18  C   UNL     1      -2.210   3.134  -0.975  0.00  0.00    +0.000 A 
ATOM     19  C   UNL     1      -2.631   4.446  -1.037  0.00  0.00    +0.000 A 
ATOM     20  C   UNL     1      -1.885   5.501  -0.553  0.00  0.00    +0.000 A 
ATOM     21  C   UNL     1      -0.662   5.166   0.011  0.00  0.00    +0.000 A 
ATOM     22  C   UNL     1      -0.238   3.863   0.075  0.00  0.00    +0.000 A 
ENDBRANCH   3  17
BRANCH   6  23
ATOM     23  C   UNL     1       3.708   0.898  -0.519  0.00  0.00    +0.000 C 
BRANCH  23  24
ATOM     24  C   UNL     1       4.563   1.224   0.636  0.00  0.00    +0.000 C 
BRANCH  24  25
ATOM     25  C   UNL     1       5.442   0.137   1.061  0.00  0.00    +0.000 C 
ATOM     26  C   UNL     1       6.375  -0.328   0.031  0.00  0.00    +0.000 C 
ATOM     27  C   UNL     1       4.912  -0.890   1.956  0.00  0.00    +0.000 C 
ENDBRANCH  24  25
ENDBRANCH  23  24
ENDBRANCH   6  23
TORSDOF 5
