REMARK  Name = 
REMARK  7 active torsions:
REMARK  status: ('A' for Active; 'I' for Inactive)
REMARK    1  A    between atoms: C_4  and  C_5
REMARK    2  A    between atoms: C_14  and  C_15
REMARK    3  A    between atoms: C_15  and  C_17
REMARK    4  A    between atoms: C_20  and  O_21
REMARK    5  A    between atoms: O_21  and  C_22
REMARK    6  A    between atoms: C_22  and  C_23
REMARK    7  A    between atoms: C_23  and  N_24
REMARK                            x       y       z     vdW  Elec       q    Type
REMARK                         _______ _______ _______ _____ _____    ______ ____
ROOT
ATOM      1  C   UNL     1      -3.123  -0.561  -0.202  0.00  0.00    +0.000 A 
ATOM      2  S   UNL     1      -3.990  -1.804  -0.946  0.00  0.00    +0.000 S 
ATOM      3  C   UNL     1      -2.771  -3.025  -0.981  0.00  0.00    +0.000 A 
ATOM      4  C   UNL     1      -2.716  -4.347  -1.431  0.00  0.00    +0.000 A 
ATOM      5  C   UNL     1      -1.550  -5.084  -1.295  0.00  0.00    +0.000 A 
ATOM      6  O   UNL     1      -1.503  -6.394  -1.742  0.00  0.00    +0.000 OA
ATOM      7  C   UNL     1      -0.508  -4.441  -0.713  0.00  0.00    +0.000 A 
ATOM      8  C   UNL     1      -0.542  -3.165  -0.271  0.00  0.00    +0.000 A 
ATOM      9  C   UNL     1      -1.711  -2.385  -0.391  0.00  0.00    +0.000 A 
ATOM     10  C   UNL     1      -1.880  -1.117   0.016  0.00  0.00    +0.000 A 
ENDROOT
BRANCH   1  14
ATOM     11  C   UNL     1      -2.172   4.115   1.266  0.00  0.00    +0.000 C 
ATOM     12  C   UNL     1      -3.130   3.010   0.943  0.00  0.00    +0.000 A 
ATOM     13  C   UNL     1      -2.704   1.785   0.523  0.00  0.00    +0.000 A 
ATOM     14  C   UNL     1      -3.600   0.765   0.183  0.00  0.00    +0.000 A 
ATOM     15  C   UNL     1      -4.955   1.050   0.291  0.00  0.00    +0.000 A 
ATOM     16  C   UNL     1      -5.406   2.297   0.723  0.00  0.00    +0.000 A 
ATOM     17  C   UNL     1      -6.884   2.580   0.844  0.00  0.00    +0.000 C 
ATOM     18  C   UNL     1      -4.479   3.256   1.039  0.00  0.00    +0.000 A 
ATOM     19  O   UNL     1      -4.925   4.522   1.470  0.00  0.00    +0.000 OA
ENDBRANCH   1  14
BRANCH  10  20
ATOM     20  C   UNL     1      -0.893  -0.302   0.766  0.00  0.00    +0.000 C 
ATOM     21  O   UNL     1      -1.050  -0.206   2.041  0.00  0.00    +0.000 OA
BRANCH  20  22
ATOM     22  C   UNL     1       0.206   0.365   0.128  0.00  0.00    +0.000 A 
ATOM     23  C   UNL     1       0.281   0.665  -1.218  0.00  0.00    +0.000 A 
ATOM     24  C   UNL     1       1.416   1.319  -1.685  0.00  0.00    +0.000 A 
ATOM     25  C   UNL     1       2.452   1.668  -0.852  0.00  0.00    +0.000 A 
ATOM     26  C   UNL     1       2.348   1.352   0.481  0.00  0.00    +0.000 A 
ATOM     27  C   UNL     1       1.272   0.722   0.983  0.00  0.00    +0.000 A 
BRANCH  25  28
ATOM     28  O   UNL     1       3.598   2.331  -1.317  0.00  0.00    +0.000 OA
BRANCH  28  29
ATOM     29  C   UNL     1       4.586   2.638  -0.321  0.00  0.00    +0.000 C 
BRANCH  29  30
ATOM     30  C   UNL     1       4.961   1.298   0.317  0.00  0.00    +0.000 C 
BRANCH  30  31
ATOM     31  N   UNL     1       5.493   0.447  -0.694  0.00  0.00    +0.000 NA
ATOM     32  C   UNL     1       6.780   0.846  -1.207  0.00  0.00    +0.000 C 
ATOM     33  C   UNL     1       7.578  -0.400  -1.578  0.00  0.00    +0.000 C 
ATOM     34  C   UNL     1       7.794  -1.217  -0.321  0.00  0.00    +0.000 C 
ATOM     35  C   UNL     1       6.428  -1.634   0.194  0.00  0.00    +0.000 C 
ATOM     36  C   UNL     1       5.300  -0.951  -0.531  0.00  0.00    +0.000 C 
ENDBRANCH  30  31
ENDBRANCH  29  30
ENDBRANCH  28  29
ENDBRANCH  25  28
ENDBRANCH  20  22
ENDBRANCH  10  20
TORSDOF 7
