REMARK  Name = 
REMARK  6 active torsions:
REMARK  status: ('A' for Active; 'I' for Inactive)
REMARK    1  A    between atoms: C_2  and  N_3
REMARK    2  A    between atoms: N_3  and  C_4
REMARK    3  A    between atoms: N_3  and  C_11
REMARK    4  A    between atoms: C_4  and  C_5
REMARK    5  A    between atoms: C_13  and  C_14
REMARK    6  A    between atoms: C_21  and  C_22
REMARK                            x       y       z     vdW  Elec       q    Type
REMARK                         _______ _______ _______ _____ _____    ______ ____
ROOT
ATOM      1  C   UNL     1       0.725  -0.229   0.435  0.00  0.00    +0.000 A 
ATOM      2  C   UNL     1       0.612   1.156   0.372  0.00  0.00    +0.000 A 
ATOM      3  C   UNL     1      -0.655   1.729   0.344  0.00  0.00    +0.000 A 
ATOM      4  C   UNL     1      -1.716   0.847   0.384  0.00  0.00    +0.000 A 
ATOM      5  C   UNL     1      -1.576  -0.505   0.446  0.00  0.00    +0.000 A 
ATOM      6  N   UNL     1      -0.349  -1.036   0.472  0.00  0.00    +0.000 NA
ENDROOT
BRANCH   5   7
ATOM      7  C   UNL     1      -2.697  -1.435   0.487  0.00  0.00    +0.000 A 
ATOM      8  C   UNL     1      -3.977  -0.904   0.464  0.00  0.00    +0.000 A 
ATOM      9  C   UNL     1      -5.096  -1.701   0.499  0.00  0.00    +0.000 A 
ATOM     10  C   UNL     1      -4.950  -3.059   0.559  0.00  0.00    +0.000 A 
ATOM     11  O   UNL     1      -6.045  -3.931   0.599  0.00  0.00    +0.000 OA
ATOM     12  C   UNL     1      -3.673  -3.583   0.582  0.00  0.00    +0.000 A 
ATOM     13  C   UNL     1      -2.550  -2.788   0.547  0.00  0.00    +0.000 A 
ATOM     14  C   UNL     1      -1.162  -3.331   0.570  0.00  0.00    +0.000 C 
ENDBRANCH   5   7
BRANCH   3  15
ATOM     15  C   UNL     1      -0.834   3.176   0.276  0.00  0.00    +0.000 A 
ATOM     16  C   UNL     1       0.063   4.051   0.853  0.00  0.00    +0.000 A 
ATOM     17  C   UNL     1      -0.152   5.427   0.759  0.00  0.00    +0.000 A 
ATOM     18  C   UNL     1      -1.248   5.952   0.098  0.00  0.00    +0.000 A 
ATOM     19  C   UNL     1      -2.146   5.066  -0.480  0.00  0.00    +0.000 A 
ATOM     20  C   UNL     1      -1.912   3.702  -0.374  0.00  0.00    +0.000 A 
ENDBRANCH   3  15
BRANCH   1  21
ATOM     21  N   UNL     1       2.021  -0.802   0.462  0.00  0.00    +0.000 N 
BRANCH  21  23
ATOM     22  C   UNL     1       2.795  -2.545   1.899  0.00  0.00    +0.000 C 
ATOM     23  C   UNL     1       2.201  -2.240   0.520  0.00  0.00    +0.000 C 
ENDBRANCH  21  23
BRANCH  21  24
ATOM     24  C   UNL     1       3.208   0.027   0.432  0.00  0.00    +0.000 C 
BRANCH  24  25
ATOM     25  C   UNL     1       4.052  -0.248  -0.749  0.00  0.00    +0.000 A 
ATOM     26  C   UNL     1       5.030  -1.216  -0.743  0.00  0.00    +0.000 A 
ATOM     27  C   UNL     1       5.827  -1.487  -1.832  0.00  0.00    +0.000 A 
ATOM     28  C   UNL     1       5.633  -0.753  -2.975  0.00  0.00    +0.000 A 
ATOM     29  C   UNL     1       4.660   0.218  -2.998  0.00  0.00    +0.000 A 
ATOM     30  N   UNL     1       3.909   0.442  -1.907  0.00  0.00    +0.000 NA
ENDBRANCH  24  25
ENDBRANCH  21  24
ENDBRANCH   1  21
TORSDOF 6
