REMARK  Name = 
REMARK  4 active torsions:
REMARK  status: ('A' for Active; 'I' for Inactive)
REMARK    1  A    between atoms: C_8  and  C_9
REMARK    2  A    between atoms: C_11  and  C_12
REMARK    3  A    between atoms: C_23  and  C_24
REMARK    4  A    between atoms: C_24  and  C_25
REMARK                            x       y       z     vdW  Elec       q    Type
REMARK                         _______ _______ _______ _____ _____    ______ ____
ROOT
ATOM      1  C   UNL     1      -2.534  -0.287   0.342  0.00  0.00    +0.000 A 
ATOM      2  C   UNL     1      -2.747   0.935  -0.254  0.00  0.00    +0.000 A 
ATOM      3  C   UNL     1      -1.792   1.546  -1.072  0.00  0.00    +0.000 A 
ATOM      4  C   UNL     1      -0.615   0.839  -1.242  0.00  0.00    +0.000 A 
ATOM      5  C   UNL     1      -0.391  -0.396  -0.645  0.00  0.00    +0.000 A 
ATOM      6  N   UNL     1       0.827  -1.083  -0.846  0.00  0.00    +0.000 N 
ATOM      7  C   UNL     1       1.897  -0.560  -1.657  0.00  0.00    +0.000 C 
ATOM      8  C   UNL     1       3.238  -1.116  -1.276  0.00  0.00    +0.000 C 
ATOM      9  C   UNL     1       3.333  -1.462   0.186  0.00  0.00    +0.000 C 
ATOM     10  C   UNL     1       2.186  -2.233   0.733  0.00  0.00    +0.000 C 
ATOM     11  C   UNL     1       1.013  -2.365  -0.215  0.00  0.00    +0.000 C 
ATOM     12  N   UNL     1      -1.365  -0.892   0.116  0.00  0.00    +0.000 NA
ENDROOT
BRANCH   1  20
ATOM     13  C   UNL     1      -1.939  -2.768   1.468  0.00  0.00    +0.000 C 
ATOM     14  C   UNL     1      -3.257  -2.147   1.759  0.00  0.00    +0.000 A 
ATOM     15  C   UNL     1      -4.192  -2.785   2.581  0.00  0.00    +0.000 A 
ATOM     16  C   UNL     1      -5.398  -2.190   2.833  0.00  0.00    +0.000 A 
ATOM     17  O   UNL     1      -6.308  -2.864   3.663  0.00  0.00    +0.000 OA
ATOM     18  C   UNL     1      -5.665  -0.972   2.268  0.00  0.00    +0.000 A 
ATOM     19  C   UNL     1      -4.742  -0.323   1.445  0.00  0.00    +0.000 A 
ATOM     20  C   UNL     1      -3.526  -0.922   1.192  0.00  0.00    +0.000 A 
ENDBRANCH   1  20
BRANCH   3  21
ATOM     21  C   UNL     1      -2.022   2.829  -1.693  0.00  0.00    +0.000 A 
ATOM     22  C   UNL     1      -1.450   3.113  -2.906  0.00  0.00    +0.000 A 
ATOM     23  C   UNL     1      -1.636   4.316  -3.540  0.00  0.00    +0.000 A 
ATOM     24  C   UNL     1      -2.417   5.276  -2.954  0.00  0.00    +0.000 A 
ATOM     25  C   UNL     1      -3.003   5.023  -1.742  0.00  0.00    +0.000 A 
ATOM     26  C   UNL     1      -2.805   3.792  -1.107  0.00  0.00    +0.000 A 
ENDBRANCH   3  21
BRANCH   9  27
ATOM     27  C   UNL     1       4.674  -1.964   0.592  0.00  0.00    +0.000 C 
BRANCH  27  28
ATOM     28  C   UNL     1       5.745  -0.979   0.344  0.00  0.00    +0.000 A 
ATOM     29  C   UNL     1       6.125  -0.046   1.286  0.00  0.00    +0.000 A 
ATOM     30  C   UNL     1       7.141   0.861   1.005  0.00  0.00    +0.000 A 
ATOM     31  C   UNL     1       7.794   0.861  -0.200  0.00  0.00    +0.000 A 
ATOM     32  C   UNL     1       7.418  -0.072  -1.146  0.00  0.00    +0.000 A 
ATOM     33  C   UNL     1       6.412  -0.966  -0.863  0.00  0.00    +0.000 A 
ENDBRANCH  27  28
ENDBRANCH   9  27
TORSDOF 4
