REMARK  Name = 
REMARK  6 active torsions:
REMARK  status: ('A' for Active; 'I' for Inactive)
REMARK    1  A    between atoms: N_2  and  C_3
REMARK    2  A    between atoms: N_2  and  C_11
REMARK    3  A    between atoms: C_3  and  C_4
REMARK    4  A    between atoms: C_4  and  C_5
REMARK    5  A    between atoms: C_13  and  C_14
REMARK    6  A    between atoms: C_21  and  C_22
REMARK                            x       y       z     vdW  Elec       q    Type
REMARK                         _______ _______ _______ _____ _____    ______ ____
ROOT
ATOM      1  C   UNL     1       0.580   0.136  -0.545  0.00  0.00    +0.000 A 
ATOM      2  C   UNL     1       0.216   1.423  -0.229  0.00  0.00    +0.000 A 
ATOM      3  C   UNL     1      -1.088   1.706   0.068  0.00  0.00    +0.000 A 
ATOM      4  C   UNL     1      -2.005   0.681   0.039  0.00  0.00    +0.000 A 
ATOM      5  C   UNL     1      -1.645  -0.612  -0.277  0.00  0.00    +0.000 A 
ATOM      6  N   UNL     1      -0.355  -0.847  -0.562  0.00  0.00    +0.000 NA
ENDROOT
BRANCH   5   7
ATOM      7  C   UNL     1      -2.665  -1.653  -0.284  0.00  0.00    +0.000 A 
ATOM      8  C   UNL     1      -2.321  -2.951  -0.598  0.00  0.00    +0.000 A 
ATOM      9  C   UNL     1      -3.277  -3.959  -0.603  0.00  0.00    +0.000 A 
ATOM     10  C   UNL     1      -4.606  -3.714  -0.295  0.00  0.00    +0.000 A 
ATOM     11  O   UNL     1      -5.554  -4.738  -0.303  0.00  0.00    +0.000 OA
ATOM     12  C   UNL     1      -4.944  -2.416   0.018  0.00  0.00    +0.000 A 
ATOM     13  C   UNL     1      -3.981  -1.404   0.022  0.00  0.00    +0.000 A 
ENDBRANCH   5   7
BRANCH   3  14
ATOM     14  C   UNL     1      -1.559   3.035   0.407  0.00  0.00    +0.000 A 
ATOM     15  C   UNL     1      -1.017   4.186  -0.101  0.00  0.00    +0.000 A 
ATOM     16  C   UNL     1      -1.530   5.423   0.277  0.00  0.00    +0.000 A 
ATOM     17  C   UNL     1      -2.587   5.546   1.160  0.00  0.00    +0.000 A 
ATOM     18  C   UNL     1      -3.123   4.384   1.663  0.00  0.00    +0.000 A 
ATOM     19  C   UNL     1      -2.614   3.163   1.290  0.00  0.00    +0.000 A 
ENDBRANCH   3  14
BRANCH   1  21
ATOM     20  C   UNL     1       2.902   0.978  -0.737  0.00  0.00    +0.000 C 
ATOM     21  N   UNL     1       1.947  -0.119  -0.835  0.00  0.00    +0.000 N 
BRANCH  21  22
ATOM     22  C   UNL     1       2.314  -1.443  -1.220  0.00  0.00    +0.000 C 
BRANCH  22  23
ATOM     23  C   UNL     1       3.149  -2.123  -0.177  0.00  0.00    +0.000 C 
BRANCH  23  24
ATOM     24  C   UNL     1       4.397  -1.405   0.101  0.00  0.00    +0.000 A 
ATOM     25  C   UNL     1       5.497  -1.704  -0.696  0.00  0.00    +0.000 A 
ATOM     26  C   UNL     1       6.694  -1.081  -0.481  0.00  0.00    +0.000 A 
ATOM     27  C   UNL     1       6.869  -0.144   0.514  0.00  0.00    +0.000 A 
ATOM     28  C   UNL     1       5.753   0.131   1.290  0.00  0.00    +0.000 A 
ATOM     29  C   UNL     1       4.551  -0.480   1.091  0.00  0.00    +0.000 A 
ENDBRANCH  23  24
ENDBRANCH  22  23
ENDBRANCH  21  22
ENDBRANCH   1  21
TORSDOF 6
