REMARK  Name = 
REMARK  6 active torsions:
REMARK  status: ('A' for Active; 'I' for Inactive)
REMARK    1  A    between atoms: C_2  and  C_4
REMARK    2  A    between atoms: C_4  and  C_5
REMARK    3  A    between atoms: C_5  and  N_6
REMARK    4  A    between atoms: N_6  and  C_8
REMARK    5  A    between atoms: C_10  and  C_11
REMARK    6  A    between atoms: C_18  and  C_19
REMARK                            x       y       z     vdW  Elec       q    Type
REMARK                         _______ _______ _______ _____ _____    ______ ____
ROOT
ATOM      1  C   UNL     1       1.207   0.240   0.753  0.00  0.00    +0.000 A 
ATOM      2  C   UNL     1       0.674   1.517   0.584  0.00  0.00    +0.000 A 
ATOM      3  C   UNL     1      -0.635   1.731   0.200  0.00  0.00    +0.000 A 
ATOM      4  C   UNL     1      -1.397   0.600  -0.012  0.00  0.00    +0.000 A 
ATOM      5  C   UNL     1      -0.836  -0.656   0.165  0.00  0.00    +0.000 A 
ATOM      6  N   UNL     1       0.441  -0.834   0.540  0.00  0.00    +0.000 NA
ENDROOT
BRANCH   5   7
ATOM      7  C   UNL     1      -1.649  -1.849  -0.071  0.00  0.00    +0.000 A 
ATOM      8  C   UNL     1      -2.971  -1.780  -0.486  0.00  0.00    +0.000 A 
ATOM      9  C   UNL     1      -3.742  -2.905  -0.705  0.00  0.00    +0.000 A 
ATOM     10  C   UNL     1      -3.216  -4.154  -0.514  0.00  0.00    +0.000 A 
ATOM     11  O   UNL     1      -3.988  -5.313  -0.730  0.00  0.00    +0.000 OA
ATOM     12  C   UNL     1      -1.905  -4.252  -0.102  0.00  0.00    +0.000 A 
ATOM     13  C   UNL     1      -1.155  -3.123   0.110  0.00  0.00    +0.000 A 
ENDBRANCH   5   7
BRANCH   3  14
ATOM     14  C   UNL     1      -1.133   3.084   0.046  0.00  0.00    +0.000 A 
ATOM     15  C   UNL     1      -0.674   4.137   0.815  0.00  0.00    +0.000 A 
ATOM     16  C   UNL     1      -1.139   5.429   0.679  0.00  0.00    +0.000 A 
ATOM     17  C   UNL     1      -2.122   5.712  -0.274  0.00  0.00    +0.000 A 
ATOM     18  C   UNL     1      -2.576   4.659  -1.036  0.00  0.00    +0.000 A 
ATOM     19  C   UNL     1      -2.099   3.385  -0.883  0.00  0.00    +0.000 A 
ENDBRANCH   3  14
BRANCH   1  20
ATOM     20  N   UNL     1       2.545   0.028   1.142  0.00  0.00    +0.000 N 
ATOM     21  C   UNL     1       2.899   0.009   2.532  0.00  0.00    +0.000 C 
BRANCH  20  22
ATOM     22  C   UNL     1       3.560  -0.167   0.144  0.00  0.00    +0.000 C 
BRANCH  22  23
ATOM     23  C   UNL     1       4.064  -1.612   0.204  0.00  0.00    +0.000 C 
BRANCH  23  25
ATOM     24  C   UNL     1       4.524  -1.456  -2.256  0.00  0.00    +0.000 C 
ATOM     25  C   UNL     1       5.119  -1.744  -0.880  0.00  0.00    +0.000 C 
ATOM     26  C   UNL     1       6.205  -0.687  -0.633  0.00  0.00    +0.000 C 
ENDBRANCH  23  25
ENDBRANCH  22  23
ENDBRANCH  20  22
ENDBRANCH   1  20
TORSDOF 6
