REMARK  Name = 
REMARK  8 active torsions:
REMARK  status: ('A' for Active; 'I' for Inactive)
REMARK    1  A    between atoms: C_3  and  C_4
REMARK    2  A    between atoms: N_11  and  C_12
REMARK    3  A    between atoms: C_12  and  C_13
REMARK    4  A    between atoms: C_13  and  C_14
REMARK    5  A    between atoms: C_14  and  C_15
REMARK    6  A    between atoms: C_15  and  C_16
REMARK    7  A    between atoms: C_16  and  C_17
REMARK    8  A    between atoms: C_17  and  N_18
REMARK                            x       y       z     vdW  Elec       q    Type
REMARK                         _______ _______ _______ _____ _____    ______ ____
ROOT
ATOM      1  C   UNL     1      -3.815   1.946   0.286  0.00  0.00    +0.000 C 
ATOM      2  C   UNL     1      -3.067   0.774  -0.276  0.00  0.00    +0.000 A 
ATOM      3  C   UNL     1      -1.983   0.100   0.301  0.00  0.00    +0.000 A 
ATOM      4  N   UNL     1      -1.617  -0.869  -0.518  0.00  0.00    +0.000 N 
ATOM      5  C   UNL     1      -2.413  -0.884  -1.628  0.00  0.00    +0.000 A 
ATOM      6  C   UNL     1      -2.435  -1.689  -2.750  0.00  0.00    +0.000 A 
ATOM      7  C   UNL     1      -3.379  -1.456  -3.729  0.00  0.00    +0.000 A 
ATOM      8  C   UNL     1      -4.293  -0.432  -3.594  0.00  0.00    +0.000 A 
ATOM      9  O   UNL     1      -5.268  -0.152  -4.551  0.00  0.00    +0.000 OA
ATOM     10  C   UNL     1      -4.261   0.367  -2.467  0.00  0.00    +0.000 A 
ATOM     11  C   UNL     1      -3.310   0.139  -1.471  0.00  0.00    +0.000 A 
ENDROOT
BRANCH   3  12
ATOM     12  C   UNL     1      -1.462   0.477   1.604  0.00  0.00    +0.000 A 
ATOM     13  C   UNL     1      -1.971   1.578   2.289  0.00  0.00    +0.000 A 
ATOM     14  C   UNL     1      -1.509   1.920   3.538  0.00  0.00    +0.000 A 
ATOM     15  C   UNL     1      -0.519   1.187   4.168  0.00  0.00    +0.000 A 
ATOM     16  O   UNL     1      -0.074   1.560   5.431  0.00  0.00    +0.000 OA
ATOM     17  C   UNL     1       0.005   0.091   3.516  0.00  0.00    +0.000 A 
ATOM     18  C   UNL     1      -0.481  -0.220   2.270  0.00  0.00    +0.000 A 
ENDBRANCH   3  12
BRANCH   4  19
ATOM     19  C   UNL     1      -0.506  -1.766  -0.370  0.00  0.00    +0.000 C 
BRANCH  19  20
ATOM     20  C   UNL     1       0.711  -1.441  -1.095  0.00  0.00    +0.000 C 
BRANCH  20  21
ATOM     21  C   UNL     1       1.481  -0.240  -0.934  0.00  0.00    +0.000 C 
BRANCH  21  22
ATOM     22  C   UNL     1       2.123   0.114   0.337  0.00  0.00    +0.000 C 
BRANCH  22  23
ATOM     23  C   UNL     1       3.127  -0.836   0.882  0.00  0.00    +0.000 C 
BRANCH  23  24
ATOM     24  C   UNL     1       4.256  -1.011  -0.086  0.00  0.00    +0.000 C 
BRANCH  24  25
ATOM     25  N   UNL     1       4.929   0.242  -0.357  0.00  0.00    +0.000 NA
ATOM     26  C   UNL     1       5.636   0.719   0.791  0.00  0.00    +0.000 C 
ATOM     27  C   UNL     1       7.094   0.395   0.556  0.00  0.00    +0.000 C 
ATOM     28  C   UNL     1       7.131  -0.416  -0.722  0.00  0.00    +0.000 C 
ATOM     29  C   UNL     1       5.869   0.071  -1.423  0.00  0.00    +0.000 C 
ENDBRANCH  24  25
ENDBRANCH  23  24
ENDBRANCH  22  23
ENDBRANCH  21  22
ENDBRANCH  20  21
ENDBRANCH  19  20
ENDBRANCH   4  19
TORSDOF 8
