REMARK  Name = 
REMARK  4 active torsions:
REMARK  status: ('A' for Active; 'I' for Inactive)
REMARK    1  A    between atoms: C_8  and  C_9
REMARK    2  A    between atoms: C_11  and  C_12
REMARK    3  A    between atoms: N_20  and  C_22
REMARK    4  A    between atoms: C_22  and  C_23
REMARK                            x       y       z     vdW  Elec       q    Type
REMARK                         _______ _______ _______ _____ _____    ______ ____
ROOT
ATOM      1  C   UNL     1       2.263   0.415  -0.315  0.00  0.00    +0.000 A 
ATOM      2  C   UNL     1       2.785  -0.692   0.310  0.00  0.00    +0.000 A 
ATOM      3  C   UNL     1       1.980  -1.782   0.573  0.00  0.00    +0.000 A 
ATOM      4  C   UNL     1       0.654  -1.687   0.176  0.00  0.00    +0.000 A 
ATOM      5  C   UNL     1       0.122  -0.581  -0.452  0.00  0.00    +0.000 A 
ATOM      6  N   UNL     1      -1.237  -0.507  -0.848  0.00  0.00    +0.000 N 
ATOM      7  C   UNL     1      -1.583  -1.032  -2.146  0.00  0.00    +0.000 C 
ATOM      8  N   UNL     1       0.972   0.466  -0.683  0.00  0.00    +0.000 NA
ENDROOT
BRANCH   1  16
ATOM      9  C   UNL     1       1.202   2.737  -1.600  0.00  0.00    +0.000 C 
ATOM     10  C   UNL     1       2.621   2.700  -1.210  0.00  0.00    +0.000 A 
ATOM     11  C   UNL     1       3.487   3.746  -1.433  0.00  0.00    +0.000 A 
ATOM     12  C   UNL     1       4.814   3.708  -1.067  0.00  0.00    +0.000 A 
ATOM     13  O   UNL     1       5.651   4.807  -1.321  0.00  0.00    +0.000 OA
ATOM     14  C   UNL     1       5.290   2.576  -0.452  0.00  0.00    +0.000 A 
ATOM     15  C   UNL     1       4.425   1.535  -0.231  0.00  0.00    +0.000 A 
ATOM     16  C   UNL     1       3.099   1.565  -0.593  0.00  0.00    +0.000 A 
ENDBRANCH   1  16
BRANCH   3  17
ATOM     17  C   UNL     1       2.497  -2.977   1.230  0.00  0.00    +0.000 A 
ATOM     18  C   UNL     1       1.989  -4.229   0.966  0.00  0.00    +0.000 A 
ATOM     19  C   UNL     1       2.500  -5.362   1.601  0.00  0.00    +0.000 A 
ATOM     20  C   UNL     1       3.525  -5.238   2.505  0.00  0.00    +0.000 A 
ATOM     21  C   UNL     1       4.046  -4.001   2.783  0.00  0.00    +0.000 A 
ATOM     22  C   UNL     1       3.526  -2.885   2.142  0.00  0.00    +0.000 A 
ENDBRANCH   3  17
BRANCH   6  23
ATOM     23  C   UNL     1      -2.189   0.074   0.029  0.00  0.00    +0.000 C 
BRANCH  23  24
ATOM     24  C   UNL     1      -3.573   0.091  -0.528  0.00  0.00    +0.000 A 
ATOM     25  C   UNL     1      -3.898  -0.413  -1.769  0.00  0.00    +0.000 A 
ATOM     26  C   UNL     1      -5.217  -0.366  -2.232  0.00  0.00    +0.000 A 
ATOM     27  C   UNL     1      -6.227   0.181  -1.470  0.00  0.00    +0.000 A 
ATOM     28  C   UNL     1      -5.900   0.685  -0.230  0.00  0.00    +0.000 A 
ATOM     29  C   UNL     1      -6.918   1.242   0.545  0.00  0.00    +0.000 A 
ATOM     30  C   UNL     1      -6.556   1.737   1.776  0.00  0.00    +0.000 A 
ATOM     31  C   UNL     1      -5.273   1.701   2.249  0.00  0.00    +0.000 A 
ATOM     32  C   UNL     1      -4.277   1.149   1.476  0.00  0.00    +0.000 A 
ATOM     33  C   UNL     1      -4.599   0.635   0.218  0.00  0.00    +0.000 A 
ENDBRANCH  23  24
ENDBRANCH   6  23
TORSDOF 4
