MODEL 1
REMARK VINA RESULT:      -7.9      0.000      0.000
REMARK  Name = 
REMARK  7 active torsions:
REMARK  status: ('A' for Active; 'I' for Inactive)
REMARK    1  A    between atoms: O_2  and  C_3
REMARK    2  A    between atoms: C_6  and  C_7
REMARK    3  A    between atoms: C_7  and  C_8
REMARK    4  A    between atoms: C_8  and  N_9
REMARK    5  A    between atoms: C_12  and  C_13
REMARK    6  A    between atoms: C_13  and  O_15
REMARK    7  A    between atoms: O_15  and  C_16
REMARK                            x       y       z     vdW  Elec       q    Type
REMARK                         _______ _______ _______ _____ _____    ______ ____
ROOT
ATOM      1  N   UNL     1      37.972   3.107  13.954  0.00  0.00    +0.000 N 
ATOM      2  C   UNL     1      36.875   2.400  14.317  0.00  0.00    +0.000 A 
ATOM      3  N   UNL     1      36.134   1.567  13.447  0.00  0.00    +0.000 NA
ATOM      4  C   UNL     1      36.585   2.609  15.644  0.00  0.00    +0.000 A 
ATOM      5  C   UNL     1      37.543   3.478  16.118  0.00  0.00    +0.000 A 
ATOM      6  N   UNL     1      37.751   4.016  17.309  0.00  0.00    +0.000 NA
ATOM      7  C   UNL     1      38.801   4.862  17.494  0.00  0.00    +0.000 A 
ATOM      8  C   UNL     1      39.018   5.418  18.720  0.00  0.00    +0.000 A 
ATOM      9  C   UNL     1      40.074   6.269  18.909  0.00  0.00    +0.000 A 
ATOM     10  C   UNL     1      40.917   6.567  17.863  0.00  0.00    +0.000 A 
ATOM     11  C   UNL     1      40.677   5.992  16.631  0.00  0.00    +0.000 A 
ATOM     12  C   UNL     1      39.614   5.131  16.433  0.00  0.00    +0.000 A 
ATOM     13  N   UNL     1      39.421   4.599  15.220  0.00  0.00    +0.000 NA
ATOM     14  C   UNL     1      38.381   3.769  15.063  0.00  0.00    +0.000 A 
ENDROOT
BRANCH   4  15
ATOM     15  C   UNL     1      35.470   2.019  16.413  0.00  0.00    +0.000 C 
ATOM     16  O   UNL     1      34.352   2.597  16.425  0.00  0.00    +0.000 OA
BRANCH  15  17
ATOM     17  O   UNL     1      35.647   0.837  17.118  0.00  0.00    +0.000 OA
BRANCH  17  18
ATOM     18  C   UNL     1      35.260  -0.355  16.492  0.00  0.00    +0.000 C 
ATOM     19  C   UNL     1      34.456  -1.257  17.397  0.00  0.00    +0.000 C 
ATOM     20  C   UNL     1      34.119  -2.557  16.734  0.00  0.00    +0.000 C 
ATOM     21  C   UNL     1      35.280  -3.222  16.064  0.00  0.00    +0.000 C 
ATOM     22  C   UNL     1      36.035  -2.297  15.130  0.00  0.00    +0.000 C 
ATOM     23  C   UNL     1      36.465  -1.084  15.897  0.00  0.00    +0.000 C 
ENDBRANCH  17  18
ENDBRANCH  15  17
ENDBRANCH   4  15
BRANCH   1  24
ATOM     24  C   UNL     1      38.590   3.151  12.649  0.00  0.00    +0.000 C 
BRANCH  24  25
ATOM     25  C   UNL     1      40.007   2.582  12.683  0.00  0.00    +0.000 C 
BRANCH  25  29
ATOM     26  C   UNL     1      39.568  -1.517  13.930  0.00  0.00    +0.000 A 
ATOM     27  C   UNL     1      40.199  -0.575  14.736  0.00  0.00    +0.000 A 
ATOM     28  C   UNL     1      40.345   0.740  14.345  0.00  0.00    +0.000 A 
ATOM     29  C   UNL     1      39.858   1.158  13.124  0.00  0.00    +0.000 A 
ATOM     30  C   UNL     1      39.235   0.211  12.334  0.00  0.00    +0.000 A 
ATOM     31  C   UNL     1      39.085  -1.109  12.719  0.00  0.00    +0.000 A 
BRANCH  26  33
ATOM     32  C   UNL     1      39.765  -3.115  15.744  0.00  0.00    +0.000 C 
ATOM     33  O   UNL     1      39.472  -2.800  14.404  0.00  0.00    +0.000 OA
ENDBRANCH  26  33
ENDBRANCH  25  29
ENDBRANCH  24  25
ENDBRANCH   1  24
TORSDOF 7
ENDMDL
MODEL 2
REMARK VINA RESULT:      -7.6      1.847      4.716
REMARK  Name = 
REMARK  7 active torsions:
REMARK  status: ('A' for Active; 'I' for Inactive)
REMARK    1  A    between atoms: O_2  and  C_3
REMARK    2  A    between atoms: C_6  and  C_7
REMARK    3  A    between atoms: C_7  and  C_8
REMARK    4  A    between atoms: C_8  and  N_9
REMARK    5  A    between atoms: C_12  and  C_13
REMARK    6  A    between atoms: C_13  and  O_15
REMARK    7  A    between atoms: O_15  and  C_16
REMARK                            x       y       z     vdW  Elec       q    Type
REMARK                         _______ _______ _______ _____ _____    ______ ____
ROOT
ATOM      1  N   UNL     1      36.586   2.436  15.995  0.00  0.00    +0.000 N 
ATOM      2  C   UNL     1      36.802   2.100  14.702  0.00  0.00    +0.000 A 
ATOM      3  N   UNL     1      36.019   1.176  13.971  0.00  0.00    +0.000 NA
ATOM      4  C   UNL     1      37.888   2.779  14.202  0.00  0.00    +0.000 A 
ATOM      5  C   UNL     1      38.358   3.567  15.229  0.00  0.00    +0.000 A 
ATOM      6  N   UNL     1      39.369   4.417  15.313  0.00  0.00    +0.000 NA
ATOM      7  C   UNL     1      39.606   5.072  16.482  0.00  0.00    +0.000 A 
ATOM      8  C   UNL     1      40.646   5.949  16.572  0.00  0.00    +0.000 A 
ATOM      9  C   UNL     1      40.886   6.609  17.747  0.00  0.00    +0.000 A 
ATOM     10  C   UNL     1      40.080   6.389  18.841  0.00  0.00    +0.000 A 
ATOM     11  C   UNL     1      39.033   5.497  18.725  0.00  0.00    +0.000 A 
ATOM     12  C   UNL     1      38.784   4.827  17.542  0.00  0.00    +0.000 A 
ATOM     13  N   UNL     1      37.757   3.971  17.480  0.00  0.00    +0.000 NA
ATOM     14  C   UNL     1      37.544   3.339  16.318  0.00  0.00    +0.000 A 
ENDROOT
BRANCH   4  15
ATOM     15  C   UNL     1      38.441   2.686  12.835  0.00  0.00    +0.000 C 
ATOM     16  O   UNL     1      38.300   3.654  12.043  0.00  0.00    +0.000 OA
BRANCH  15  17
ATOM     17  O   UNL     1      39.111   1.544  12.421  0.00  0.00    +0.000 OA
BRANCH  17  18
ATOM     18  C   UNL     1      39.904   0.879  13.366  0.00  0.00    +0.000 C 
ATOM     19  C   UNL     1      41.363   0.843  12.985  0.00  0.00    +0.000 C 
ATOM     20  C   UNL     1      42.179   0.063  13.969  0.00  0.00    +0.000 C 
ATOM     21  C   UNL     1      41.596  -1.269  14.329  0.00  0.00    +0.000 C 
ATOM     22  C   UNL     1      40.142  -1.185  14.749  0.00  0.00    +0.000 C 
ATOM     23  C   UNL     1      39.362  -0.521  13.655  0.00  0.00    +0.000 C 
ENDBRANCH  17  18
ENDBRANCH  15  17
ENDBRANCH   4  15
BRANCH   1  24
ATOM     24  C   UNL     1      35.545   1.939  16.865  0.00  0.00    +0.000 C 
BRANCH  24  25
ATOM     25  C   UNL     1      36.087   0.897  17.842  0.00  0.00    +0.000 C 
BRANCH  25  29
ATOM     26  C   UNL     1      35.170  -2.925  16.081  0.00  0.00    +0.000 A 
ATOM     27  C   UNL     1      36.449  -2.380  16.013  0.00  0.00    +0.000 A 
ATOM     28  C   UNL     1      36.751  -1.156  16.573  0.00  0.00    +0.000 A 
ATOM     29  C   UNL     1      35.776  -0.433  17.227  0.00  0.00    +0.000 A 
ATOM     30  C   UNL     1      34.511  -0.987  17.286  0.00  0.00    +0.000 A 
ATOM     31  C   UNL     1      34.200  -2.212  16.727  0.00  0.00    +0.000 A 
BRANCH  26  33
ATOM     32  C   UNL     1      33.836  -4.400  14.692  0.00  0.00    +0.000 C 
ATOM     33  O   UNL     1      34.965  -4.147  15.493  0.00  0.00    +0.000 OA
ENDBRANCH  26  33
ENDBRANCH  25  29
ENDBRANCH  24  25
ENDBRANCH   1  24
TORSDOF 7
ENDMDL
MODEL 3
REMARK VINA RESULT:      -7.6      2.407      6.319
REMARK  Name = 
REMARK  7 active torsions:
REMARK  status: ('A' for Active; 'I' for Inactive)
REMARK    1  A    between atoms: O_2  and  C_3
REMARK    2  A    between atoms: C_6  and  C_7
REMARK    3  A    between atoms: C_7  and  C_8
REMARK    4  A    between atoms: C_8  and  N_9
REMARK    5  A    between atoms: C_12  and  C_13
REMARK    6  A    between atoms: C_13  and  O_15
REMARK    7  A    between atoms: O_15  and  C_16
REMARK                            x       y       z     vdW  Elec       q    Type
REMARK                         _______ _______ _______ _____ _____    ______ ____
ROOT
ATOM      1  N   UNL     1      36.212   0.726  15.685  0.00  0.00    +0.000 N 
ATOM      2  C   UNL     1      35.987   2.042  15.462  0.00  0.00    +0.000 A 
ATOM      3  N   UNL     1      34.762   2.702  15.721  0.00  0.00    +0.000 NA
ATOM      4  C   UNL     1      37.111   2.643  14.948  0.00  0.00    +0.000 A 
ATOM      5  C   UNL     1      38.068   1.657  14.852  0.00  0.00    +0.000 A 
ATOM      6  N   UNL     1      39.322   1.665  14.430  0.00  0.00    +0.000 NA
ATOM      7  C   UNL     1      40.050   0.516  14.448  0.00  0.00    +0.000 A 
ATOM      8  C   UNL     1      41.342   0.522  14.014  0.00  0.00    +0.000 A 
ATOM      9  C   UNL     1      42.076  -0.634  14.031  0.00  0.00    +0.000 A 
ATOM     10  C   UNL     1      41.512  -1.804  14.486  0.00  0.00    +0.000 A 
ATOM     11  C   UNL     1      40.202  -1.785  14.920  0.00  0.00    +0.000 A 
ATOM     12  C   UNL     1      39.455  -0.622  14.906  0.00  0.00    +0.000 A 
ATOM     13  N   UNL     1      38.188  -0.654  15.337  0.00  0.00    +0.000 NA
ATOM     14  C   UNL     1      37.492   0.491  15.310  0.00  0.00    +0.000 A 
ENDROOT
BRANCH   4  15
ATOM     15  C   UNL     1      37.266   4.064  14.573  0.00  0.00    +0.000 C 
ATOM     16  O   UNL     1      37.544   4.364  13.383  0.00  0.00    +0.000 OA
BRANCH  15  17
ATOM     17  O   UNL     1      37.109   5.064  15.521  0.00  0.00    +0.000 OA
BRANCH  17  18
ATOM     18  C   UNL     1      38.219   5.389  16.311  0.00  0.00    +0.000 C 
ATOM     19  C   UNL     1      38.169   4.757  17.680  0.00  0.00    +0.000 C 
ATOM     20  C   UNL     1      39.324   5.178  18.534  0.00  0.00    +0.000 C 
ATOM     21  C   UNL     1      39.578   6.654  18.537  0.00  0.00    +0.000 C 
ATOM     22  C   UNL     1      39.667   7.244  17.144  0.00  0.00    +0.000 C 
ATOM     23  C   UNL     1      38.413   6.903  16.396  0.00  0.00    +0.000 C 
ENDBRANCH  17  18
ENDBRANCH  15  17
ENDBRANCH   4  15
BRANCH   1  24
ATOM     24  C   UNL     1      35.280  -0.242  16.217  0.00  0.00    +0.000 C 
BRANCH  24  25
ATOM     25  C   UNL     1      35.391  -0.344  17.737  0.00  0.00    +0.000 C 
BRANCH  25  29
ATOM     26  C   UNL     1      38.246  -3.478  18.498  0.00  0.00    +0.000 A 
ATOM     27  C   UNL     1      37.252  -3.617  17.533  0.00  0.00    +0.000 A 
ATOM     28  C   UNL     1      36.333  -2.619  17.284  0.00  0.00    +0.000 A 
ATOM     29  C   UNL     1      36.380  -1.439  17.996  0.00  0.00    +0.000 A 
ATOM     30  C   UNL     1      37.372  -1.316  18.950  0.00  0.00    +0.000 A 
ATOM     31  C   UNL     1      38.297  -2.311  19.207  0.00  0.00    +0.000 A 
BRANCH  26  33
ATOM     32  C   UNL     1      39.101  -5.302  19.849  0.00  0.00    +0.000 C 
ATOM     33  O   UNL     1      39.113  -4.525  18.676  0.00  0.00    +0.000 OA
ENDBRANCH  26  33
ENDBRANCH  25  29
ENDBRANCH  24  25
ENDBRANCH   1  24
TORSDOF 7
ENDMDL
MODEL 4
REMARK VINA RESULT:      -7.3      2.616      7.351
REMARK  Name = 
REMARK  7 active torsions:
REMARK  status: ('A' for Active; 'I' for Inactive)
REMARK    1  A    between atoms: O_2  and  C_3
REMARK    2  A    between atoms: C_6  and  C_7
REMARK    3  A    between atoms: C_7  and  C_8
REMARK    4  A    between atoms: C_8  and  N_9
REMARK    5  A    between atoms: C_12  and  C_13
REMARK    6  A    between atoms: C_13  and  O_15
REMARK    7  A    between atoms: O_15  and  C_16
REMARK                            x       y       z     vdW  Elec       q    Type
REMARK                         _______ _______ _______ _____ _____    ______ ____
ROOT
ATOM      1  N   UNL     1      37.821   3.804  15.865  0.00  0.00    +0.000 N 
ATOM      2  C   UNL     1      38.379   3.808  14.631  0.00  0.00    +0.000 A 
ATOM      3  N   UNL     1      39.087   4.899  14.075  0.00  0.00    +0.000 NA
ATOM      4  C   UNL     1      38.160   2.607  13.999  0.00  0.00    +0.000 A 
ATOM      5  C   UNL     1      37.438   1.832  14.879  0.00  0.00    +0.000 A 
ATOM      6  N   UNL     1      36.957   0.602  14.801  0.00  0.00    +0.000 NA
ATOM      7  C   UNL     1      36.264   0.078  15.849  0.00  0.00    +0.000 A 
ATOM      8  C   UNL     1      35.768  -1.189  15.771  0.00  0.00    +0.000 A 
ATOM      9  C   UNL     1      35.071  -1.718  16.824  0.00  0.00    +0.000 A 
ATOM     10  C   UNL     1      34.869  -0.972  17.963  0.00  0.00    +0.000 A 
ATOM     11  C   UNL     1      35.382   0.308  18.018  0.00  0.00    +0.000 A 
ATOM     12  C   UNL     1      36.087   0.849  16.960  0.00  0.00    +0.000 A 
ATOM     13  N   UNL     1      36.564   2.095  17.060  0.00  0.00    +0.000 NA
ATOM     14  C   UNL     1      37.242   2.588  16.015  0.00  0.00    +0.000 A 
ENDROOT
BRANCH   4  15
ATOM     15  C   UNL     1      38.609   2.221  12.645  0.00  0.00    +0.000 C 
ATOM     16  O   UNL     1      37.808   2.308  11.678  0.00  0.00    +0.000 OA
BRANCH  15  17
ATOM     17  O   UNL     1      39.902   1.765  12.434  0.00  0.00    +0.000 OA
BRANCH  17  18
ATOM     18  C   UNL     1      40.166   0.417  12.709  0.00  0.00    +0.000 C 
ATOM     19  C   UNL     1      39.032  -0.495  12.311  0.00  0.00    +0.000 C 
ATOM     20  C   UNL     1      39.303  -1.920  12.682  0.00  0.00    +0.000 C 
ATOM     21  C   UNL     1      39.788  -2.105  14.087  0.00  0.00    +0.000 C 
ATOM     22  C   UNL     1      40.957  -1.205  14.433  0.00  0.00    +0.000 C 
ATOM     23  C   UNL     1      40.563   0.218  14.172  0.00  0.00    +0.000 C 
ENDBRANCH  17  18
ENDBRANCH  15  17
ENDBRANCH   4  15
BRANCH   1  24
ATOM     24  C   UNL     1      37.834   4.876  16.833  0.00  0.00    +0.000 C 
BRANCH  24  25
ATOM     25  C   UNL     1      38.941   4.680  17.866  0.00  0.00    +0.000 C 
BRANCH  25  29
ATOM     26  C   UNL     1      39.172   8.376  20.067  0.00  0.00    +0.000 A 
ATOM     27  C   UNL     1      38.211   8.175  19.080  0.00  0.00    +0.000 A 
ATOM     28  C   UNL     1      38.130   6.995  18.370  0.00  0.00    +0.000 A 
ATOM     29  C   UNL     1      39.015   5.968  18.627  0.00  0.00    +0.000 A 
ATOM     30  C   UNL     1      39.964   6.183  19.609  0.00  0.00    +0.000 A 
ATOM     31  C   UNL     1      40.052   7.362  20.325  0.00  0.00    +0.000 A 
BRANCH  26  33
ATOM     32  C   UNL     1      38.187  10.554  20.475  0.00  0.00    +0.000 C 
ATOM     33  O   UNL     1      39.175   9.582  20.719  0.00  0.00    +0.000 OA
ENDBRANCH  26  33
ENDBRANCH  25  29
ENDBRANCH  24  25
ENDBRANCH   1  24
TORSDOF 7
ENDMDL
MODEL 5
REMARK VINA RESULT:      -7.2      3.026      4.197
REMARK  Name = 
REMARK  7 active torsions:
REMARK  status: ('A' for Active; 'I' for Inactive)
REMARK    1  A    between atoms: O_2  and  C_3
REMARK    2  A    between atoms: C_6  and  C_7
REMARK    3  A    between atoms: C_7  and  C_8
REMARK    4  A    between atoms: C_8  and  N_9
REMARK    5  A    between atoms: C_12  and  C_13
REMARK    6  A    between atoms: C_13  and  O_15
REMARK    7  A    between atoms: O_15  and  C_16
REMARK                            x       y       z     vdW  Elec       q    Type
REMARK                         _______ _______ _______ _____ _____    ______ ____
ROOT
ATOM      1  N   UNL     1      37.792   2.800  13.667  0.00  0.00    +0.000 N 
ATOM      2  C   UNL     1      36.774   1.979  14.017  0.00  0.00    +0.000 A 
ATOM      3  N   UNL     1      36.093   1.119  13.124  0.00  0.00    +0.000 NA
ATOM      4  C   UNL     1      36.495   2.102  15.358  0.00  0.00    +0.000 A 
ATOM      5  C   UNL     1      37.379   3.035  15.853  0.00  0.00    +0.000 A 
ATOM      6  N   UNL     1      37.564   3.538  17.063  0.00  0.00    +0.000 NA
ATOM      7  C   UNL     1      38.534   4.470  17.268  0.00  0.00    +0.000 A 
ATOM      8  C   UNL     1      38.727   4.989  18.514  0.00  0.00    +0.000 A 
ATOM      9  C   UNL     1      39.703   5.926  18.721  0.00  0.00    +0.000 A 
ATOM     10  C   UNL     1      40.491   6.347  17.674  0.00  0.00    +0.000 A 
ATOM     11  C   UNL     1      40.277   5.807  16.422  0.00  0.00    +0.000 A 
ATOM     12  C   UNL     1      39.294   4.859  16.205  0.00  0.00    +0.000 A 
ATOM     13  N   UNL     1      39.124   4.365  14.973  0.00  0.00    +0.000 NA
ATOM     14  C   UNL     1      38.162   3.449  14.797  0.00  0.00    +0.000 A 
ENDROOT
BRANCH   4  15
ATOM     15  C   UNL     1      35.457   1.376  16.119  0.00  0.00    +0.000 C 
ATOM     16  O   UNL     1      34.479   2.011  16.592  0.00  0.00    +0.000 OA
BRANCH  15  17
ATOM     17  O   UNL     1      35.555   0.007  16.317  0.00  0.00    +0.000 OA
BRANCH  17  18
ATOM     18  C   UNL     1      36.671  -0.469  17.017  0.00  0.00    +0.000 C 
ATOM     19  C   UNL     1      37.430  -1.530  16.258  0.00  0.00    +0.000 C 
ATOM     20  C   UNL     1      38.572  -2.079  17.056  0.00  0.00    +0.000 C 
ATOM     21  C   UNL     1      38.215  -2.453  18.461  0.00  0.00    +0.000 C 
ATOM     22  C   UNL     1      37.495  -1.346  19.204  0.00  0.00    +0.000 C 
ATOM     23  C   UNL     1      36.283  -0.946  18.417  0.00  0.00    +0.000 C 
ENDBRANCH  17  18
ENDBRANCH  15  17
ENDBRANCH   4  15
BRANCH   1  24
ATOM     24  C   UNL     1      38.373   2.960  12.354  0.00  0.00    +0.000 C 
BRANCH  24  25
ATOM     25  C   UNL     1      37.710   4.102  11.586  0.00  0.00    +0.000 C 
BRANCH  25  29
ATOM     26  C   UNL     1      36.458   2.424   7.821  0.00  0.00    +0.000 A 
ATOM     27  C   UNL     1      37.361   1.762   8.649  0.00  0.00    +0.000 A 
ATOM     28  C   UNL     1      37.768   2.293   9.856  0.00  0.00    +0.000 A 
ATOM     29  C   UNL     1      37.280   3.511  10.278  0.00  0.00    +0.000 A 
ATOM     30  C   UNL     1      36.385   4.156   9.445  0.00  0.00    +0.000 A 
ATOM     31  C   UNL     1      35.972   3.632   8.235  0.00  0.00    +0.000 A 
BRANCH  26  33
ATOM     32  C   UNL     1      35.876   2.565   5.471  0.00  0.00    +0.000 C 
ATOM     33  O   UNL     1      36.114   1.819   6.640  0.00  0.00    +0.000 OA
ENDBRANCH  26  33
ENDBRANCH  25  29
ENDBRANCH  24  25
ENDBRANCH   1  24
TORSDOF 7
ENDMDL
MODEL 6
REMARK VINA RESULT:      -7.1      3.567      6.934
REMARK  Name = 
REMARK  7 active torsions:
REMARK  status: ('A' for Active; 'I' for Inactive)
REMARK    1  A    between atoms: O_2  and  C_3
REMARK    2  A    between atoms: C_6  and  C_7
REMARK    3  A    between atoms: C_7  and  C_8
REMARK    4  A    between atoms: C_8  and  N_9
REMARK    5  A    between atoms: C_12  and  C_13
REMARK    6  A    between atoms: C_13  and  O_15
REMARK    7  A    between atoms: O_15  and  C_16
REMARK                            x       y       z     vdW  Elec       q    Type
REMARK                         _______ _______ _______ _____ _____    ______ ____
ROOT
ATOM      1  N   UNL     1      36.644   4.225  14.690  0.00  0.00    +0.000 N 
ATOM      2  C   UNL     1      37.546   4.599  15.627  0.00  0.00    +0.000 A 
ATOM      3  N   UNL     1      38.190   3.710  16.520  0.00  0.00    +0.000 NA
ATOM      4  C   UNL     1      37.745   5.959  15.590  0.00  0.00    +0.000 A 
ATOM      5  C   UNL     1      36.934   6.441  14.587  0.00  0.00    +0.000 A 
ATOM      6  N   UNL     1      36.722   7.660  14.116  0.00  0.00    +0.000 NA
ATOM      7  C   UNL     1      35.842   7.847  13.095  0.00  0.00    +0.000 A 
ATOM      8  C   UNL     1      35.623   9.102  12.608  0.00  0.00    +0.000 A 
ATOM      9  C   UNL     1      34.738   9.292  11.581  0.00  0.00    +0.000 A 
ATOM     10  C   UNL     1      34.068   8.220  11.038  0.00  0.00    +0.000 A 
ATOM     11  C   UNL     1      34.307   6.960  11.548  0.00  0.00    +0.000 A 
ATOM     12  C   UNL     1      35.199   6.759  12.584  0.00  0.00    +0.000 A 
ATOM     13  N   UNL     1      35.397   5.518  13.045  0.00  0.00    +0.000 NA
ATOM     14  C   UNL     1      36.268   5.360  14.051  0.00  0.00    +0.000 A 
ENDROOT
BRANCH   4  15
ATOM     15  C   UNL     1      38.651   6.748  16.451  0.00  0.00    +0.000 C 
ATOM     16  O   UNL     1      38.212   7.772  17.036  0.00  0.00    +0.000 OA
BRANCH  15  17
ATOM     17  O   UNL     1      39.975   6.369  16.616  0.00  0.00    +0.000 OA
BRANCH  17  18
ATOM     18  C   UNL     1      40.613   6.745  17.806  0.00  0.00    +0.000 C 
ATOM     19  C   UNL     1      42.103   6.510  17.770  0.00  0.00    +0.000 C 
ATOM     20  C   UNL     1      42.753   6.846  19.077  0.00  0.00    +0.000 C 
ATOM     21  C   UNL     1      42.059   6.271  20.272  0.00  0.00    +0.000 C 
ATOM     22  C   UNL     1      40.573   6.566  20.295  0.00  0.00    +0.000 C 
ATOM     23  C   UNL     1      39.965   6.073  19.017  0.00  0.00    +0.000 C 
ENDBRANCH  17  18
ENDBRANCH  15  17
ENDBRANCH   4  15
BRANCH   1  24
ATOM     24  C   UNL     1      36.170   2.888  14.417  0.00  0.00    +0.000 C 
BRANCH  24  25
ATOM     25  C   UNL     1      34.981   2.526  15.304  0.00  0.00    +0.000 C 
BRANCH  25  29
ATOM     26  C   UNL     1      35.898  -1.329  16.993  0.00  0.00    +0.000 A 
ATOM     27  C   UNL     1      36.425  -0.926  15.769  0.00  0.00    +0.000 A 
ATOM     28  C   UNL     1      36.136   0.306  15.220  0.00  0.00    +0.000 A 
ATOM     29  C   UNL     1      35.305   1.184  15.885  0.00  0.00    +0.000 A 
ATOM     30  C   UNL     1      34.789   0.769  17.099  0.00  0.00    +0.000 A 
ATOM     31  C   UNL     1      35.073  -0.463  17.655  0.00  0.00    +0.000 A 
BRANCH  26  33
ATOM     32  C   UNL     1      36.326  -3.683  16.597  0.00  0.00    +0.000 C 
ATOM     33  O   UNL     1      36.241  -2.572  17.457  0.00  0.00    +0.000 OA
ENDBRANCH  26  33
ENDBRANCH  25  29
ENDBRANCH  24  25
ENDBRANCH   1  24
TORSDOF 7
ENDMDL
MODEL 7
REMARK VINA RESULT:      -7.1      2.351      6.525
REMARK  Name = 
REMARK  7 active torsions:
REMARK  status: ('A' for Active; 'I' for Inactive)
REMARK    1  A    between atoms: O_2  and  C_3
REMARK    2  A    between atoms: C_6  and  C_7
REMARK    3  A    between atoms: C_7  and  C_8
REMARK    4  A    between atoms: C_8  and  N_9
REMARK    5  A    between atoms: C_12  and  C_13
REMARK    6  A    between atoms: C_13  and  O_15
REMARK    7  A    between atoms: O_15  and  C_16
REMARK                            x       y       z     vdW  Elec       q    Type
REMARK                         _______ _______ _______ _____ _____    ______ ____
ROOT
ATOM      1  N   UNL     1      37.398   3.097  14.595  0.00  0.00    +0.000 N 
ATOM      2  C   UNL     1      37.567   2.604  13.345  0.00  0.00    +0.000 A 
ATOM      3  N   UNL     1      37.988   3.368  12.231  0.00  0.00    +0.000 NA
ATOM      4  C   UNL     1      37.271   1.262  13.312  0.00  0.00    +0.000 A 
ATOM      5  C   UNL     1      36.907   0.914  14.594  0.00  0.00    +0.000 A 
ATOM      6  N   UNL     1      36.527  -0.232  15.136  0.00  0.00    +0.000 NA
ATOM      7  C   UNL     1      36.219  -0.285  16.461  0.00  0.00    +0.000 A 
ATOM      8  C   UNL     1      35.828  -1.464  17.022  0.00  0.00    +0.000 A 
ATOM      9  C   UNL     1      35.518  -1.519  18.354  0.00  0.00    +0.000 A 
ATOM     10  C   UNL     1      35.599  -0.385  19.130  0.00  0.00    +0.000 A 
ATOM     11  C   UNL     1      35.998   0.797  18.539  0.00  0.00    +0.000 A 
ATOM     12  C   UNL     1      36.313   0.860  17.195  0.00  0.00    +0.000 A 
ATOM     13  N   UNL     1      36.695   2.030  16.668  0.00  0.00    +0.000 NA
ATOM     14  C   UNL     1      36.992   2.056  15.361  0.00  0.00    +0.000 A 
ENDROOT
BRANCH   4  15
ATOM     15  C   UNL     1      37.332   0.367  12.138  0.00  0.00    +0.000 C 
ATOM     16  O   UNL     1      36.661   0.647  11.110  0.00  0.00    +0.000 OA
BRANCH  15  17
ATOM     17  O   UNL     1      38.121  -0.774  12.160  0.00  0.00    +0.000 OA
BRANCH  17  18
ATOM     18  C   UNL     1      39.481  -0.616  12.458  0.00  0.00    +0.000 C 
ATOM     19  C   UNL     1      40.380  -1.003  11.309  0.00  0.00    +0.000 C 
ATOM     20  C   UNL     1      41.829  -0.900  11.674  0.00  0.00    +0.000 C 
ATOM     21  C   UNL     1      42.179  -1.539  12.982  0.00  0.00    +0.000 C 
ATOM     22  C   UNL     1      41.282  -1.090  14.119  0.00  0.00    +0.000 C 
ATOM     23  C   UNL     1      39.856  -1.356  13.742  0.00  0.00    +0.000 C 
ENDBRANCH  17  18
ENDBRANCH  15  17
ENDBRANCH   4  15
BRANCH   1  24
ATOM     24  C   UNL     1      37.608   4.457  15.033  0.00  0.00    +0.000 C 
BRANCH  24  25
ATOM     25  C   UNL     1      39.081   4.851  14.945  0.00  0.00    +0.000 C 
BRANCH  25  29
ATOM     26  C   UNL     1      40.182   6.028  18.939  0.00  0.00    +0.000 A 
ATOM     27  C   UNL     1      40.958   6.377  17.837  0.00  0.00    +0.000 A 
ATOM     28  C   UNL     1      40.613   6.003  16.554  0.00  0.00    +0.000 A 
ATOM     29  C   UNL     1      39.471   5.264  16.331  0.00  0.00    +0.000 A 
ATOM     30  C   UNL     1      38.711   4.925  17.435  0.00  0.00    +0.000 A 
ATOM     31  C   UNL     1      39.050   5.294  18.723  0.00  0.00    +0.000 A 
BRANCH  26  33
ATOM     32  C   UNL     1      41.686   7.333  20.323  0.00  0.00    +0.000 C 
ATOM     33  O   UNL     1      40.606   6.443  20.175  0.00  0.00    +0.000 OA
ENDBRANCH  26  33
ENDBRANCH  25  29
ENDBRANCH  24  25
ENDBRANCH   1  24
TORSDOF 7
ENDMDL
MODEL 8
REMARK VINA RESULT:      -6.9      2.448      5.899
REMARK  Name = 
REMARK  7 active torsions:
REMARK  status: ('A' for Active; 'I' for Inactive)
REMARK    1  A    between atoms: O_2  and  C_3
REMARK    2  A    between atoms: C_6  and  C_7
REMARK    3  A    between atoms: C_7  and  C_8
REMARK    4  A    between atoms: C_8  and  N_9
REMARK    5  A    between atoms: C_12  and  C_13
REMARK    6  A    between atoms: C_13  and  O_15
REMARK    7  A    between atoms: O_15  and  C_16
REMARK                            x       y       z     vdW  Elec       q    Type
REMARK                         _______ _______ _______ _____ _____    ______ ____
ROOT
ATOM      1  N   UNL     1      36.754   1.746  15.948  0.00  0.00    +0.000 N 
ATOM      2  C   UNL     1      35.751   0.916  16.319  0.00  0.00    +0.000 A 
ATOM      3  N   UNL     1      34.507   1.343  16.840  0.00  0.00    +0.000 NA
ATOM      4  C   UNL     1      36.112  -0.396  16.120  0.00  0.00    +0.000 A 
ATOM      5  C   UNL     1      37.389  -0.371  15.604  0.00  0.00    +0.000 A 
ATOM      6  N   UNL     1      38.221  -1.331  15.230  0.00  0.00    +0.000 NA
ATOM      7  C   UNL     1      39.451  -1.008  14.745  0.00  0.00    +0.000 A 
ATOM      8  C   UNL     1      40.309  -1.994  14.358  0.00  0.00    +0.000 A 
ATOM      9  C   UNL     1      41.547  -1.672  13.870  0.00  0.00    +0.000 A 
ATOM     10  C   UNL     1      41.929  -0.354  13.770  0.00  0.00    +0.000 A 
ATOM     11  C   UNL     1      41.042   0.627  14.169  0.00  0.00    +0.000 A 
ATOM     12  C   UNL     1      39.791   0.309  14.661  0.00  0.00    +0.000 A 
ATOM     13  N   UNL     1      38.966   1.295  15.035  0.00  0.00    +0.000 NA
ATOM     14  C   UNL     1      37.761   0.952  15.509  0.00  0.00    +0.000 A 
ENDROOT
BRANCH   4  15
ATOM     15  C   UNL     1      35.295  -1.594  16.401  0.00  0.00    +0.000 C 
ATOM     16  O   UNL     1      34.846  -1.779  17.562  0.00  0.00    +0.000 OA
BRANCH  15  17
ATOM     17  O   UNL     1      35.023  -2.513  15.398  0.00  0.00    +0.000 OA
BRANCH  17  18
ATOM     18  C   UNL     1      34.749  -3.832  15.784  0.00  0.00    +0.000 C 
ATOM     19  C   UNL     1      35.996  -4.671  15.928  0.00  0.00    +0.000 C 
ATOM     20  C   UNL     1      35.676  -6.094  16.266  0.00  0.00    +0.000 C 
ATOM     21  C   UNL     1      34.610  -6.703  15.408  0.00  0.00    +0.000 C 
ATOM     22  C   UNL     1      33.359  -5.853  15.325  0.00  0.00    +0.000 C 
ATOM     23  C   UNL     1      33.736  -4.484  14.843  0.00  0.00    +0.000 C 
ENDBRANCH  17  18
ENDBRANCH  15  17
ENDBRANCH   4  15
BRANCH   1  24
ATOM     24  C   UNL     1      36.759   3.190  16.005  0.00  0.00    +0.000 C 
BRANCH  24  25
ATOM     25  C   UNL     1      37.954   3.773  15.253  0.00  0.00    +0.000 C 
BRANCH  25  29
ATOM     26  C   UNL     1      40.183   6.042  18.158  0.00  0.00    +0.000 A 
ATOM     27  C   UNL     1      39.101   5.249  18.528  0.00  0.00    +0.000 A 
ATOM     28  C   UNL     1      38.381   4.519  17.605  0.00  0.00    +0.000 A 
ATOM     29  C   UNL     1      38.724   4.559  16.269  0.00  0.00    +0.000 A 
ATOM     30  C   UNL     1      39.800   5.352  15.917  0.00  0.00    +0.000 A 
ATOM     31  C   UNL     1      40.527   6.086  16.835  0.00  0.00    +0.000 A 
BRANCH  26  33
ATOM     32  C   UNL     1      41.743   7.766  18.848  0.00  0.00    +0.000 C 
ATOM     33  O   UNL     1      40.837   6.732  19.146  0.00  0.00    +0.000 OA
ENDBRANCH  26  33
ENDBRANCH  25  29
ENDBRANCH  24  25
ENDBRANCH   1  24
TORSDOF 7
ENDMDL
MODEL 9
REMARK VINA RESULT:      -6.9      4.087      6.520
REMARK  Name = 
REMARK  7 active torsions:
REMARK  status: ('A' for Active; 'I' for Inactive)
REMARK    1  A    between atoms: O_2  and  C_3
REMARK    2  A    between atoms: C_6  and  C_7
REMARK    3  A    between atoms: C_7  and  C_8
REMARK    4  A    between atoms: C_8  and  N_9
REMARK    5  A    between atoms: C_12  and  C_13
REMARK    6  A    between atoms: C_13  and  O_15
REMARK    7  A    between atoms: O_15  and  C_16
REMARK                            x       y       z     vdW  Elec       q    Type
REMARK                         _______ _______ _______ _____ _____    ______ ____
ROOT
ATOM      1  N   UNL     1      36.592   5.139  14.327  0.00  0.00    +0.000 N 
ATOM      2  C   UNL     1      36.176   6.176  13.561  0.00  0.00    +0.000 A 
ATOM      3  N   UNL     1      35.429   6.042  12.367  0.00  0.00    +0.000 NA
ATOM      4  C   UNL     1      36.583   7.371  14.105  0.00  0.00    +0.000 A 
ATOM      5  C   UNL     1      37.276   7.057  15.253  0.00  0.00    +0.000 A 
ATOM      6  N   UNL     1      37.883   7.802  16.163  0.00  0.00    +0.000 NA
ATOM      7  C   UNL     1      38.504   7.209  17.219  0.00  0.00    +0.000 A 
ATOM      8  C   UNL     1      39.129   7.974  18.158  0.00  0.00    +0.000 A 
ATOM      9  C   UNL     1      39.754   7.379  19.221  0.00  0.00    +0.000 A 
ATOM     10  C   UNL     1      39.753   6.009  19.345  0.00  0.00    +0.000 A 
ATOM     11  C   UNL     1      39.113   5.255  18.382  0.00  0.00    +0.000 A 
ATOM     12  C   UNL     1      38.479   5.849  17.306  0.00  0.00    +0.000 A 
ATOM     13  N   UNL     1      37.872   5.075  16.397  0.00  0.00    +0.000 NA
ATOM     14  C   UNL     1      37.268   5.683  15.367  0.00  0.00    +0.000 A 
ENDROOT
BRANCH   4  15
ATOM     15  C   UNL     1      36.327   8.723  13.569  0.00  0.00    +0.000 C 
ATOM     16  O   UNL     1      37.292   9.417  13.154  0.00  0.00    +0.000 OA
BRANCH  15  17
ATOM     17  O   UNL     1      35.037   9.231  13.522  0.00  0.00    +0.000 OA
BRANCH  17  18
ATOM     18  C   UNL     1      34.490   9.722  14.714  0.00  0.00    +0.000 C 
ATOM     19  C   UNL     1      35.518  10.374  15.606  0.00  0.00    +0.000 C 
ATOM     20  C   UNL     1      34.926  10.822  16.906  0.00  0.00    +0.000 C 
ATOM     21  C   UNL     1      34.080   9.789  17.583  0.00  0.00    +0.000 C 
ATOM     22  C   UNL     1      33.031   9.190  16.668  0.00  0.00    +0.000 C 
ATOM     23  C   UNL     1      33.711   8.634  15.454  0.00  0.00    +0.000 C 
ENDBRANCH  17  18
ENDBRANCH  15  17
ENDBRANCH   4  15
BRANCH   1  24
ATOM     24  C   UNL     1      36.365   3.732  14.090  0.00  0.00    +0.000 C 
BRANCH  24  25
ATOM     25  C   UNL     1      35.044   3.270  14.703  0.00  0.00    +0.000 C 
BRANCH  25  29
ATOM     26  C   UNL     1      35.906  -0.528  16.542  0.00  0.00    +0.000 A 
ATOM     27  C   UNL     1      35.134   0.434  17.187  0.00  0.00    +0.000 A 
ATOM     28  C   UNL     1      34.854   1.654  16.605  0.00  0.00    +0.000 A 
ATOM     29  C   UNL     1      35.340   1.952  15.349  0.00  0.00    +0.000 A 
ATOM     30  C   UNL     1      36.105   0.986  14.723  0.00  0.00    +0.000 A 
ATOM     31  C   UNL     1      36.391  -0.237  15.298  0.00  0.00    +0.000 A 
BRANCH  26  33
ATOM     32  C   UNL     1      35.465  -2.895  16.837  0.00  0.00    +0.000 C 
ATOM     33  O   UNL     1      36.132  -1.710  17.200  0.00  0.00    +0.000 OA
ENDBRANCH  26  33
ENDBRANCH  25  29
ENDBRANCH  24  25
ENDBRANCH   1  24
TORSDOF 7
ENDMDL
MODEL 10
REMARK VINA RESULT:      -6.9      2.934      5.670
REMARK  Name = 
REMARK  7 active torsions:
REMARK  status: ('A' for Active; 'I' for Inactive)
REMARK    1  A    between atoms: O_2  and  C_3
REMARK    2  A    between atoms: C_6  and  C_7
REMARK    3  A    between atoms: C_7  and  C_8
REMARK    4  A    between atoms: C_8  and  N_9
REMARK    5  A    between atoms: C_12  and  C_13
REMARK    6  A    between atoms: C_13  and  O_15
REMARK    7  A    between atoms: O_15  and  C_16
REMARK                            x       y       z     vdW  Elec       q    Type
REMARK                         _______ _______ _______ _____ _____    ______ ____
ROOT
ATOM      1  N   UNL     1      39.663   0.600  12.262  0.00  0.00    +0.000 N 
ATOM      2  C   UNL     1      39.258   1.232  13.390  0.00  0.00    +0.000 A 
ATOM      3  N   UNL     1      39.801   1.004  14.676  0.00  0.00    +0.000 NA
ATOM      4  C   UNL     1      38.247   2.119  13.108  0.00  0.00    +0.000 A 
ATOM      5  C   UNL     1      38.022   2.032  11.752  0.00  0.00    +0.000 A 
ATOM      6  N   UNL     1      37.174   2.650  10.944  0.00  0.00    +0.000 NA
ATOM      7  C   UNL     1      37.171   2.357   9.615  0.00  0.00    +0.000 A 
ATOM      8  C   UNL     1      36.300   2.993   8.781  0.00  0.00    +0.000 A 
ATOM      9  C   UNL     1      36.296   2.700   7.443  0.00  0.00    +0.000 A 
ATOM     10  C   UNL     1      37.170   1.765   6.937  0.00  0.00    +0.000 A 
ATOM     11  C   UNL     1      38.043   1.135   7.802  0.00  0.00    +0.000 A 
ATOM     12  C   UNL     1      38.053   1.426   9.153  0.00  0.00    +0.000 A 
ATOM     13  N   UNL     1      38.918   0.788   9.952  0.00  0.00    +0.000 NA
ATOM     14  C   UNL     1      38.901   1.093  11.256  0.00  0.00    +0.000 A 
ENDROOT
BRANCH   4  15
ATOM     15  C   UNL     1      37.542   2.996  14.066  0.00  0.00    +0.000 C 
ATOM     16  O   UNL     1      38.102   4.048  14.470  0.00  0.00    +0.000 OA
BRANCH  15  17
ATOM     17  O   UNL     1      36.273   2.667  14.521  0.00  0.00    +0.000 OA
BRANCH  17  18
ATOM     18  C   UNL     1      36.172   1.655  15.484  0.00  0.00    +0.000 C 
ATOM     19  C   UNL     1      36.073   0.277  14.876  0.00  0.00    +0.000 C 
ATOM     20  C   UNL     1      35.889  -0.782  15.919  0.00  0.00    +0.000 C 
ATOM     21  C   UNL     1      34.830  -0.469  16.930  0.00  0.00    +0.000 C 
ATOM     22  C   UNL     1      34.990   0.905  17.550  0.00  0.00    +0.000 C 
ATOM     23  C   UNL     1      35.023   1.927  16.454  0.00  0.00    +0.000 C 
ENDBRANCH  17  18
ENDBRANCH  15  17
ENDBRANCH   4  15
BRANCH   1  24
ATOM     24  C   UNL     1      40.699  -0.401  12.146  0.00  0.00    +0.000 C 
BRANCH  24  25
ATOM     25  C   UNL     1      40.107  -1.793  11.935  0.00  0.00    +0.000 C 
BRANCH  25  29
ATOM     26  C   UNL     1      39.232  -3.302  15.874  0.00  0.00    +0.000 A 
ATOM     27  C   UNL     1      40.523  -2.933  15.505  0.00  0.00    +0.000 A 
ATOM     28  C   UNL     1      40.813  -2.450  14.246  0.00  0.00    +0.000 A 
ATOM     29  C   UNL     1      39.811  -2.317  13.307  0.00  0.00    +0.000 A 
ATOM     30  C   UNL     1      38.535  -2.688  13.687  0.00  0.00    +0.000 A 
ATOM     31  C   UNL     1      38.237  -3.173  14.946  0.00  0.00    +0.000 A 
BRANCH  26  33
ATOM     32  C   UNL     1      38.685  -2.916  18.205  0.00  0.00    +0.000 C 
ATOM     33  O   UNL     1      39.042  -3.773  17.147  0.00  0.00    +0.000 OA
ENDBRANCH  26  33
ENDBRANCH  25  29
ENDBRANCH  24  25
ENDBRANCH   1  24
TORSDOF 7
ENDMDL
