MODEL 1
REMARK VINA RESULT:      -8.1      0.000      0.000
REMARK  Name = 
REMARK  6 active torsions:
REMARK  status: ('A' for Active; 'I' for Inactive)
REMARK    1  A    between atoms: O_2  and  C_3
REMARK    2  A    between atoms: C_8  and  N_9
REMARK    3  A    between atoms: C_10  and  C_12
REMARK    4  A    between atoms: C_13  and  N_14
REMARK    5  A    between atoms: C_15  and  C_17
REMARK    6  A    between atoms: C_28  and  C_29
REMARK                            x       y       z     vdW  Elec       q    Type
REMARK                         _______ _______ _______ _____ _____    ______ ____
ROOT
ATOM      1  C   UNL     1      37.695   4.318  15.447  0.00  0.00    +0.000 A 
ATOM      2  C   UNL     1      37.713   4.984  14.250  0.00  0.00    +0.000 A 
ATOM      3  S   UNL     1      38.560   6.417  14.615  0.00  0.00    +0.000 S 
ATOM      4  C   UNL     1      38.871   6.141  16.267  0.00  0.00    +0.000 A 
ATOM      5  C   UNL     1      38.299   4.932  16.481  0.00  0.00    +0.000 A 
ATOM      6  C   UNL     1      38.413   4.405  17.898  0.00  0.00    +0.000 C 
ATOM      7  C   UNL     1      39.010   5.363  18.802  0.00  0.00    +0.000 C 
ATOM      8  C   UNL     1      40.416   5.904  18.118  0.00  0.00    +0.000 C 
ATOM      9  C   UNL     1      39.585   7.005  17.236  0.00  0.00    +0.000 C 
ENDROOT
BRANCH   8  10
ATOM     10  C   UNL     1      40.730   6.910  19.383  0.00  0.00    +0.000 C 
ATOM     11  C   UNL     1      39.446   7.157  20.073  0.00  0.00    +0.000 C 
ATOM     12  C   UNL     1      41.166   8.219  18.711  0.00  0.00    +0.000 C 
ATOM     13  C   UNL     1      41.835   6.379  20.158  0.00  0.00    +0.000 C 
ENDBRANCH   8  10
BRANCH   1  15
ATOM     14  N   UNL     1      37.765   1.781  15.554  0.00  0.00    +0.000 NA
ATOM     15  C   UNL     1      37.023   2.989  15.524  0.00  0.00    +0.000 C 
ATOM     16  O   UNL     1      35.787   2.869  15.565  0.00  0.00    +0.000 OA
BRANCH  14  22
ATOM     17  C   UNL     1      36.638  -0.029  16.774  0.00  0.00    +0.000 A 
ATOM     18  C   UNL     1      36.045  -1.288  16.749  0.00  0.00    +0.000 A 
ATOM     19  C   UNL     1      35.953  -2.014  15.591  0.00  0.00    +0.000 A 
ATOM     20  C   UNL     1      36.466  -1.476  14.418  0.00  0.00    +0.000 A 
ATOM     21  C   UNL     1      37.051  -0.226  14.457  0.00  0.00    +0.000 A 
ATOM     22  C   UNL     1      37.140   0.500  15.627  0.00  0.00    +0.000 A 
BRANCH  17  24
ATOM     23  C   UNL     1      36.037   0.253  19.078  0.00  0.00    +0.000 C 
ATOM     24  O   UNL     1      36.734   0.712  17.942  0.00  0.00    +0.000 OA
ENDBRANCH  17  24
ENDBRANCH  14  22
ENDBRANCH   1  15
BRANCH   2  25
ATOM     25  N   UNL     1      37.156   4.574  13.006  0.00  0.00    +0.000 NA
ATOM     26  C   UNL     1      37.936   3.844  12.061  0.00  0.00    +0.000 C 
ATOM     27  O   UNL     1      39.110   3.572  12.343  0.00  0.00    +0.000 OA
BRANCH  26  28
ATOM     28  C   UNL     1      37.357   3.427  10.789  0.00  0.00    +0.000 A 
ATOM     29  C   UNL     1      36.744   4.363   9.981  0.00  0.00    +0.000 A 
ATOM     30  C   UNL     1      36.178   4.030   8.767  0.00  0.00    +0.000 A 
ATOM     31  C   UNL     1      36.209   2.715   8.315  0.00  0.00    +0.000 A 
ATOM     32  C   UNL     1      36.822   1.803   9.136  0.00  0.00    +0.000 A 
ATOM     33  C   UNL     1      37.387   2.129  10.344  0.00  0.00    +0.000 A 
ENDBRANCH  26  28
ENDBRANCH   2  25
TORSDOF 6
ENDMDL
MODEL 2
REMARK VINA RESULT:      -7.9      2.539      3.151
REMARK  Name = 
REMARK  6 active torsions:
REMARK  status: ('A' for Active; 'I' for Inactive)
REMARK    1  A    between atoms: O_2  and  C_3
REMARK    2  A    between atoms: C_8  and  N_9
REMARK    3  A    between atoms: C_10  and  C_12
REMARK    4  A    between atoms: C_13  and  N_14
REMARK    5  A    between atoms: C_15  and  C_17
REMARK    6  A    between atoms: C_28  and  C_29
REMARK                            x       y       z     vdW  Elec       q    Type
REMARK                         _______ _______ _______ _____ _____    ______ ____
ROOT
ATOM      1  C   UNL     1      38.416   2.640  14.962  0.00  0.00    +0.000 A 
ATOM      2  C   UNL     1      39.187   2.653  13.830  0.00  0.00    +0.000 A 
ATOM      3  S   UNL     1      40.056   4.112  13.969  0.00  0.00    +0.000 S 
ATOM      4  C   UNL     1      39.427   4.670  15.450  0.00  0.00    +0.000 A 
ATOM      5  C   UNL     1      38.553   3.693  15.789  0.00  0.00    +0.000 A 
ATOM      6  C   UNL     1      37.815   3.910  17.096  0.00  0.00    +0.000 C 
ATOM      7  C   UNL     1      38.093   5.203  17.684  0.00  0.00    +0.000 C 
ATOM      8  C   UNL     1      39.735   5.396  17.741  0.00  0.00    +0.000 C 
ATOM      9  C   UNL     1      39.748   5.914  16.188  0.00  0.00    +0.000 C 
ENDROOT
BRANCH   8  10
ATOM     10  C   UNL     1      39.610   6.893  18.413  0.00  0.00    +0.000 C 
ATOM     11  C   UNL     1      40.638   7.744  17.777  0.00  0.00    +0.000 C 
ATOM     12  C   UNL     1      40.016   6.673  19.876  0.00  0.00    +0.000 C 
ATOM     13  C   UNL     1      38.228   7.330  18.360  0.00  0.00    +0.000 C 
ENDBRANCH   8  10
BRANCH   1  15
ATOM     14  N   UNL     1      37.981   0.230  15.634  0.00  0.00    +0.000 NA
ATOM     15  C   UNL     1      37.498   1.489  15.196  0.00  0.00    +0.000 C 
ATOM     16  O   UNL     1      36.270   1.570  15.022  0.00  0.00    +0.000 OA
BRANCH  14  22
ATOM     17  C   UNL     1      36.632  -1.220  17.088  0.00  0.00    +0.000 A 
ATOM     18  C   UNL     1      35.795  -2.326  17.215  0.00  0.00    +0.000 A 
ATOM     19  C   UNL     1      35.445  -3.088  16.133  0.00  0.00    +0.000 A 
ATOM     20  C   UNL     1      35.940  -2.747  14.882  0.00  0.00    +0.000 A 
ATOM     21  C   UNL     1      36.769  -1.648  14.770  0.00  0.00    +0.000 A 
ATOM     22  C   UNL     1      37.118  -0.884  15.864  0.00  0.00    +0.000 A 
BRANCH  17  24
ATOM     23  C   UNL     1      35.999   0.361  18.776  0.00  0.00    +0.000 C 
ATOM     24  O   UNL     1      36.990  -0.444  18.180  0.00  0.00    +0.000 OA
ENDBRANCH  17  24
ENDBRANCH  14  22
ENDBRANCH   1  15
BRANCH   2  25
ATOM     25  N   UNL     1      39.244   1.681  12.792  0.00  0.00    +0.000 NA
ATOM     26  C   UNL     1      40.187   0.612  12.842  0.00  0.00    +0.000 C 
ATOM     27  O   UNL     1      40.957   0.545  13.808  0.00  0.00    +0.000 OA
BRANCH  26  28
ATOM     28  C   UNL     1      40.237  -0.380  11.774  0.00  0.00    +0.000 A 
ATOM     29  C   UNL     1      40.512   0.023  10.483  0.00  0.00    +0.000 A 
ATOM     30  C   UNL     1      40.573  -0.868   9.431  0.00  0.00    +0.000 A 
ATOM     31  C   UNL     1      40.354  -2.225   9.646  0.00  0.00    +0.000 A 
ATOM     32  C   UNL     1      40.082  -2.601  10.937  0.00  0.00    +0.000 A 
ATOM     33  C   UNL     1      40.021  -1.718  11.987  0.00  0.00    +0.000 A 
ENDBRANCH  26  28
ENDBRANCH   2  25
TORSDOF 6
ENDMDL
MODEL 3
REMARK VINA RESULT:      -7.8      4.611      7.539
REMARK  Name = 
REMARK  6 active torsions:
REMARK  status: ('A' for Active; 'I' for Inactive)
REMARK    1  A    between atoms: O_2  and  C_3
REMARK    2  A    between atoms: C_8  and  N_9
REMARK    3  A    between atoms: C_10  and  C_12
REMARK    4  A    between atoms: C_13  and  N_14
REMARK    5  A    between atoms: C_15  and  C_17
REMARK    6  A    between atoms: C_28  and  C_29
REMARK                            x       y       z     vdW  Elec       q    Type
REMARK                         _______ _______ _______ _____ _____    ______ ____
ROOT
ATOM      1  C   UNL     1      39.498  -0.760  14.515  0.00  0.00    +0.000 A 
ATOM      2  C   UNL     1      39.080  -1.949  15.051  0.00  0.00    +0.000 A 
ATOM      3  S   UNL     1      40.526  -2.836  15.207  0.00  0.00    +0.000 S 
ATOM      4  C   UNL     1      41.624  -1.687  14.593  0.00  0.00    +0.000 A 
ATOM      5  C   UNL     1      40.819  -0.642  14.284  0.00  0.00    +0.000 A 
ATOM      6  C   UNL     1      41.525   0.566  13.699  0.00  0.00    +0.000 C 
ATOM      7  C   UNL     1      42.931   0.327  13.459  0.00  0.00    +0.000 C 
ATOM      8  C   UNL     1      43.588  -0.293  14.846  0.00  0.00    +0.000 C 
ATOM      9  C   UNL     1      43.092  -1.797  14.432  0.00  0.00    +0.000 C 
ENDROOT
BRANCH   8  10
ATOM     10  C   UNL     1      45.083  -0.420  14.167  0.00  0.00    +0.000 C 
ATOM     11  C   UNL     1      45.003   0.186  12.821  0.00  0.00    +0.000 C 
ATOM     12  C   UNL     1      45.280  -1.932  13.996  0.00  0.00    +0.000 C 
ATOM     13  C   UNL     1      46.077   0.091  15.092  0.00  0.00    +0.000 C 
ENDBRANCH   8  10
BRANCH   1  15
ATOM     14  N   UNL     1      38.086   1.230  15.218  0.00  0.00    +0.000 NA
ATOM     15  C   UNL     1      38.488   0.298  14.228  0.00  0.00    +0.000 C 
ATOM     16  O   UNL     1      37.948   0.420  13.115  0.00  0.00    +0.000 OA
BRANCH  14  22
ATOM     17  C   UNL     1      35.785   2.087  15.156  0.00  0.00    +0.000 A 
ATOM     18  C   UNL     1      34.917   3.141  14.879  0.00  0.00    +0.000 A 
ATOM     19  C   UNL     1      35.377   4.345  14.416  0.00  0.00    +0.000 A 
ATOM     20  C   UNL     1      36.741   4.513  14.218  0.00  0.00    +0.000 A 
ATOM     21  C   UNL     1      37.589   3.460  14.497  0.00  0.00    +0.000 A 
ATOM     22  C   UNL     1      37.121   2.250  14.963  0.00  0.00    +0.000 A 
BRANCH  17  24
ATOM     23  C   UNL     1      34.889   0.790  16.963  0.00  0.00    +0.000 C 
ATOM     24  O   UNL     1      35.327   0.866  15.625  0.00  0.00    +0.000 OA
ENDBRANCH  17  24
ENDBRANCH  14  22
ENDBRANCH   1  15
BRANCH   2  25
ATOM     25  N   UNL     1      37.755  -2.344  15.391  0.00  0.00    +0.000 NA
ATOM     26  C   UNL     1      36.973  -3.128  14.493  0.00  0.00    +0.000 C 
ATOM     27  O   UNL     1      37.467  -3.459  13.408  0.00  0.00    +0.000 OA
BRANCH  26  28
ATOM     28  C   UNL     1      35.616  -3.528  14.850  0.00  0.00    +0.000 A 
ATOM     29  C   UNL     1      34.938  -2.834  15.831  0.00  0.00    +0.000 A 
ATOM     30  C   UNL     1      33.654  -3.166  16.212  0.00  0.00    +0.000 A 
ATOM     31  C   UNL     1      32.994  -4.230  15.607  0.00  0.00    +0.000 A 
ATOM     32  C   UNL     1      33.689  -4.905  14.636  0.00  0.00    +0.000 A 
ATOM     33  C   UNL     1      34.966  -4.579  14.252  0.00  0.00    +0.000 A 
ENDBRANCH  26  28
ENDBRANCH   2  25
TORSDOF 6
ENDMDL
MODEL 4
REMARK VINA RESULT:      -7.5      3.972      5.756
REMARK  Name = 
REMARK  6 active torsions:
REMARK  status: ('A' for Active; 'I' for Inactive)
REMARK    1  A    between atoms: O_2  and  C_3
REMARK    2  A    between atoms: C_8  and  N_9
REMARK    3  A    between atoms: C_10  and  C_12
REMARK    4  A    between atoms: C_13  and  N_14
REMARK    5  A    between atoms: C_15  and  C_17
REMARK    6  A    between atoms: C_28  and  C_29
REMARK                            x       y       z     vdW  Elec       q    Type
REMARK                         _______ _______ _______ _____ _____    ______ ____
ROOT
ATOM      1  C   UNL     1      37.373   2.838  13.864  0.00  0.00    +0.000 A 
ATOM      2  C   UNL     1      38.255   2.431  12.899  0.00  0.00    +0.000 A 
ATOM      3  S   UNL     1      37.959   3.517  11.619  0.00  0.00    +0.000 S 
ATOM      4  C   UNL     1      36.732   4.458  12.333  0.00  0.00    +0.000 A 
ATOM      5  C   UNL     1      36.591   3.889  13.554  0.00  0.00    +0.000 A 
ATOM      6  C   UNL     1      35.543   4.524  14.446  0.00  0.00    +0.000 C 
ATOM      7  C   UNL     1      34.787   5.555  13.770  0.00  0.00    +0.000 C 
ATOM      8  C   UNL     1      35.862   6.597  13.064  0.00  0.00    +0.000 C 
ATOM      9  C   UNL     1      35.995   5.610  11.765  0.00  0.00    +0.000 C 
ENDROOT
BRANCH   8  10
ATOM     10  C   UNL     1      34.658   7.531  12.440  0.00  0.00    +0.000 C 
ATOM     11  C   UNL     1      35.022   8.941  12.698  0.00  0.00    +0.000 C 
ATOM     12  C   UNL     1      33.441   7.189  13.309  0.00  0.00    +0.000 C 
ATOM     13  C   UNL     1      34.397   7.129  11.071  0.00  0.00    +0.000 C 
ENDBRANCH   8  10
BRANCH   1  15
ATOM     14  N   UNL     1      36.556   0.936  15.336  0.00  0.00    +0.000 NA
ATOM     15  C   UNL     1      37.337   2.107  15.164  0.00  0.00    +0.000 C 
ATOM     16  O   UNL     1      37.982   2.482  16.157  0.00  0.00    +0.000 OA
BRANCH  14  22
ATOM     17  C   UNL     1      37.179  -0.937  16.798  0.00  0.00    +0.000 A 
ATOM     18  C   UNL     1      37.071  -1.563  18.037  0.00  0.00    +0.000 A 
ATOM     19  C   UNL     1      36.302  -1.037  19.041  0.00  0.00    +0.000 A 
ATOM     20  C   UNL     1      35.615   0.147  18.812  0.00  0.00    +0.000 A 
ATOM     21  C   UNL     1      35.731   0.757  17.579  0.00  0.00    +0.000 A 
ATOM     22  C   UNL     1      36.508   0.223  16.571  0.00  0.00    +0.000 A 
BRANCH  17  24
ATOM     23  C   UNL     1      38.374  -2.805  15.885  0.00  0.00    +0.000 C 
ATOM     24  O   UNL     1      37.956  -1.463  15.777  0.00  0.00    +0.000 OA
ENDBRANCH  17  24
ENDBRANCH  14  22
ENDBRANCH   1  15
BRANCH   2  25
ATOM     25  N   UNL     1      39.189   1.358  12.955  0.00  0.00    +0.000 NA
ATOM     26  C   UNL     1      38.804   0.035  12.585  0.00  0.00    +0.000 C 
ATOM     27  O   UNL     1      37.641  -0.164  12.215  0.00  0.00    +0.000 OA
BRANCH  26  28
ATOM     28  C   UNL     1      39.768  -1.058  12.645  0.00  0.00    +0.000 A 
ATOM     29  C   UNL     1      40.719  -1.074  13.645  0.00  0.00    +0.000 A 
ATOM     30  C   UNL     1      41.656  -2.081  13.754  0.00  0.00    +0.000 A 
ATOM     31  C   UNL     1      41.670  -3.129  12.840  0.00  0.00    +0.000 A 
ATOM     32  C   UNL     1      40.716  -3.091  11.854  0.00  0.00    +0.000 A 
ATOM     33  C   UNL     1      39.781  -2.092  11.742  0.00  0.00    +0.000 A 
ENDBRANCH  26  28
ENDBRANCH   2  25
TORSDOF 6
ENDMDL
MODEL 5
REMARK VINA RESULT:      -7.3      1.670      7.476
REMARK  Name = 
REMARK  6 active torsions:
REMARK  status: ('A' for Active; 'I' for Inactive)
REMARK    1  A    between atoms: O_2  and  C_3
REMARK    2  A    between atoms: C_8  and  N_9
REMARK    3  A    between atoms: C_10  and  C_12
REMARK    4  A    between atoms: C_13  and  N_14
REMARK    5  A    between atoms: C_15  and  C_17
REMARK    6  A    between atoms: C_28  and  C_29
REMARK                            x       y       z     vdW  Elec       q    Type
REMARK                         _______ _______ _______ _____ _____    ______ ____
ROOT
ATOM      1  C   UNL     1      37.856   3.165  13.434  0.00  0.00    +0.000 A 
ATOM      2  C   UNL     1      38.228   4.418  13.843  0.00  0.00    +0.000 A 
ATOM      3  S   UNL     1      38.384   5.275  12.379  0.00  0.00    +0.000 S 
ATOM      4  C   UNL     1      37.976   4.034  11.286  0.00  0.00    +0.000 A 
ATOM      5  C   UNL     1      37.731   2.984  12.106  0.00  0.00    +0.000 A 
ATOM      6  C   UNL     1      37.334   1.698  11.408  0.00  0.00    +0.000 C 
ATOM      7  C   UNL     1      37.416   1.798   9.967  0.00  0.00    +0.000 C 
ATOM      8  C   UNL     1      36.593   3.156   9.502  0.00  0.00    +0.000 C 
ATOM      9  C   UNL     1      37.908   4.081   9.807  0.00  0.00    +0.000 C 
ENDROOT
BRANCH   8  10
ATOM     10  C   UNL     1      36.933   2.906   7.910  0.00  0.00    +0.000 C 
ATOM     11  C   UNL     1      37.391   1.506   7.778  0.00  0.00    +0.000 C 
ATOM     12  C   UNL     1      38.133   3.824   7.644  0.00  0.00    +0.000 C 
ATOM     13  C   UNL     1      35.809   3.340   7.103  0.00  0.00    +0.000 C 
ENDBRANCH   8  10
BRANCH   1  15
ATOM     14  N   UNL     1      36.312   1.688  14.806  0.00  0.00    +0.000 NA
ATOM     15  C   UNL     1      37.621   2.110  14.461  0.00  0.00    +0.000 C 
ATOM     16  O   UNL     1      38.551   1.549  15.064  0.00  0.00    +0.000 OA
BRANCH  14  22
ATOM     17  C   UNL     1      36.139  -0.653  15.531  0.00  0.00    +0.000 A 
ATOM     18  C   UNL     1      35.882  -1.564  16.552  0.00  0.00    +0.000 A 
ATOM     19  C   UNL     1      35.557  -1.150  17.817  0.00  0.00    +0.000 A 
ATOM     20  C   UNL     1      35.483   0.211  18.080  0.00  0.00    +0.000 A 
ATOM     21  C   UNL     1      35.740   1.103  17.059  0.00  0.00    +0.000 A 
ATOM     22  C   UNL     1      36.067   0.680  15.787  0.00  0.00    +0.000 A 
BRANCH  17  24
ATOM     23  C   UNL     1      37.662  -1.791  14.070  0.00  0.00    +0.000 C 
ATOM     24  O   UNL     1      36.468  -1.065  14.248  0.00  0.00    +0.000 OA
ENDBRANCH  17  24
ENDBRANCH  14  22
ENDBRANCH   1  15
BRANCH   2  25
ATOM     25  N   UNL     1      38.434   4.885  15.172  0.00  0.00    +0.000 NA
ATOM     26  C   UNL     1      39.742   5.222  15.633  0.00  0.00    +0.000 C 
ATOM     27  O   UNL     1      40.696   5.099  14.855  0.00  0.00    +0.000 OA
BRANCH  26  28
ATOM     28  C   UNL     1      39.944   5.701  16.995  0.00  0.00    +0.000 A 
ATOM     29  C   UNL     1      41.172   6.213  17.361  0.00  0.00    +0.000 A 
ATOM     30  C   UNL     1      41.424   6.681  18.635  0.00  0.00    +0.000 A 
ATOM     31  C   UNL     1      40.429   6.649  19.605  0.00  0.00    +0.000 A 
ATOM     32  C   UNL     1      39.217   6.134  19.218  0.00  0.00    +0.000 A 
ATOM     33  C   UNL     1      38.961   5.668  17.952  0.00  0.00    +0.000 A 
ENDBRANCH  26  28
ENDBRANCH   2  25
TORSDOF 6
ENDMDL
MODEL 6
REMARK VINA RESULT:      -6.9     26.819     30.946
REMARK  Name = 
REMARK  6 active torsions:
REMARK  status: ('A' for Active; 'I' for Inactive)
REMARK    1  A    between atoms: O_2  and  C_3
REMARK    2  A    between atoms: C_8  and  N_9
REMARK    3  A    between atoms: C_10  and  C_12
REMARK    4  A    between atoms: C_13  and  N_14
REMARK    5  A    between atoms: C_15  and  C_17
REMARK    6  A    between atoms: C_28  and  C_29
REMARK                            x       y       z     vdW  Elec       q    Type
REMARK                         _______ _______ _______ _____ _____    ______ ____
ROOT
ATOM      1  C   UNL     1      25.433  15.462  39.360  0.00  0.00    +0.000 A 
ATOM      2  C   UNL     1      24.404  16.233  39.833  0.00  0.00    +0.000 A 
ATOM      3  S   UNL     1      23.938  17.140  38.467  0.00  0.00    +0.000 S 
ATOM      4  C   UNL     1      25.051  16.526  37.334  0.00  0.00    +0.000 A 
ATOM      5  C   UNL     1      25.755  15.628  38.063  0.00  0.00    +0.000 A 
ATOM      6  C   UNL     1      26.849  14.897  37.310  0.00  0.00    +0.000 C 
ATOM      7  C   UNL     1      27.025  15.395  35.963  0.00  0.00    +0.000 C 
ATOM      8  C   UNL     1      25.540  15.426  35.232  0.00  0.00    +0.000 C 
ATOM      9  C   UNL     1      25.217  16.882  35.906  0.00  0.00    +0.000 C 
ENDROOT
BRANCH   8  10
ATOM     10  C   UNL     1      26.162  16.027  33.830  0.00  0.00    +0.000 C 
ATOM     11  C   UNL     1      25.581  17.373  33.639  0.00  0.00    +0.000 C 
ATOM     12  C   UNL     1      25.586  15.104  32.749  0.00  0.00    +0.000 C 
ATOM     13  C   UNL     1      27.606  15.899  33.850  0.00  0.00    +0.000 C 
ENDBRANCH   8  10
BRANCH   1  15
ATOM     14  N   UNL     1      25.865  13.120  40.241  0.00  0.00    +0.000 NA
ATOM     15  C   UNL     1      26.112  14.515  40.290  0.00  0.00    +0.000 C 
ATOM     16  O   UNL     1      26.924  14.895  41.151  0.00  0.00    +0.000 OA
BRANCH  14  22
ATOM     17  C   UNL     1      25.967  11.785  42.301  0.00  0.00    +0.000 A 
ATOM     18  C   UNL     1      26.666  10.881  43.097  0.00  0.00    +0.000 A 
ATOM     19  C   UNL     1      27.890  10.393  42.722  0.00  0.00    +0.000 A 
ATOM     20  C   UNL     1      28.442  10.814  41.519  0.00  0.00    +0.000 A 
ATOM     21  C   UNL     1      27.737  11.710  40.740  0.00  0.00    +0.000 A 
ATOM     22  C   UNL     1      26.505  12.198  41.123  0.00  0.00    +0.000 A 
BRANCH  17  24
ATOM     23  C   UNL     1      24.676  13.204  43.739  0.00  0.00    +0.000 C 
ATOM     24  O   UNL     1      24.728  12.283  42.674  0.00  0.00    +0.000 OA
ENDBRANCH  17  24
ENDBRANCH  14  22
ENDBRANCH   1  15
BRANCH   2  25
ATOM     25  N   UNL     1      23.860  16.266  41.148  0.00  0.00    +0.000 NA
ATOM     26  C   UNL     1      22.686  15.523  41.472  0.00  0.00    +0.000 C 
ATOM     27  O   UNL     1      22.147  14.848  40.586  0.00  0.00    +0.000 OA
BRANCH  26  28
ATOM     28  C   UNL     1      22.137  15.561  42.822  0.00  0.00    +0.000 A 
ATOM     29  C   UNL     1      22.567  16.531  43.705  0.00  0.00    +0.000 A 
ATOM     30  C   UNL     1      22.084  16.618  44.995  0.00  0.00    +0.000 A 
ATOM     31  C   UNL     1      21.132  15.713  45.452  0.00  0.00    +0.000 A 
ATOM     32  C   UNL     1      20.721  14.758  44.557  0.00  0.00    +0.000 A 
ATOM     33  C   UNL     1      21.197  14.668  43.272  0.00  0.00    +0.000 A 
ENDBRANCH  26  28
ENDBRANCH   2  25
TORSDOF 6
ENDMDL
MODEL 7
REMARK VINA RESULT:      -6.8     23.201     25.538
REMARK  Name = 
REMARK  6 active torsions:
REMARK  status: ('A' for Active; 'I' for Inactive)
REMARK    1  A    between atoms: O_2  and  C_3
REMARK    2  A    between atoms: C_8  and  N_9
REMARK    3  A    between atoms: C_10  and  C_12
REMARK    4  A    between atoms: C_13  and  N_14
REMARK    5  A    between atoms: C_15  and  C_17
REMARK    6  A    between atoms: C_28  and  C_29
REMARK                            x       y       z     vdW  Elec       q    Type
REMARK                         _______ _______ _______ _____ _____    ______ ____
ROOT
ATOM      1  C   UNL     1      16.478  -0.796   3.877  0.00  0.00    +0.000 A 
ATOM      2  C   UNL     1      17.483  -1.462   3.227  0.00  0.00    +0.000 A 
ATOM      3  S   UNL     1      17.635  -2.905   4.121  0.00  0.00    +0.000 S 
ATOM      4  C   UNL     1      16.427  -2.633   5.292  0.00  0.00    +0.000 A 
ATOM      5  C   UNL     1      15.943  -1.417   4.944  0.00  0.00    +0.000 A 
ATOM      6  C   UNL     1      14.827  -0.889   5.825  0.00  0.00    +0.000 C 
ATOM      7  C   UNL     1      14.569  -1.740   6.966  0.00  0.00    +0.000 C 
ATOM      8  C   UNL     1      14.385  -3.290   6.416  0.00  0.00    +0.000 C 
ATOM      9  C   UNL     1      16.008  -3.503   6.415  0.00  0.00    +0.000 C 
ENDROOT
BRANCH   8  10
ATOM     10  C   UNL     1      14.143  -3.878   7.935  0.00  0.00    +0.000 C 
ATOM     11  C   UNL     1      15.328  -4.692   8.281  0.00  0.00    +0.000 C 
ATOM     12  C   UNL     1      12.947  -4.825   7.775  0.00  0.00    +0.000 C 
ATOM     13  C   UNL     1      13.776  -2.788   8.820  0.00  0.00    +0.000 C 
ENDBRANCH   8  10
BRANCH   1  15
ATOM     14  N   UNL     1      14.939   0.691   2.508  0.00  0.00    +0.000 NA
ATOM     15  C   UNL     1      16.054   0.542   3.371  0.00  0.00    +0.000 C 
ATOM     16  O   UNL     1      16.650   1.588   3.677  0.00  0.00    +0.000 OA
BRANCH  14  22
ATOM     17  C   UNL     1      15.045   2.552   0.909  0.00  0.00    +0.000 A 
ATOM     18  C   UNL     1      14.570   3.796   0.501  0.00  0.00    +0.000 A 
ATOM     19  C   UNL     1      13.580   4.446   1.189  0.00  0.00    +0.000 A 
ATOM     20  C   UNL     1      13.040   3.845   2.319  0.00  0.00    +0.000 A 
ATOM     21  C   UNL     1      13.520   2.611   2.711  0.00  0.00    +0.000 A 
ATOM     22  C   UNL     1      14.518   1.962   2.014  0.00  0.00    +0.000 A 
BRANCH  17  24
ATOM     23  C   UNL     1      16.744   2.597  -0.783  0.00  0.00    +0.000 C 
ATOM     24  O   UNL     1      16.047   1.889   0.217  0.00  0.00    +0.000 OA
ENDBRANCH  17  24
ENDBRANCH  14  22
ENDBRANCH   1  15
BRANCH   2  25
ATOM     25  N   UNL     1      18.220  -1.045   2.083  0.00  0.00    +0.000 NA
ATOM     26  C   UNL     1      19.416  -0.281   2.224  0.00  0.00    +0.000 C 
ATOM     27  O   UNL     1      19.802   0.015   3.362  0.00  0.00    +0.000 OA
BRANCH  26  28
ATOM     28  C   UNL     1      20.166   0.142   1.046  0.00  0.00    +0.000 A 
ATOM     29  C   UNL     1      20.961  -0.770   0.382  0.00  0.00    +0.000 A 
ATOM     30  C   UNL     1      21.694  -0.430  -0.737  0.00  0.00    +0.000 A 
ATOM     31  C   UNL     1      21.652   0.867  -1.237  0.00  0.00    +0.000 A 
ATOM     32  C   UNL     1      20.856   1.756  -0.559  0.00  0.00    +0.000 A 
ATOM     33  C   UNL     1      20.124   1.422   0.554  0.00  0.00    +0.000 A 
ENDBRANCH  26  28
ENDBRANCH   2  25
TORSDOF 6
ENDMDL
MODEL 8
REMARK VINA RESULT:      -6.7      4.469      9.758
REMARK  Name = 
REMARK  6 active torsions:
REMARK  status: ('A' for Active; 'I' for Inactive)
REMARK    1  A    between atoms: O_2  and  C_3
REMARK    2  A    between atoms: C_8  and  N_9
REMARK    3  A    between atoms: C_10  and  C_12
REMARK    4  A    between atoms: C_13  and  N_14
REMARK    5  A    between atoms: C_15  and  C_17
REMARK    6  A    between atoms: C_28  and  C_29
REMARK                            x       y       z     vdW  Elec       q    Type
REMARK                         _______ _______ _______ _____ _____    ______ ____
ROOT
ATOM      1  C   UNL     1      35.376   6.842  12.986  0.00  0.00    +0.000 A 
ATOM      2  C   UNL     1      36.335   5.994  13.473  0.00  0.00    +0.000 A 
ATOM      3  S   UNL     1      36.843   5.144  12.086  0.00  0.00    +0.000 S 
ATOM      4  C   UNL     1      35.835   5.879  10.926  0.00  0.00    +0.000 A 
ATOM      5  C   UNL     1      35.130   6.768  11.664  0.00  0.00    +0.000 A 
ATOM      6  C   UNL     1      34.122   7.596  10.891  0.00  0.00    +0.000 C 
ATOM      7  C   UNL     1      34.009   7.186   9.508  0.00  0.00    +0.000 C 
ATOM      8  C   UNL     1      35.534   7.121   8.868  0.00  0.00    +0.000 C 
ATOM      9  C   UNL     1      35.744   5.614   9.471  0.00  0.00    +0.000 C 
ENDROOT
BRANCH   8  10
ATOM     10  C   UNL     1      34.976   6.634   7.398  0.00  0.00    +0.000 C 
ATOM     11  C   UNL     1      33.516   6.866   7.388  0.00  0.00    +0.000 C 
ATOM     12  C   UNL     1      35.215   5.119   7.399  0.00  0.00    +0.000 C 
ATOM     13  C   UNL     1      35.775   7.245   6.353  0.00  0.00    +0.000 C 
ENDBRANCH   8  10
BRANCH   1  15
ATOM     14  N   UNL     1      35.332   8.915  14.452  0.00  0.00    +0.000 NA
ATOM     15  C   UNL     1      34.684   7.767  13.928  0.00  0.00    +0.000 C 
ATOM     16  O   UNL     1      33.514   7.584  14.302  0.00  0.00    +0.000 OA
BRANCH  14  22
ATOM     17  C   UNL     1      34.350  11.089  15.037  0.00  0.00    +0.000 A 
ATOM     18  C   UNL     1      33.722  11.893  15.985  0.00  0.00    +0.000 A 
ATOM     19  C   UNL     1      33.433  11.427  17.240  0.00  0.00    +0.000 A 
ATOM     20  C   UNL     1      33.776  10.122  17.569  0.00  0.00    +0.000 A 
ATOM     21  C   UNL     1      34.398   9.337  16.619  0.00  0.00    +0.000 A 
ATOM     22  C   UNL     1      34.687   9.812  15.356  0.00  0.00    +0.000 A 
BRANCH  17  24
ATOM     23  C   UNL     1      34.406  12.914  13.482  0.00  0.00    +0.000 C 
ATOM     24  O   UNL     1      34.646  11.555  13.764  0.00  0.00    +0.000 OA
ENDBRANCH  17  24
ENDBRANCH  14  22
ENDBRANCH   1  15
BRANCH   2  25
ATOM     25  N   UNL     1      36.791   5.857  14.814  0.00  0.00    +0.000 NA
ATOM     26  C   UNL     1      37.935   6.575  15.273  0.00  0.00    +0.000 C 
ATOM     27  O   UNL     1      38.526   7.320  14.482  0.00  0.00    +0.000 OA
BRANCH  26  28
ATOM     28  C   UNL     1      38.395   6.431  16.650  0.00  0.00    +0.000 A 
ATOM     29  C   UNL     1      38.521   7.550  17.447  0.00  0.00    +0.000 A 
ATOM     30  C   UNL     1      38.951   7.477  18.756  0.00  0.00    +0.000 A 
ATOM     31  C   UNL     1      39.277   6.249  19.321  0.00  0.00    +0.000 A 
ATOM     32  C   UNL     1      39.145   5.151  18.509  0.00  0.00    +0.000 A 
ATOM     33  C   UNL     1      38.717   5.218  17.206  0.00  0.00    +0.000 A 
ENDBRANCH  26  28
ENDBRANCH   2  25
TORSDOF 6
ENDMDL
MODEL 9
REMARK VINA RESULT:      -6.7     29.102     31.135
REMARK  Name = 
REMARK  6 active torsions:
REMARK  status: ('A' for Active; 'I' for Inactive)
REMARK    1  A    between atoms: O_2  and  C_3
REMARK    2  A    between atoms: C_8  and  N_9
REMARK    3  A    between atoms: C_10  and  C_12
REMARK    4  A    between atoms: C_13  and  N_14
REMARK    5  A    between atoms: C_15  and  C_17
REMARK    6  A    between atoms: C_28  and  C_29
REMARK                            x       y       z     vdW  Elec       q    Type
REMARK                         _______ _______ _______ _____ _____    ______ ____
ROOT
ATOM      1  C   UNL     1      12.242  -1.082  30.851  0.00  0.00    +0.000 A 
ATOM      2  C   UNL     1      12.147  -0.660  32.151  0.00  0.00    +0.000 A 
ATOM      3  S   UNL     1      12.180  -2.115  33.037  0.00  0.00    +0.000 S 
ATOM      4  C   UNL     1      12.312  -3.221  31.748  0.00  0.00    +0.000 A 
ATOM      5  C   UNL     1      12.326  -2.413  30.662  0.00  0.00    +0.000 A 
ATOM      6  C   UNL     1      12.438  -3.124  29.328  0.00  0.00    +0.000 C 
ATOM      7  C   UNL     1      12.381  -4.564  29.458  0.00  0.00    +0.000 C 
ATOM      8  C   UNL     1      13.477  -5.016  30.613  0.00  0.00    +0.000 C 
ATOM      9  C   UNL     1      12.390  -4.699  31.796  0.00  0.00    +0.000 C 
ENDROOT
BRANCH   8  10
ATOM     10  C   UNL     1      13.092  -6.610  30.458  0.00  0.00    +0.000 C 
ATOM     11  C   UNL     1      11.746  -6.791  31.043  0.00  0.00    +0.000 C 
ATOM     12  C   UNL     1      14.103  -7.320  31.367  0.00  0.00    +0.000 C 
ATOM     13  C   UNL     1      13.306  -7.026  29.085  0.00  0.00    +0.000 C 
ENDBRANCH   8  10
BRANCH   1  15
ATOM     14  N   UNL     1      11.044   0.533  29.301  0.00  0.00    +0.000 NA
ATOM     15  C   UNL     1      12.244  -0.067  29.760  0.00  0.00    +0.000 C 
ATOM     16  O   UNL     1      13.288   0.305  29.198  0.00  0.00    +0.000 OA
BRANCH  14  22
ATOM     17  C   UNL     1      10.844   1.201  26.945  0.00  0.00    +0.000 A 
ATOM     18  C   UNL     1      10.841   2.219  25.996  0.00  0.00    +0.000 A 
ATOM     19  C   UNL     1      11.017   3.530  26.351  0.00  0.00    +0.000 A 
ATOM     20  C   UNL     1      11.202   3.845  27.690  0.00  0.00    +0.000 A 
ATOM     21  C   UNL     1      11.202   2.826  28.621  0.00  0.00    +0.000 A 
ATOM     22  C   UNL     1      11.025   1.507  28.257  0.00  0.00    +0.000 A 
BRANCH  17  24
ATOM     23  C   UNL     1      11.710  -0.777  25.901  0.00  0.00    +0.000 C 
ATOM     24  O   UNL     1      10.667  -0.129  26.593  0.00  0.00    +0.000 OA
ENDBRANCH  17  24
ENDBRANCH  14  22
ENDBRANCH   1  15
BRANCH   2  25
ATOM     25  N   UNL     1      12.045   0.674  32.638  0.00  0.00    +0.000 NA
ATOM     26  C   UNL     1      13.213   1.427  32.957  0.00  0.00    +0.000 C 
ATOM     27  O   UNL     1      14.321   0.898  32.804  0.00  0.00    +0.000 OA
BRANCH  26  28
ATOM     28  C   UNL     1      13.099   2.793  33.454  0.00  0.00    +0.000 A 
ATOM     29  C   UNL     1      14.238   3.556  33.617  0.00  0.00    +0.000 A 
ATOM     30  C   UNL     1      14.193   4.854  34.083  0.00  0.00    +0.000 A 
ATOM     31  C   UNL     1      12.976   5.443  34.409  0.00  0.00    +0.000 A 
ATOM     32  C   UNL     1      11.859   4.665  34.240  0.00  0.00    +0.000 A 
ATOM     33  C   UNL     1      11.897   3.373  33.775  0.00  0.00    +0.000 A 
ENDBRANCH  26  28
ENDBRANCH   2  25
TORSDOF 6
ENDMDL
MODEL 10
REMARK VINA RESULT:      -6.7     23.126     25.616
REMARK  Name = 
REMARK  6 active torsions:
REMARK  status: ('A' for Active; 'I' for Inactive)
REMARK    1  A    between atoms: O_2  and  C_3
REMARK    2  A    between atoms: C_8  and  N_9
REMARK    3  A    between atoms: C_10  and  C_12
REMARK    4  A    between atoms: C_13  and  N_14
REMARK    5  A    between atoms: C_15  and  C_17
REMARK    6  A    between atoms: C_28  and  C_29
REMARK                            x       y       z     vdW  Elec       q    Type
REMARK                         _______ _______ _______ _____ _____    ______ ____
ROOT
ATOM      1  C   UNL     1      18.253   0.061   2.177  0.00  0.00    +0.000 A 
ATOM      2  C   UNL     1      18.547  -1.000   2.992  0.00  0.00    +0.000 A 
ATOM      3  S   UNL     1      19.905  -1.704   2.241  0.00  0.00    +0.000 S 
ATOM      4  C   UNL     1      20.070  -0.643   0.918  0.00  0.00    +0.000 A 
ATOM      5  C   UNL     1      19.052   0.230   1.107  0.00  0.00    +0.000 A 
ATOM      6  C   UNL     1      18.935   1.322   0.062  0.00  0.00    +0.000 C 
ATOM      7  C   UNL     1      19.868   1.151  -1.030  0.00  0.00    +0.000 C 
ATOM      8  C   UNL     1      21.375   0.929  -0.383  0.00  0.00    +0.000 C 
ATOM      9  C   UNL     1      21.071  -0.666  -0.173  0.00  0.00    +0.000 C 
ENDROOT
BRANCH   8  10
ATOM     10  C   UNL     1      22.069   0.770  -1.868  0.00  0.00    +0.000 C 
ATOM     11  C   UNL     1      20.994   0.932  -2.870  0.00  0.00    +0.000 C 
ATOM     12  C   UNL     1      22.533  -0.692  -1.901  0.00  0.00    +0.000 C 
ATOM     13  C   UNL     1      23.225   1.642  -1.954  0.00  0.00    +0.000 C 
ENDBRANCH   8  10
BRANCH   1  15
ATOM     14  N   UNL     1      15.804   0.702   1.983  0.00  0.00    +0.000 NA
ATOM     15  C   UNL     1      17.095   0.936   2.520  0.00  0.00    +0.000 C 
ATOM     16  O   UNL     1      17.199   1.908   3.286  0.00  0.00    +0.000 OA
BRANCH  14  22
ATOM     17  C   UNL     1      14.403   2.694   1.659  0.00  0.00    +0.000 A 
ATOM     18  C   UNL     1      13.286   3.435   2.036  0.00  0.00    +0.000 A 
ATOM     19  C   UNL     1      12.455   3.017   3.041  0.00  0.00    +0.000 A 
ATOM     20  C   UNL     1      12.739   1.827   3.697  0.00  0.00    +0.000 A 
ATOM     21  C   UNL     1      13.850   1.103   3.312  0.00  0.00    +0.000 A 
ATOM     22  C   UNL     1      14.683   1.529   2.299  0.00  0.00    +0.000 A 
BRANCH  17  24
ATOM     23  C   UNL     1      14.707   3.267  -0.650  0.00  0.00    +0.000 C 
ATOM     24  O   UNL     1      15.248   3.112   0.642  0.00  0.00    +0.000 OA
ENDBRANCH  17  24
ENDBRANCH  14  22
ENDBRANCH   1  15
BRANCH   2  25
ATOM     25  N   UNL     1      17.875  -1.412   4.178  0.00  0.00    +0.000 NA
ATOM     26  C   UNL     1      16.763  -2.303   4.115  0.00  0.00    +0.000 C 
ATOM     27  O   UNL     1      16.391  -2.713   3.008  0.00  0.00    +0.000 OA
BRANCH  26  28
ATOM     28  C   UNL     1      16.081  -2.721   5.335  0.00  0.00    +0.000 A 
ATOM     29  C   UNL     1      16.393  -3.938   5.906  0.00  0.00    +0.000 A 
ATOM     30  C   UNL     1      15.782  -4.388   7.059  0.00  0.00    +0.000 A 
ATOM     31  C   UNL     1      14.816  -3.612   7.691  0.00  0.00    +0.000 A 
ATOM     32  C   UNL     1      14.522  -2.407   7.104  0.00  0.00    +0.000 A 
ATOM     33  C   UNL     1      15.127  -1.955   5.957  0.00  0.00    +0.000 A 
ENDBRANCH  26  28
ENDBRANCH   2  25
TORSDOF 6
ENDMDL
