MODEL 1
REMARK VINA RESULT:      -7.4      0.000      0.000
REMARK  Name = 
REMARK  9 active torsions:
REMARK  status: ('A' for Active; 'I' for Inactive)
REMARK    1  A    between atoms: C_2  and  O_3
REMARK    2  A    between atoms: O_3  and  C_4
REMARK    3  A    between atoms: C_7  and  N_8
REMARK    4  A    between atoms: C_11  and  N_12
REMARK    5  A    between atoms: N_12  and  C_13
REMARK    6  A    between atoms: C_18  and  O_19
REMARK    7  A    between atoms: O_19  and  C_20
REMARK    8  A    between atoms: C_22  and  S_23
REMARK    9  A    between atoms: S_23  and  C_24
REMARK                            x       y       z     vdW  Elec       q    Type
REMARK                         _______ _______ _______ _____ _____    ______ ____
ROOT
ATOM      1  N   UNL     1      36.981   3.509  15.964  0.00  0.00    +0.000 N 
ATOM      2  C   UNL     1      37.711   4.213  16.934  0.00  0.00    +0.000 C 
ATOM      3  O   UNL     1      38.087   3.690  18.012  0.00  0.00    +0.000 OA
ATOM      4  C   UNL     1      37.943   5.577  16.494  0.00  0.00    +0.000 C 
ATOM      5  C   UNL     1      37.374   5.729  15.282  0.00  0.00    +0.000 C 
ATOM      6  C   UNL     1      36.756   4.470  14.897  0.00  0.00    +0.000 C 
ATOM      7  O   UNL     1      36.124   4.172  13.853  0.00  0.00    +0.000 OA
ENDROOT
BRANCH   1  11
ATOM      8  C   UNL     1      35.639  -0.463  16.150  0.00  0.00    +0.000 A 
ATOM      9  C   UNL     1      34.925   0.533  16.766  0.00  0.00    +0.000 A 
ATOM     10  C   UNL     1      35.391   1.831  16.685  0.00  0.00    +0.000 A 
ATOM     11  C   UNL     1      36.549   2.156  16.005  0.00  0.00    +0.000 A 
ATOM     12  C   UNL     1      37.230   1.127  15.406  0.00  0.00    +0.000 A 
ATOM     13  C   UNL     1      36.789  -0.181  15.468  0.00  0.00    +0.000 A 
BRANCH   8  14
ATOM     14  O   UNL     1      35.137  -1.773  16.255  0.00  0.00    +0.000 OA
BRANCH  14  16
ATOM     15  C   UNL     1      34.393  -3.764  15.191  0.00  0.00    +0.000 C 
ATOM     16  C   UNL     1      35.520  -2.786  15.356  0.00  0.00    +0.000 C 
ENDBRANCH  14  16
ENDBRANCH   8  14
ENDBRANCH   1  11
BRANCH   4  17
ATOM     17  N   UNL     1      38.637   6.521  17.213  0.00  0.00    +0.000 NA
BRANCH  17  18
ATOM     18  C   UNL     1      38.362   7.375  18.257  0.00  0.00    +0.000 A 
ATOM     19  C   UNL     1      37.490   8.434  18.248  0.00  0.00    +0.000 A 
ATOM     20  C   UNL     1      37.281   9.253  19.351  0.00  0.00    +0.000 A 
ATOM     21  C   UNL     1      37.959   9.029  20.528  0.00  0.00    +0.000 A 
ATOM     22  C   UNL     1      38.840   7.975  20.571  0.00  0.00    +0.000 A 
ATOM     23  C   UNL     1      39.042   7.169  19.478  0.00  0.00    +0.000 A 
BRANCH  23  24
ATOM     24  O   UNL     1      39.921   6.121  19.541  0.00  0.00    +0.000 OA
BRANCH  24  25
ATOM     25  C   UNL     1      41.264   6.354  19.922  0.00  0.00    +0.000 C 
ATOM     26  C   UNL     1      42.025   6.525  18.597  0.00  0.00    +0.000 C 
ENDBRANCH  24  25
ENDBRANCH  23  24
ENDBRANCH  17  18
ENDBRANCH   4  17
BRANCH   5  27
ATOM     27  S   UNL     1      37.408   7.235  14.361  0.00  0.00    +0.000 S 
BRANCH  27  28
ATOM     28  C   UNL     1      36.113   8.382  14.661  0.00  0.00    +0.000 A 
ATOM     29  C   UNL     1      36.435   9.720  14.892  0.00  0.00    +0.000 A 
ATOM     30  C   UNL     1      35.459  10.624  15.122  0.00  0.00    +0.000 A 
ATOM     31  C   UNL     1      34.122  10.263  15.140  0.00  0.00    +0.000 A 
ATOM     32  C   UNL     1      33.792   8.932  14.911  0.00  0.00    +0.000 A 
ATOM     33  C   UNL     1      34.807   8.035  14.679  0.00  0.00    +0.000 A 
ENDBRANCH  27  28
ENDBRANCH   5  27
TORSDOF 9
ENDMDL
MODEL 2
REMARK VINA RESULT:      -7.3      2.927      9.304
REMARK  Name = 
REMARK  9 active torsions:
REMARK  status: ('A' for Active; 'I' for Inactive)
REMARK    1  A    between atoms: C_2  and  O_3
REMARK    2  A    between atoms: O_3  and  C_4
REMARK    3  A    between atoms: C_7  and  N_8
REMARK    4  A    between atoms: C_11  and  N_12
REMARK    5  A    between atoms: N_12  and  C_13
REMARK    6  A    between atoms: C_18  and  O_19
REMARK    7  A    between atoms: O_19  and  C_20
REMARK    8  A    between atoms: C_22  and  S_23
REMARK    9  A    between atoms: S_23  and  C_24
REMARK                            x       y       z     vdW  Elec       q    Type
REMARK                         _______ _______ _______ _____ _____    ______ ____
ROOT
ATOM      1  N   UNL     1      38.197   3.610  16.060  0.00  0.00    +0.000 N 
ATOM      2  C   UNL     1      37.277   2.573  16.275  0.00  0.00    +0.000 C 
ATOM      3  O   UNL     1      36.473   2.569  17.241  0.00  0.00    +0.000 OA
ATOM      4  C   UNL     1      37.410   1.563  15.242  0.00  0.00    +0.000 C 
ATOM      5  C   UNL     1      38.388   1.951  14.399  0.00  0.00    +0.000 C 
ATOM      6  C   UNL     1      38.920   3.224  14.859  0.00  0.00    +0.000 C 
ATOM      7  O   UNL     1      39.833   3.936  14.372  0.00  0.00    +0.000 OA
ENDROOT
BRANCH   1  11
ATOM      8  C   UNL     1      38.754   7.128  18.279  0.00  0.00    +0.000 A 
ATOM      9  C   UNL     1      38.249   7.192  17.006  0.00  0.00    +0.000 A 
ATOM     10  C   UNL     1      38.075   6.017  16.302  0.00  0.00    +0.000 A 
ATOM     11  C   UNL     1      38.392   4.783  16.839  0.00  0.00    +0.000 A 
ATOM     12  C   UNL     1      38.894   4.769  18.115  0.00  0.00    +0.000 A 
ATOM     13  C   UNL     1      39.078   5.928  18.845  0.00  0.00    +0.000 A 
BRANCH   8  14
ATOM     14  O   UNL     1      38.920   8.345  18.967  0.00  0.00    +0.000 OA
BRANCH  14  16
ATOM     15  C   UNL     1      41.232   8.892  19.038  0.00  0.00    +0.000 C 
ATOM     16  C   UNL     1      39.868   9.301  18.560  0.00  0.00    +0.000 C 
ENDBRANCH  14  16
ENDBRANCH   8  14
ENDBRANCH   1  11
BRANCH   4  17
ATOM     17  N   UNL     1      36.646   0.423  15.161  0.00  0.00    +0.000 NA
BRANCH  17  18
ATOM     18  C   UNL     1      36.877  -0.934  15.211  0.00  0.00    +0.000 A 
ATOM     19  C   UNL     1      36.724  -1.833  14.187  0.00  0.00    +0.000 A 
ATOM     20  C   UNL     1      36.972  -3.193  14.330  0.00  0.00    +0.000 A 
ATOM     21  C   UNL     1      37.391  -3.706  15.537  0.00  0.00    +0.000 A 
ATOM     22  C   UNL     1      37.555  -2.831  16.584  0.00  0.00    +0.000 A 
ATOM     23  C   UNL     1      37.308  -1.487  16.436  0.00  0.00    +0.000 A 
BRANCH  23  24
ATOM     24  O   UNL     1      37.481  -0.631  17.491  0.00  0.00    +0.000 OA
BRANCH  24  25
ATOM     25  C   UNL     1      36.997  -0.989  18.771  0.00  0.00    +0.000 C 
ATOM     26  C   UNL     1      35.555  -0.458  18.810  0.00  0.00    +0.000 C 
ENDBRANCH  24  25
ENDBRANCH  23  24
ENDBRANCH  17  18
ENDBRANCH   4  17
BRANCH   5  27
ATOM     27  S   UNL     1      38.895   1.023  12.986  0.00  0.00    +0.000 S 
BRANCH  27  28
ATOM     28  C   UNL     1      39.736  -0.489  13.284  0.00  0.00    +0.000 A 
ATOM     29  C   UNL     1      40.371  -0.678  14.512  0.00  0.00    +0.000 A 
ATOM     30  C   UNL     1      41.023  -1.834  14.769  0.00  0.00    +0.000 A 
ATOM     31  C   UNL     1      41.086  -2.856  13.838  0.00  0.00    +0.000 A 
ATOM     32  C   UNL     1      40.456  -2.675  12.612  0.00  0.00    +0.000 A 
ATOM     33  C   UNL     1      39.801  -1.490  12.379  0.00  0.00    +0.000 A 
ENDBRANCH  27  28
ENDBRANCH   5  27
TORSDOF 9
ENDMDL
MODEL 3
REMARK VINA RESULT:      -7.1     24.209     26.756
REMARK  Name = 
REMARK  9 active torsions:
REMARK  status: ('A' for Active; 'I' for Inactive)
REMARK    1  A    between atoms: C_2  and  O_3
REMARK    2  A    between atoms: O_3  and  C_4
REMARK    3  A    between atoms: C_7  and  N_8
REMARK    4  A    between atoms: C_11  and  N_12
REMARK    5  A    between atoms: N_12  and  C_13
REMARK    6  A    between atoms: C_18  and  O_19
REMARK    7  A    between atoms: O_19  and  C_20
REMARK    8  A    between atoms: C_22  and  S_23
REMARK    9  A    between atoms: S_23  and  C_24
REMARK                            x       y       z     vdW  Elec       q    Type
REMARK                         _______ _______ _______ _____ _____    ______ ____
ROOT
ATOM      1  N   UNL     1      15.068  -0.083  27.007  0.00  0.00    +0.000 N 
ATOM      2  C   UNL     1      13.761  -0.230  26.519  0.00  0.00    +0.000 C 
ATOM      3  O   UNL     1      13.511  -0.473  25.313  0.00  0.00    +0.000 OA
ATOM      4  C   UNL     1      12.803  -0.061  27.596  0.00  0.00    +0.000 C 
ATOM      5  C   UNL     1      13.487   0.186  28.732  0.00  0.00    +0.000 C 
ATOM      6  C   UNL     1      14.908   0.186  28.427  0.00  0.00    +0.000 C 
ATOM      7  O   UNL     1      15.892   0.371  29.186  0.00  0.00    +0.000 OA
ENDROOT
BRANCH   1  11
ATOM      8  C   UNL     1      18.668  -0.253  24.857  0.00  0.00    +0.000 A 
ATOM      9  C   UNL     1      18.145   0.960  25.225  0.00  0.00    +0.000 A 
ATOM     10  C   UNL     1      16.960   0.983  25.935  0.00  0.00    +0.000 A 
ATOM     11  C   UNL     1      16.288  -0.173  26.283  0.00  0.00    +0.000 A 
ATOM     12  C   UNL     1      16.849  -1.362  25.892  0.00  0.00    +0.000 A 
ATOM     13  C   UNL     1      18.034  -1.418  25.183  0.00  0.00    +0.000 A 
BRANCH   8  14
ATOM     14  O   UNL     1      19.875  -0.240  24.133  0.00  0.00    +0.000 OA
BRANCH  14  16
ATOM     15  C   UNL     1      20.581   0.438  21.967  0.00  0.00    +0.000 C 
ATOM     16  C   UNL     1      20.268   0.874  23.369  0.00  0.00    +0.000 C 
ENDBRANCH  14  16
ENDBRANCH   8  14
ENDBRANCH   1  11
BRANCH   4  17
ATOM     17  N   UNL     1      11.439  -0.155  27.450  0.00  0.00    +0.000 NA
BRANCH  17  18
ATOM     18  C   UNL     1      10.492   0.376  26.604  0.00  0.00    +0.000 A 
ATOM     19  C   UNL     1       9.944  -0.226  25.500  0.00  0.00    +0.000 A 
ATOM     20  C   UNL     1       8.995   0.392  24.693  0.00  0.00    +0.000 A 
ATOM     21  C   UNL     1       8.556   1.665  24.977  0.00  0.00    +0.000 A 
ATOM     22  C   UNL     1       9.085   2.297  26.077  0.00  0.00    +0.000 A 
ATOM     23  C   UNL     1      10.022   1.681  26.871  0.00  0.00    +0.000 A 
BRANCH  23  24
ATOM     24  O   UNL     1      10.534   2.324  27.966  0.00  0.00    +0.000 OA
BRANCH  24  25
ATOM     25  C   UNL     1      10.968   3.667  27.851  0.00  0.00    +0.000 C 
ATOM     26  C   UNL     1      12.280   3.590  27.055  0.00  0.00    +0.000 C 
ENDBRANCH  24  25
ENDBRANCH  23  24
ENDBRANCH  17  18
ENDBRANCH   4  17
BRANCH   5  27
ATOM     27  S   UNL     1      12.725   0.457  30.300  0.00  0.00    +0.000 S 
BRANCH  27  28
ATOM     28  C   UNL     1      13.707   0.162  31.726  0.00  0.00    +0.000 A 
ATOM     29  C   UNL     1      14.145   1.250  32.482  0.00  0.00    +0.000 A 
ATOM     30  C   UNL     1      14.900   1.051  33.584  0.00  0.00    +0.000 A 
ATOM     31  C   UNL     1      15.262  -0.219  33.999  0.00  0.00    +0.000 A 
ATOM     32  C   UNL     1      14.829  -1.308  33.251  0.00  0.00    +0.000 A 
ATOM     33  C   UNL     1      14.063  -1.075  32.135  0.00  0.00    +0.000 A 
ENDBRANCH  27  28
ENDBRANCH   5  27
TORSDOF 9
ENDMDL
MODEL 4
REMARK VINA RESULT:      -7.0      3.295      9.539
REMARK  Name = 
REMARK  9 active torsions:
REMARK  status: ('A' for Active; 'I' for Inactive)
REMARK    1  A    between atoms: C_2  and  O_3
REMARK    2  A    between atoms: O_3  and  C_4
REMARK    3  A    between atoms: C_7  and  N_8
REMARK    4  A    between atoms: C_11  and  N_12
REMARK    5  A    between atoms: N_12  and  C_13
REMARK    6  A    between atoms: C_18  and  O_19
REMARK    7  A    between atoms: O_19  and  C_20
REMARK    8  A    between atoms: C_22  and  S_23
REMARK    9  A    between atoms: S_23  and  C_24
REMARK                            x       y       z     vdW  Elec       q    Type
REMARK                         _______ _______ _______ _____ _____    ______ ____
ROOT
ATOM      1  N   UNL     1      38.062   3.565  15.972  0.00  0.00    +0.000 N 
ATOM      2  C   UNL     1      38.864   2.936  15.007  0.00  0.00    +0.000 C 
ATOM      3  O   UNL     1      39.949   3.423  14.606  0.00  0.00    +0.000 OA
ATOM      4  C   UNL     1      38.249   1.693  14.579  0.00  0.00    +0.000 C 
ATOM      5  C   UNL     1      37.092   1.542  15.255  0.00  0.00    +0.000 C 
ATOM      6  C   UNL     1      36.920   2.682  16.141  0.00  0.00    +0.000 C 
ATOM      7  O   UNL     1      35.989   2.941  16.944  0.00  0.00    +0.000 OA
ENDROOT
BRANCH   1  11
ATOM      8  C   UNL     1      38.786   7.147  18.036  0.00  0.00    +0.000 A 
ATOM      9  C   UNL     1      39.040   5.943  18.640  0.00  0.00    +0.000 A 
ATOM     10  C   UNL     1      38.794   4.781  17.935  0.00  0.00    +0.000 A 
ATOM     11  C   UNL     1      38.302   4.795  16.643  0.00  0.00    +0.000 A 
ATOM     12  C   UNL     1      38.063   6.022  16.080  0.00  0.00    +0.000 A 
ATOM     13  C   UNL     1      38.300   7.202  16.760  0.00  0.00    +0.000 A 
BRANCH   8  14
ATOM     14  O   UNL     1      39.046   8.310  18.784  0.00  0.00    +0.000 OA
BRANCH  14  16
ATOM     15  C   UNL     1      37.044   8.825  19.958  0.00  0.00    +0.000 C 
ATOM     16  C   UNL     1      38.506   8.499  20.070  0.00  0.00    +0.000 C 
ENDBRANCH  14  16
ENDBRANCH   8  14
ENDBRANCH   1  11
BRANCH   4  17
ATOM     17  N   UNL     1      38.788   0.835  13.650  0.00  0.00    +0.000 NA
BRANCH  17  18
ATOM     18  C   UNL     1      39.502  -0.342  13.679  0.00  0.00    +0.000 A 
ATOM     19  C   UNL     1      40.172  -0.872  14.752  0.00  0.00    +0.000 A 
ATOM     20  C   UNL     1      40.878  -2.067  14.688  0.00  0.00    +0.000 A 
ATOM     21  C   UNL     1      40.934  -2.786  13.515  0.00  0.00    +0.000 A 
ATOM     22  C   UNL     1      40.272  -2.283  12.421  0.00  0.00    +0.000 A 
ATOM     23  C   UNL     1      39.576  -1.101  12.490  0.00  0.00    +0.000 A 
BRANCH  23  24
ATOM     24  O   UNL     1      38.919  -0.617  11.390  0.00  0.00    +0.000 OA
BRANCH  24  25
ATOM     25  C   UNL     1      39.658  -0.047  10.327  0.00  0.00    +0.000 C 
ATOM     26  C   UNL     1      38.828   1.166   9.877  0.00  0.00    +0.000 C 
ENDBRANCH  24  25
ENDBRANCH  23  24
ENDBRANCH  17  18
ENDBRANCH   4  17
BRANCH   5  27
ATOM     27  S   UNL     1      36.007   0.164  15.054  0.00  0.00    +0.000 S 
BRANCH  27  28
ATOM     28  C   UNL     1      36.664  -1.426  15.404  0.00  0.00    +0.000 A 
ATOM     29  C   UNL     1      37.231  -1.663  16.657  0.00  0.00    +0.000 A 
ATOM     30  C   UNL     1      37.741  -2.878  16.953  0.00  0.00    +0.000 A 
ATOM     31  C   UNL     1      37.723  -3.917  16.039  0.00  0.00    +0.000 A 
ATOM     32  C   UNL     1      37.160  -3.690  14.788  0.00  0.00    +0.000 A 
ATOM     33  C   UNL     1      36.649  -2.444  14.515  0.00  0.00    +0.000 A 
ENDBRANCH  27  28
ENDBRANCH   5  27
TORSDOF 9
ENDMDL
MODEL 5
REMARK VINA RESULT:      -7.0      5.915      9.985
REMARK  Name = 
REMARK  9 active torsions:
REMARK  status: ('A' for Active; 'I' for Inactive)
REMARK    1  A    between atoms: C_2  and  O_3
REMARK    2  A    between atoms: O_3  and  C_4
REMARK    3  A    between atoms: C_7  and  N_8
REMARK    4  A    between atoms: C_11  and  N_12
REMARK    5  A    between atoms: N_12  and  C_13
REMARK    6  A    between atoms: C_18  and  O_19
REMARK    7  A    between atoms: O_19  and  C_20
REMARK    8  A    between atoms: C_22  and  S_23
REMARK    9  A    between atoms: S_23  and  C_24
REMARK                            x       y       z     vdW  Elec       q    Type
REMARK                         _______ _______ _______ _____ _____    ______ ____
ROOT
ATOM      1  N   UNL     1      40.177  -2.066  14.480  0.00  0.00    +0.000 N 
ATOM      2  C   UNL     1      39.157  -1.227  14.005  0.00  0.00    +0.000 C 
ATOM      3  O   UNL     1      39.333  -0.409  13.069  0.00  0.00    +0.000 OA
ATOM      4  C   UNL     1      37.932  -1.460  14.748  0.00  0.00    +0.000 C 
ATOM      5  C   UNL     1      38.173  -2.418  15.666  0.00  0.00    +0.000 C 
ATOM      6  C   UNL     1      39.561  -2.836  15.547  0.00  0.00    +0.000 C 
ATOM      7  O   UNL     1      40.198  -3.699  16.202  0.00  0.00    +0.000 OA
ENDROOT
BRANCH   1  11
ATOM      8  C   UNL     1      44.124  -2.402  13.093  0.00  0.00    +0.000 A 
ATOM      9  C   UNL     1      43.148  -3.225  12.592  0.00  0.00    +0.000 A 
ATOM     10  C   UNL     1      41.858  -3.088  13.066  0.00  0.00    +0.000 A 
ATOM     11  C   UNL     1      41.522  -2.152  14.026  0.00  0.00    +0.000 A 
ATOM     12  C   UNL     1      42.531  -1.353  14.498  0.00  0.00    +0.000 A 
ATOM     13  C   UNL     1      43.831  -1.464  14.042  0.00  0.00    +0.000 A 
BRANCH   8  14
ATOM     14  O   UNL     1      45.427  -2.570  12.589  0.00  0.00    +0.000 OA
BRANCH  14  16
ATOM     15  C   UNL     1      47.254  -3.656  11.524  0.00  0.00    +0.000 C 
ATOM     16  C   UNL     1      45.885  -3.815  12.120  0.00  0.00    +0.000 C 
ENDBRANCH  14  16
ENDBRANCH   8  14
ENDBRANCH   1  11
BRANCH   4  17
ATOM     17  N   UNL     1      36.745  -0.805  14.521  0.00  0.00    +0.000 NA
BRANCH  17  18
ATOM     18  C   UNL     1      36.096   0.288  15.051  0.00  0.00    +0.000 A 
ATOM     19  C   UNL     1      35.467   0.361  16.267  0.00  0.00    +0.000 A 
ATOM     20  C   UNL     1      34.825   1.508  16.719  0.00  0.00    +0.000 A 
ATOM     21  C   UNL     1      34.793   2.645  15.944  0.00  0.00    +0.000 A 
ATOM     22  C   UNL     1      35.415   2.605  14.719  0.00  0.00    +0.000 A 
ATOM     23  C   UNL     1      36.048   1.468  14.278  0.00  0.00    +0.000 A 
BRANCH  23  24
ATOM     24  O   UNL     1      36.666   1.449  13.056  0.00  0.00    +0.000 OA
BRANCH  24  25
ATOM     25  C   UNL     1      37.425   2.567  12.635  0.00  0.00    +0.000 C 
ATOM     26  C   UNL     1      37.537   2.416  11.110  0.00  0.00    +0.000 C 
ENDBRANCH  24  25
ENDBRANCH  23  24
ENDBRANCH  17  18
ENDBRANCH   4  17
BRANCH   5  27
ATOM     27  S   UNL     1      36.961  -3.024  16.797  0.00  0.00    +0.000 S 
BRANCH  27  28
ATOM     28  C   UNL     1      35.667  -4.005  16.130  0.00  0.00    +0.000 A 
ATOM     29  C   UNL     1      35.809  -5.394  16.117  0.00  0.00    +0.000 A 
ATOM     30  C   UNL     1      34.827  -6.172  15.612  0.00  0.00    +0.000 A 
ATOM     31  C   UNL     1      33.663  -5.631  15.095  0.00  0.00    +0.000 A 
ATOM     32  C   UNL     1      33.513  -4.249  15.104  0.00  0.00    +0.000 A 
ATOM     33  C   UNL     1      34.528  -3.482  15.624  0.00  0.00    +0.000 A 
ENDBRANCH  27  28
ENDBRANCH   5  27
TORSDOF 9
ENDMDL
MODEL 6
REMARK VINA RESULT:      -6.9      5.359      9.786
REMARK  Name = 
REMARK  9 active torsions:
REMARK  status: ('A' for Active; 'I' for Inactive)
REMARK    1  A    between atoms: C_2  and  O_3
REMARK    2  A    between atoms: O_3  and  C_4
REMARK    3  A    between atoms: C_7  and  N_8
REMARK    4  A    between atoms: C_11  and  N_12
REMARK    5  A    between atoms: N_12  and  C_13
REMARK    6  A    between atoms: C_18  and  O_19
REMARK    7  A    between atoms: O_19  and  C_20
REMARK    8  A    between atoms: C_22  and  S_23
REMARK    9  A    between atoms: S_23  and  C_24
REMARK                            x       y       z     vdW  Elec       q    Type
REMARK                         _______ _______ _______ _____ _____    ______ ____
ROOT
ATOM      1  N   UNL     1      40.202  -2.012  14.597  0.00  0.00    +0.000 N 
ATOM      2  C   UNL     1      39.191  -1.098  14.261  0.00  0.00    +0.000 C 
ATOM      3  O   UNL     1      39.358  -0.182  13.418  0.00  0.00    +0.000 OA
ATOM      4  C   UNL     1      37.985  -1.385  15.017  0.00  0.00    +0.000 C 
ATOM      5  C   UNL     1      38.230  -2.448  15.809  0.00  0.00    +0.000 C 
ATOM      6  C   UNL     1      39.600  -2.884  15.592  0.00  0.00    +0.000 C 
ATOM      7  O   UNL     1      40.233  -3.833  16.118  0.00  0.00    +0.000 OA
ENDROOT
BRANCH   1  11
ATOM      8  C   UNL     1      44.135  -2.124  13.137  0.00  0.00    +0.000 A 
ATOM      9  C   UNL     1      43.782  -1.202  14.089  0.00  0.00    +0.000 A 
ATOM     10  C   UNL     1      42.481  -1.192  14.552  0.00  0.00    +0.000 A 
ATOM     11  C   UNL     1      41.527  -2.078  14.087  0.00  0.00    +0.000 A 
ATOM     12  C   UNL     1      41.926  -2.981  13.136  0.00  0.00    +0.000 A 
ATOM     13  C   UNL     1      43.221  -3.018  12.654  0.00  0.00    +0.000 A 
BRANCH   8  14
ATOM     14  O   UNL     1      45.468  -2.106  12.687  0.00  0.00    +0.000 OA
BRANCH  14  16
ATOM     15  C   UNL     1      46.735  -4.111  12.830  0.00  0.00    +0.000 C 
ATOM     16  C   UNL     1      46.499  -2.743  13.401  0.00  0.00    +0.000 C 
ENDBRANCH  14  16
ENDBRANCH   8  14
ENDBRANCH   1  11
BRANCH   4  17
ATOM     17  N   UNL     1      36.811  -0.678  14.910  0.00  0.00    +0.000 NA
BRANCH  17  18
ATOM     18  C   UNL     1      36.425   0.635  15.057  0.00  0.00    +0.000 A 
ATOM     19  C   UNL     1      36.068   1.504  14.058  0.00  0.00    +0.000 A 
ATOM     20  C   UNL     1      35.699   2.822  14.298  0.00  0.00    +0.000 A 
ATOM     21  C   UNL     1      35.676   3.321  15.581  0.00  0.00    +0.000 A 
ATOM     22  C   UNL     1      36.027   2.476  16.605  0.00  0.00    +0.000 A 
ATOM     23  C   UNL     1      36.391   1.173  16.362  0.00  0.00    +0.000 A 
BRANCH  23  24
ATOM     24  O   UNL     1      36.734   0.344  17.396  0.00  0.00    +0.000 OA
BRANCH  24  25
ATOM     25  C   UNL     1      35.930   0.306  18.560  0.00  0.00    +0.000 C 
ATOM     26  C   UNL     1      34.821  -0.710  18.240  0.00  0.00    +0.000 C 
ENDBRANCH  24  25
ENDBRANCH  23  24
ENDBRANCH  17  18
ENDBRANCH   4  17
BRANCH   5  27
ATOM     27  S   UNL     1      37.040  -3.151  16.907  0.00  0.00    +0.000 S 
BRANCH  27  28
ATOM     28  C   UNL     1      35.724  -4.060  16.182  0.00  0.00    +0.000 A 
ATOM     29  C   UNL     1      35.814  -5.451  16.127  0.00  0.00    +0.000 A 
ATOM     30  C   UNL     1      34.814  -6.175  15.577  0.00  0.00    +0.000 A 
ATOM     31  C   UNL     1      33.682  -5.573  15.055  0.00  0.00    +0.000 A 
ATOM     32  C   UNL     1      33.585  -4.187  15.106  0.00  0.00    +0.000 A 
ATOM     33  C   UNL     1      34.617  -3.478  15.672  0.00  0.00    +0.000 A 
ENDBRANCH  27  28
ENDBRANCH   5  27
TORSDOF 9
ENDMDL
MODEL 7
REMARK VINA RESULT:      -6.9      2.090      5.890
REMARK  Name = 
REMARK  9 active torsions:
REMARK  status: ('A' for Active; 'I' for Inactive)
REMARK    1  A    between atoms: C_2  and  O_3
REMARK    2  A    between atoms: O_3  and  C_4
REMARK    3  A    between atoms: C_7  and  N_8
REMARK    4  A    between atoms: C_11  and  N_12
REMARK    5  A    between atoms: N_12  and  C_13
REMARK    6  A    between atoms: C_18  and  O_19
REMARK    7  A    between atoms: O_19  and  C_20
REMARK    8  A    between atoms: C_22  and  S_23
REMARK    9  A    between atoms: S_23  and  C_24
REMARK                            x       y       z     vdW  Elec       q    Type
REMARK                         _______ _______ _______ _____ _____    ______ ____
ROOT
ATOM      1  N   UNL     1      36.965   2.897  15.516  0.00  0.00    +0.000 N 
ATOM      2  C   UNL     1      36.816   3.597  14.310  0.00  0.00    +0.000 C 
ATOM      3  O   UNL     1      36.367   3.063  13.266  0.00  0.00    +0.000 OA
ATOM      4  C   UNL     1      37.251   4.973  14.473  0.00  0.00    +0.000 C 
ATOM      5  C   UNL     1      37.663   5.135  15.747  0.00  0.00    +0.000 C 
ATOM      6  C   UNL     1      37.509   3.871  16.449  0.00  0.00    +0.000 C 
ATOM      7  O   UNL     1      37.768   3.579  17.643  0.00  0.00    +0.000 OA
ENDROOT
BRANCH   1  11
ATOM      8  C   UNL     1      35.983  -1.096  16.356  0.00  0.00    +0.000 A 
ATOM      9  C   UNL     1      35.144  -0.085  16.749  0.00  0.00    +0.000 A 
ATOM     10  C   UNL     1      35.493   1.219  16.456  0.00  0.00    +0.000 A 
ATOM     11  C   UNL     1      36.657   1.535  15.781  0.00  0.00    +0.000 A 
ATOM     12  C   UNL     1      37.465   0.491  15.409  0.00  0.00    +0.000 A 
ATOM     13  C   UNL     1      37.142  -0.824  15.686  0.00  0.00    +0.000 A 
BRANCH   8  14
ATOM     14  O   UNL     1      35.597  -2.412  16.672  0.00  0.00    +0.000 OA
BRANCH  14  16
ATOM     15  C   UNL     1      36.476  -4.553  16.130  0.00  0.00    +0.000 C 
ATOM     16  C   UNL     1      36.534  -3.383  17.069  0.00  0.00    +0.000 C 
ENDBRANCH  14  16
ENDBRANCH   8  14
ENDBRANCH   1  11
BRANCH   4  17
ATOM     17  N   UNL     1      37.223   5.923  13.480  0.00  0.00    +0.000 NA
BRANCH  17  18
ATOM     18  C   UNL     1      36.419   6.210  12.400  0.00  0.00    +0.000 A 
ATOM     19  C   UNL     1      36.611   5.811  11.102  0.00  0.00    +0.000 A 
ATOM     20  C   UNL     1      35.748   6.157  10.069  0.00  0.00    +0.000 A 
ATOM     21  C   UNL     1      34.638   6.933  10.313  0.00  0.00    +0.000 A 
ATOM     22  C   UNL     1      34.416   7.348  11.604  0.00  0.00    +0.000 A 
ATOM     23  C   UNL     1      35.272   7.003  12.621  0.00  0.00    +0.000 A 
BRANCH  23  24
ATOM     24  O   UNL     1      35.032   7.423  13.902  0.00  0.00    +0.000 OA
BRANCH  24  25
ATOM     25  C   UNL     1      33.713   7.393  14.414  0.00  0.00    +0.000 C 
ATOM     26  C   UNL     1      33.595   8.662  15.274  0.00  0.00    +0.000 C 
ENDBRANCH  24  25
ENDBRANCH  23  24
ENDBRANCH  17  18
ENDBRANCH   4  17
BRANCH   5  27
ATOM     27  S   UNL     1      38.277   6.656  16.397  0.00  0.00    +0.000 S 
BRANCH  27  28
ATOM     28  C   UNL     1      39.563   6.553  17.588  0.00  0.00    +0.000 A 
ATOM     29  C   UNL     1      39.228   6.520  18.943  0.00  0.00    +0.000 A 
ATOM     30  C   UNL     1      40.197   6.438  19.879  0.00  0.00    +0.000 A 
ATOM     31  C   UNL     1      41.538   6.386  19.538  0.00  0.00    +0.000 A 
ATOM     32  C   UNL     1      41.880   6.417  18.191  0.00  0.00    +0.000 A 
ATOM     33  C   UNL     1      40.873   6.501  17.260  0.00  0.00    +0.000 A 
ENDBRANCH  27  28
ENDBRANCH   5  27
TORSDOF 9
ENDMDL
MODEL 8
REMARK VINA RESULT:      -6.8      2.436      8.247
REMARK  Name = 
REMARK  9 active torsions:
REMARK  status: ('A' for Active; 'I' for Inactive)
REMARK    1  A    between atoms: C_2  and  O_3
REMARK    2  A    between atoms: O_3  and  C_4
REMARK    3  A    between atoms: C_7  and  N_8
REMARK    4  A    between atoms: C_11  and  N_12
REMARK    5  A    between atoms: N_12  and  C_13
REMARK    6  A    between atoms: C_18  and  O_19
REMARK    7  A    between atoms: O_19  and  C_20
REMARK    8  A    between atoms: C_22  and  S_23
REMARK    9  A    between atoms: S_23  and  C_24
REMARK                            x       y       z     vdW  Elec       q    Type
REMARK                         _______ _______ _______ _____ _____    ______ ____
ROOT
ATOM      1  N   UNL     1      38.064   5.118  16.089  0.00  0.00    +0.000 N 
ATOM      2  C   UNL     1      37.161   5.887  15.338  0.00  0.00    +0.000 C 
ATOM      3  O   UNL     1      37.181   7.143  15.334  0.00  0.00    +0.000 OA
ATOM      4  C   UNL     1      36.252   5.022  14.608  0.00  0.00    +0.000 C 
ATOM      5  C   UNL     1      36.572   3.743  14.892  0.00  0.00    +0.000 C 
ATOM      6  C   UNL     1      37.697   3.739  15.813  0.00  0.00    +0.000 C 
ATOM      7  O   UNL     1      38.309   2.770  16.328  0.00  0.00    +0.000 OA
ENDROOT
BRANCH   1  11
ATOM      8  C   UNL     1      41.212   6.460  18.517  0.00  0.00    +0.000 A 
ATOM      9  C   UNL     1      41.390   6.348  17.162  0.00  0.00    +0.000 A 
ATOM     10  C   UNL     1      40.334   5.906  16.389  0.00  0.00    +0.000 A 
ATOM     11  C   UNL     1      39.109   5.575  16.936  0.00  0.00    +0.000 A 
ATOM     12  C   UNL     1      38.979   5.702  18.295  0.00  0.00    +0.000 A 
ATOM     13  C   UNL     1      40.016   6.143  19.095  0.00  0.00    +0.000 A 
BRANCH   8  14
ATOM     14  O   UNL     1      42.309   6.912  19.274  0.00  0.00    +0.000 OA
BRANCH  14  16
ATOM     15  C   UNL     1      43.289   5.973  21.226  0.00  0.00    +0.000 C 
ATOM     16  C   UNL     1      42.277   6.939  20.680  0.00  0.00    +0.000 C 
ENDBRANCH  14  16
ENDBRANCH   8  14
ENDBRANCH   1  11
BRANCH   4  17
ATOM     17  N   UNL     1      35.255   5.465  13.773  0.00  0.00    +0.000 NA
BRANCH  17  18
ATOM     18  C   UNL     1      35.185   6.198  12.609  0.00  0.00    +0.000 A 
ATOM     19  C   UNL     1      35.804   5.913  11.419  0.00  0.00    +0.000 A 
ATOM     20  C   UNL     1      35.685   6.718  10.292  0.00  0.00    +0.000 A 
ATOM     21  C   UNL     1      34.922   7.863  10.327  0.00  0.00    +0.000 A 
ATOM     22  C   UNL     1      34.287   8.177  11.505  0.00  0.00    +0.000 A 
ATOM     23  C   UNL     1      34.408   7.377  12.615  0.00  0.00    +0.000 A 
BRANCH  23  24
ATOM     24  O   UNL     1      33.765   7.703  13.779  0.00  0.00    +0.000 OA
BRANCH  24  25
ATOM     25  C   UNL     1      34.116   8.891  14.464  0.00  0.00    +0.000 C 
ATOM     26  C   UNL     1      33.393   8.793  15.817  0.00  0.00    +0.000 C 
ENDBRANCH  24  25
ENDBRANCH  23  24
ENDBRANCH  17  18
ENDBRANCH   4  17
BRANCH   5  27
ATOM     27  S   UNL     1      35.727   2.346  14.222  0.00  0.00    +0.000 S 
BRANCH  27  28
ATOM     28  C   UNL     1      35.653   0.904  15.222  0.00  0.00    +0.000 A 
ATOM     29  C   UNL     1      34.984   0.964  16.445  0.00  0.00    +0.000 A 
ATOM     30  C   UNL     1      34.910  -0.131  17.232  0.00  0.00    +0.000 A 
ATOM     31  C   UNL     1      35.485  -1.335  16.862  0.00  0.00    +0.000 A 
ATOM     32  C   UNL     1      36.153  -1.402  15.645  0.00  0.00    +0.000 A 
ATOM     33  C   UNL     1      36.212  -0.273  14.865  0.00  0.00    +0.000 A 
ENDBRANCH  27  28
ENDBRANCH   5  27
TORSDOF 9
ENDMDL
MODEL 9
REMARK VINA RESULT:      -6.7     24.482     26.536
REMARK  Name = 
REMARK  9 active torsions:
REMARK  status: ('A' for Active; 'I' for Inactive)
REMARK    1  A    between atoms: C_2  and  O_3
REMARK    2  A    between atoms: O_3  and  C_4
REMARK    3  A    between atoms: C_7  and  N_8
REMARK    4  A    between atoms: C_11  and  N_12
REMARK    5  A    between atoms: N_12  and  C_13
REMARK    6  A    between atoms: C_18  and  O_19
REMARK    7  A    between atoms: O_19  and  C_20
REMARK    8  A    between atoms: C_22  and  S_23
REMARK    9  A    between atoms: S_23  and  C_24
REMARK                            x       y       z     vdW  Elec       q    Type
REMARK                         _______ _______ _______ _____ _____    ______ ____
ROOT
ATOM      1  N   UNL     1      15.135  -0.023  27.257  0.00  0.00    +0.000 N 
ATOM      2  C   UNL     1      15.002   0.086  28.649  0.00  0.00    +0.000 C 
ATOM      3  O   UNL     1      15.979   0.302  29.409  0.00  0.00    +0.000 OA
ATOM      4  C   UNL     1      13.613  -0.084  29.035  0.00  0.00    +0.000 C 
ATOM      5  C   UNL     1      12.890  -0.296  27.916  0.00  0.00    +0.000 C 
ATOM      6  C   UNL     1      13.787  -0.270  26.772  0.00  0.00    +0.000 C 
ATOM      7  O   UNL     1      13.534  -0.420  25.550  0.00  0.00    +0.000 OA
ENDROOT
BRANCH   1  11
ATOM      8  C   UNL     1      18.643   0.187  24.963  0.00  0.00    +0.000 A 
ATOM      9  C   UNL     1      18.038  -1.024  25.182  0.00  0.00    +0.000 A 
ATOM     10  C   UNL     1      16.883  -1.060  25.939  0.00  0.00    +0.000 A 
ATOM     11  C   UNL     1      16.321   0.081  26.480  0.00  0.00    +0.000 A 
ATOM     12  C   UNL     1      16.961   1.268  26.234  0.00  0.00    +0.000 A 
ATOM     13  C   UNL     1      18.117   1.337  25.479  0.00  0.00    +0.000 A 
BRANCH   8  14
ATOM     14  O   UNL     1      19.819   0.187  24.189  0.00  0.00    +0.000 OA
BRANCH  14  16
ATOM     15  C   UNL     1      20.923   0.036  22.090  0.00  0.00    +0.000 C 
ATOM     16  C   UNL     1      19.846   0.716  22.885  0.00  0.00    +0.000 C 
ENDBRANCH  14  16
ENDBRANCH   8  14
ENDBRANCH   1  11
BRANCH   4  17
ATOM     17  N   UNL     1      13.148  -0.024  30.327  0.00  0.00    +0.000 NA
BRANCH  17  18
ATOM     18  C   UNL     1      12.655   0.954  31.161  0.00  0.00    +0.000 A 
ATOM     19  C   UNL     1      11.434   1.573  31.072  0.00  0.00    +0.000 A 
ATOM     20  C   UNL     1      11.021   2.562  31.956  0.00  0.00    +0.000 A 
ATOM     21  C   UNL     1      11.840   2.971  32.984  0.00  0.00    +0.000 A 
ATOM     22  C   UNL     1      13.070   2.369  33.102  0.00  0.00    +0.000 A 
ATOM     23  C   UNL     1      13.473   1.392  32.225  0.00  0.00    +0.000 A 
BRANCH  23  24
ATOM     24  O   UNL     1      14.701   0.801  32.361  0.00  0.00    +0.000 OA
BRANCH  24  25
ATOM     25  C   UNL     1      15.027   0.130  33.564  0.00  0.00    +0.000 C 
ATOM     26  C   UNL     1      15.253  -1.333  33.149  0.00  0.00    +0.000 C 
ENDBRANCH  24  25
ENDBRANCH  23  24
ENDBRANCH  17  18
ENDBRANCH   4  17
BRANCH   5  27
ATOM     27  S   UNL     1      11.145  -0.556  27.907  0.00  0.00    +0.000 S 
BRANCH  27  28
ATOM     28  C   UNL     1      10.207   0.368  26.744  0.00  0.00    +0.000 A 
ATOM     29  C   UNL     1       9.566  -0.307  25.705  0.00  0.00    +0.000 A 
ATOM     30  C   UNL     1       8.836   0.379  24.799  0.00  0.00    +0.000 A 
ATOM     31  C   UNL     1       8.700   1.755  24.864  0.00  0.00    +0.000 A 
ATOM     32  C   UNL     1       9.336   2.434  25.897  0.00  0.00    +0.000 A 
ATOM     33  C   UNL     1      10.071   1.711  26.804  0.00  0.00    +0.000 A 
ENDBRANCH  27  28
ENDBRANCH   5  27
TORSDOF 9
ENDMDL
MODEL 10
REMARK VINA RESULT:      -6.6     21.579     23.969
REMARK  Name = 
REMARK  9 active torsions:
REMARK  status: ('A' for Active; 'I' for Inactive)
REMARK    1  A    between atoms: C_2  and  O_3
REMARK    2  A    between atoms: O_3  and  C_4
REMARK    3  A    between atoms: C_7  and  N_8
REMARK    4  A    between atoms: C_11  and  N_12
REMARK    5  A    between atoms: N_12  and  C_13
REMARK    6  A    between atoms: C_18  and  O_19
REMARK    7  A    between atoms: O_19  and  C_20
REMARK    8  A    between atoms: C_22  and  S_23
REMARK    9  A    between atoms: S_23  and  C_24
REMARK                            x       y       z     vdW  Elec       q    Type
REMARK                         _______ _______ _______ _____ _____    ______ ____
ROOT
ATOM      1  N   UNL     1      31.258  14.612  36.430  0.00  0.00    +0.000 N 
ATOM      2  C   UNL     1      30.370  14.803  37.500  0.00  0.00    +0.000 C 
ATOM      3  O   UNL     1      30.542  14.275  38.626  0.00  0.00    +0.000 OA
ATOM      4  C   UNL     1      29.278  15.670  37.096  0.00  0.00    +0.000 C 
ATOM      5  C   UNL     1      29.472  16.015  35.807  0.00  0.00    +0.000 C 
ATOM      6  C   UNL     1      30.694  15.384  35.335  0.00  0.00    +0.000 C 
ATOM      7  O   UNL     1      31.242  15.440  34.206  0.00  0.00    +0.000 OA
ENDROOT
BRANCH   1  11
ATOM      8  C   UNL     1      34.728  12.251  36.416  0.00  0.00    +0.000 A 
ATOM      9  C   UNL     1      33.535  11.716  36.831  0.00  0.00    +0.000 A 
ATOM     10  C   UNL     1      32.410  12.518  36.822  0.00  0.00    +0.000 A 
ATOM     11  C   UNL     1      32.449  13.836  36.409  0.00  0.00    +0.000 A 
ATOM     12  C   UNL     1      33.663  14.327  36.004  0.00  0.00    +0.000 A 
ATOM     13  C   UNL     1      34.806  13.550  36.000  0.00  0.00    +0.000 A 
BRANCH   8  14
ATOM     14  O   UNL     1      35.854  11.407  36.440  0.00  0.00    +0.000 OA
BRANCH  14  16
ATOM     15  C   UNL     1      37.320   9.831  37.447  0.00  0.00    +0.000 C 
ATOM     16  C   UNL     1      35.893  10.248  37.236  0.00  0.00    +0.000 C 
ENDBRANCH  14  16
ENDBRANCH   8  14
ENDBRANCH   1  11
BRANCH   4  17
ATOM     17  N   UNL     1      28.246  16.060  37.916  0.00  0.00    +0.000 NA
BRANCH  17  18
ATOM     18  C   UNL     1      26.938  15.680  38.116  0.00  0.00    +0.000 A 
ATOM     19  C   UNL     1      25.848  16.060  37.375  0.00  0.00    +0.000 A 
ATOM     20  C   UNL     1      24.556  15.633  37.656  0.00  0.00    +0.000 A 
ATOM     21  C   UNL     1      24.311  14.791  38.717  0.00  0.00    +0.000 A 
ATOM     22  C   UNL     1      25.382  14.390  39.479  0.00  0.00    +0.000 A 
ATOM     23  C   UNL     1      26.657  14.815  39.196  0.00  0.00    +0.000 A 
BRANCH  23  24
ATOM     24  O   UNL     1      27.713  14.402  39.965  0.00  0.00    +0.000 OA
BRANCH  24  25
ATOM     25  C   UNL     1      27.651  13.152  40.626  0.00  0.00    +0.000 C 
ATOM     26  C   UNL     1      28.948  13.077  41.449  0.00  0.00    +0.000 C 
ENDBRANCH  24  25
ENDBRANCH  23  24
ENDBRANCH  17  18
ENDBRANCH   4  17
BRANCH   5  27
ATOM     27  S   UNL     1      28.385  17.066  34.896  0.00  0.00    +0.000 S 
BRANCH  27  28
ATOM     28  C   UNL     1      27.009  16.305  34.114  0.00  0.00    +0.000 A 
ATOM     29  C   UNL     1      25.991  17.111  33.604  0.00  0.00    +0.000 A 
ATOM     30  C   UNL     1      24.923  16.551  32.996  0.00  0.00    +0.000 A 
ATOM     31  C   UNL     1      24.799  15.179  32.858  0.00  0.00    +0.000 A 
ATOM     32  C   UNL     1      25.810  14.369  33.363  0.00  0.00    +0.000 A 
ATOM     33  C   UNL     1      26.884  14.966  33.977  0.00  0.00    +0.000 A 
ENDBRANCH  27  28
ENDBRANCH   5  27
TORSDOF 9
ENDMDL
