MODEL 1
REMARK VINA RESULT:      -7.4      0.000      0.000
REMARK  Name = 
REMARK  3 active torsions:
REMARK  status: ('A' for Active; 'I' for Inactive)
REMARK    1  A    between atoms: C_2  and  O_3
REMARK    2  A    between atoms: O_3  and  C_4
REMARK    3  A    between atoms: C_4  and  C_6
REMARK                            x       y       z     vdW  Elec       q    Type
REMARK                         _______ _______ _______ _____ _____    ______ ____
ROOT
ATOM      1  C   UNL     1      16.301  11.108  33.121  0.00  0.00    +0.000 A 
ATOM      2  N   UNL     1      17.306  10.279  33.458  0.00  0.00    +0.000 NA
ATOM      3  C   UNL     1      17.403  10.165  34.807  0.00  0.00    +0.000 A 
ATOM      4  C   UNL     1      18.253   9.451  35.624  0.00  0.00    +0.000 A 
ATOM      5  C   UNL     1      18.132   9.514  37.018  0.00  0.00    +0.000 A 
ATOM      6  N   UNL     1      18.838   8.914  37.990  0.00  0.00    +0.000 NA
ATOM      7  C   UNL     1      18.329   9.299  39.167  0.00  0.00    +0.000 A 
ATOM      8  C   UNL     1      17.278  10.162  38.962  0.00  0.00    +0.000 A 
ATOM      9  C   UNL     1      17.162  10.292  37.604  0.00  0.00    +0.000 A 
ATOM     10  C   UNL     1      16.315  11.005  36.754  0.00  0.00    +0.000 A 
ATOM     11  C   UNL     1      15.272  11.840  37.383  0.00  0.00    +0.000 C 
ATOM     12  C   UNL     1      16.427  10.948  35.381  0.00  0.00    +0.000 A 
ATOM     13  C   UNL     1      15.748  11.529  34.330  0.00  0.00    +0.000 A 
ATOM     14  C   UNL     1      14.607  12.456  34.481  0.00  0.00    +0.000 C 
ENDROOT
BRANCH   1  15
ATOM     15  C   UNL     1      15.866  11.498  31.785  0.00  0.00    +0.000 C 
ATOM     16  O   UNL     1      15.206  10.744  31.062  0.00  0.00    +0.000 OA
BRANCH  15  17
ATOM     17  O   UNL     1      16.215  12.761  31.333  0.00  0.00    +0.000 OA
BRANCH  17  19
ATOM     18  C   UNL     1      14.312  14.169  31.255  0.00  0.00    +0.000 C 
ATOM     19  C   UNL     1      15.415  13.512  30.444  0.00  0.00    +0.000 C 
ENDBRANCH  17  19
ENDBRANCH  15  17
ENDBRANCH   1  15
TORSDOF 3
ENDMDL
MODEL 2
REMARK VINA RESULT:      -7.1      3.078      6.532
REMARK  Name = 
REMARK  3 active torsions:
REMARK  status: ('A' for Active; 'I' for Inactive)
REMARK    1  A    between atoms: C_2  and  O_3
REMARK    2  A    between atoms: O_3  and  C_4
REMARK    3  A    between atoms: C_4  and  C_6
REMARK                            x       y       z     vdW  Elec       q    Type
REMARK                         _______ _______ _______ _____ _____    ______ ____
ROOT
ATOM      1  C   UNL     1      16.544  11.206  36.617  0.00  0.00    +0.000 A 
ATOM      2  N   UNL     1      15.670  12.224  36.537  0.00  0.00    +0.000 NA
ATOM      3  C   UNL     1      15.291  12.432  35.249  0.00  0.00    +0.000 A 
ATOM      4  C   UNL     1      14.433  13.338  34.664  0.00  0.00    +0.000 A 
ATOM      5  C   UNL     1      14.219  13.334  33.279  0.00  0.00    +0.000 A 
ATOM      6  N   UNL     1      13.441  14.111  32.509  0.00  0.00    +0.000 NA
ATOM      7  C   UNL     1      13.583  13.707  31.240  0.00  0.00    +0.000 A 
ATOM      8  C   UNL     1      14.466  12.654  31.181  0.00  0.00    +0.000 A 
ATOM      9  C   UNL     1      14.861  12.426  32.472  0.00  0.00    +0.000 A 
ATOM     10  C   UNL     1      15.725  11.521  33.091  0.00  0.00    +0.000 A 
ATOM     11  C   UNL     1      16.415  10.545  32.223  0.00  0.00    +0.000 C 
ATOM     12  C   UNL     1      15.941  11.518  34.451  0.00  0.00    +0.000 A 
ATOM     13  C   UNL     1      16.715  10.761  35.307  0.00  0.00    +0.000 A 
ATOM     14  C   UNL     1      17.590   9.648  34.880  0.00  0.00    +0.000 C 
ENDROOT
BRANCH   1  15
ATOM     15  C   UNL     1      17.189  10.665  37.808  0.00  0.00    +0.000 C 
ATOM     16  O   UNL     1      16.557  10.061  38.681  0.00  0.00    +0.000 OA
BRANCH  15  17
ATOM     17  O   UNL     1      18.557  10.848  37.944  0.00  0.00    +0.000 OA
BRANCH  17  19
ATOM     18  C   UNL     1      20.518   9.871  37.044  0.00  0.00    +0.000 C 
ATOM     19  C   UNL     1      19.464   9.783  38.134  0.00  0.00    +0.000 C 
ENDBRANCH  17  19
ENDBRANCH  15  17
ENDBRANCH   1  15
TORSDOF 3
ENDMDL
MODEL 3
REMARK VINA RESULT:      -6.3     17.097     19.288
REMARK  Name = 
REMARK  3 active torsions:
REMARK  status: ('A' for Active; 'I' for Inactive)
REMARK    1  A    between atoms: C_2  and  O_3
REMARK    2  A    between atoms: O_3  and  C_4
REMARK    3  A    between atoms: C_4  and  C_6
REMARK                            x       y       z     vdW  Elec       q    Type
REMARK                         _______ _______ _______ _____ _____    ______ ____
ROOT
ATOM      1  C   UNL     1      27.040  23.894  23.898  0.00  0.00    +0.000 A 
ATOM      2  N   UNL     1      26.058  24.212  24.760  0.00  0.00    +0.000 NA
ATOM      3  C   UNL     1      26.387  23.837  26.023  0.00  0.00    +0.000 A 
ATOM      4  C   UNL     1      25.728  23.942  27.228  0.00  0.00    +0.000 A 
ATOM      5  C   UNL     1      26.309  23.462  28.409  0.00  0.00    +0.000 A 
ATOM      6  N   UNL     1      25.856  23.459  29.673  0.00  0.00    +0.000 NA
ATOM      7  C   UNL     1      26.788  22.883  30.444  0.00  0.00    +0.000 A 
ATOM      8  C   UNL     1      27.863  22.505  29.673  0.00  0.00    +0.000 A 
ATOM      9  C   UNL     1      27.552  22.874  28.392  0.00  0.00    +0.000 A 
ATOM     10  C   UNL     1      28.196  22.781  27.158  0.00  0.00    +0.000 A 
ATOM     11  C   UNL     1      29.532  22.150  27.139  0.00  0.00    +0.000 C 
ATOM     12  C   UNL     1      27.632  23.250  25.992  0.00  0.00    +0.000 A 
ATOM     13  C   UNL     1      28.030  23.290  24.671  0.00  0.00    +0.000 A 
ATOM     14  C   UNL     1      29.318  22.764  24.170  0.00  0.00    +0.000 C 
ENDROOT
BRANCH   1  15
ATOM     15  C   UNL     1      27.082  24.122  22.457  0.00  0.00    +0.000 C 
ATOM     16  O   UNL     1      26.439  23.428  21.662  0.00  0.00    +0.000 OA
BRANCH  15  17
ATOM     17  O   UNL     1      27.878  25.155  21.988  0.00  0.00    +0.000 OA
BRANCH  17  19
ATOM     18  C   UNL     1      29.428  26.263  20.581  0.00  0.00    +0.000 C 
ATOM     19  C   UNL     1      29.051  24.944  21.231  0.00  0.00    +0.000 C 
ENDBRANCH  17  19
ENDBRANCH  15  17
ENDBRANCH   1  15
TORSDOF 3
ENDMDL
MODEL 4
REMARK VINA RESULT:      -6.1     18.602     20.204
REMARK  Name = 
REMARK  3 active torsions:
REMARK  status: ('A' for Active; 'I' for Inactive)
REMARK    1  A    between atoms: C_2  and  O_3
REMARK    2  A    between atoms: O_3  and  C_4
REMARK    3  A    between atoms: C_4  and  C_6
REMARK                            x       y       z     vdW  Elec       q    Type
REMARK                         _______ _______ _______ _____ _____    ______ ____
ROOT
ATOM      1  C   UNL     1      33.872   3.668  34.457  0.00  0.00    +0.000 A 
ATOM      2  N   UNL     1      33.777   2.842  33.399  0.00  0.00    +0.000 NA
ATOM      3  C   UNL     1      33.754   1.546  33.802  0.00  0.00    +0.000 A 
ATOM      4  C   UNL     1      33.669   0.356  33.112  0.00  0.00    +0.000 A 
ATOM      5  C   UNL     1      33.664  -0.870  33.790  0.00  0.00    +0.000 A 
ATOM      6  N   UNL     1      33.591  -2.128  33.329  0.00  0.00    +0.000 NA
ATOM      7  C   UNL     1      33.623  -2.956  34.382  0.00  0.00    +0.000 A 
ATOM      8  C   UNL     1      33.721  -2.228  35.545  0.00  0.00    +0.000 A 
ATOM      9  C   UNL     1      33.747  -0.914  35.162  0.00  0.00    +0.000 A 
ATOM     10  C   UNL     1      33.832   0.306  35.835  0.00  0.00    +0.000 A 
ATOM     11  C   UNL     1      33.919   0.259  37.309  0.00  0.00    +0.000 C 
ATOM     12  C   UNL     1      33.837   1.516  35.176  0.00  0.00    +0.000 A 
ATOM     13  C   UNL     1      33.909   2.835  35.574  0.00  0.00    +0.000 A 
ATOM     14  C   UNL     1      34.010   3.280  36.980  0.00  0.00    +0.000 C 
ENDROOT
BRANCH   1  15
ATOM     15  C   UNL     1      33.926   5.125  34.459  0.00  0.00    +0.000 C 
ATOM     16  O   UNL     1      32.905   5.822  34.440  0.00  0.00    +0.000 OA
BRANCH  15  17
ATOM     17  O   UNL     1      35.174   5.727  34.482  0.00  0.00    +0.000 OA
BRANCH  17  19
ATOM     18  C   UNL     1      37.002   5.285  35.922  0.00  0.00    +0.000 C 
ATOM     19  C   UNL     1      35.796   6.172  35.669  0.00  0.00    +0.000 C 
ENDBRANCH  17  19
ENDBRANCH  15  17
ENDBRANCH   1  15
TORSDOF 3
ENDMDL
MODEL 5
REMARK VINA RESULT:      -5.9     17.738     18.846
REMARK  Name = 
REMARK  3 active torsions:
REMARK  status: ('A' for Active; 'I' for Inactive)
REMARK    1  A    between atoms: C_2  and  O_3
REMARK    2  A    between atoms: O_3  and  C_4
REMARK    3  A    between atoms: C_4  and  C_6
REMARK                            x       y       z     vdW  Elec       q    Type
REMARK                         _______ _______ _______ _____ _____    ______ ____
ROOT
ATOM      1  C   UNL     1      25.895  23.785  24.463  0.00  0.00    +0.000 A 
ATOM      2  N   UNL     1      25.026  24.769  24.757  0.00  0.00    +0.000 NA
ATOM      3  C   UNL     1      25.002  25.005  26.094  0.00  0.00    +0.000 A 
ATOM      4  C   UNL     1      24.291  25.893  26.872  0.00  0.00    +0.000 A 
ATOM      5  C   UNL     1      24.461  25.928  28.262  0.00  0.00    +0.000 A 
ATOM      6  N   UNL     1      23.884  26.696  29.199  0.00  0.00    +0.000 NA
ATOM      7  C   UNL     1      24.386  26.343  30.389  0.00  0.00    +0.000 A 
ATOM      8  C   UNL     1      25.302  25.330  30.227  0.00  0.00    +0.000 A 
ATOM      9  C   UNL     1      25.342  25.074  28.883  0.00  0.00    +0.000 A 
ATOM     10  C   UNL     1      26.049  24.185  28.071  0.00  0.00    +0.000 A 
ATOM     11  C   UNL     1      26.996  23.269  28.738  0.00  0.00    +0.000 C 
ATOM     12  C   UNL     1      25.887  24.145  26.704  0.00  0.00    +0.000 A 
ATOM     13  C   UNL     1      26.437  23.393  25.685  0.00  0.00    +0.000 A 
ATOM     14  C   UNL     1      27.449  22.333  25.882  0.00  0.00    +0.000 C 
ENDROOT
BRANCH   1  15
ATOM     15  C   UNL     1      26.217  23.231  23.153  0.00  0.00    +0.000 C 
ATOM     16  O   UNL     1      25.347  22.800  22.388  0.00  0.00    +0.000 OA
BRANCH  15  17
ATOM     17  O   UNL     1      27.550  23.196  22.774  0.00  0.00    +0.000 OA
BRANCH  17  19
ATOM     18  C   UNL     1      29.612  24.315  23.105  0.00  0.00    +0.000 C 
ATOM     19  C   UNL     1      28.274  24.345  22.387  0.00  0.00    +0.000 C 
ENDBRANCH  17  19
ENDBRANCH  15  17
ENDBRANCH   1  15
TORSDOF 3
ENDMDL
MODEL 6
REMARK VINA RESULT:      -5.9     18.360     19.692
REMARK  Name = 
REMARK  3 active torsions:
REMARK  status: ('A' for Active; 'I' for Inactive)
REMARK    1  A    between atoms: C_2  and  O_3
REMARK    2  A    between atoms: O_3  and  C_4
REMARK    3  A    between atoms: C_4  and  C_6
REMARK                            x       y       z     vdW  Elec       q    Type
REMARK                         _______ _______ _______ _____ _____    ______ ____
ROOT
ATOM      1  C   UNL     1      27.375  23.363  23.527  0.00  0.00    +0.000 A 
ATOM      2  N   UNL     1      28.646  22.935  23.624  0.00  0.00    +0.000 NA
ATOM      3  C   UNL     1      29.032  22.865  24.924  0.00  0.00    +0.000 A 
ATOM      4  C   UNL     1      30.213  22.493  25.528  0.00  0.00    +0.000 A 
ATOM      5  C   UNL     1      30.345  22.515  26.923  0.00  0.00    +0.000 A 
ATOM      6  N   UNL     1      31.385  22.199  27.711  0.00  0.00    +0.000 NA
ATOM      7  C   UNL     1      31.010  22.387  28.984  0.00  0.00    +0.000 A 
ATOM      8  C   UNL     1      29.709  22.832  29.025  0.00  0.00    +0.000 A 
ATOM      9  C   UNL     1      29.299  22.910  27.722  0.00  0.00    +0.000 A 
ATOM     10  C   UNL     1      28.115  23.282  27.084  0.00  0.00    +0.000 A 
ATOM     11  C   UNL     1      26.989  23.706  27.942  0.00  0.00    +0.000 C 
ATOM     12  C   UNL     1      27.975  23.264  25.713  0.00  0.00    +0.000 A 
ATOM     13  C   UNL     1      26.952  23.569  24.839  0.00  0.00    +0.000 A 
ATOM     14  C   UNL     1      25.614  24.044  25.252  0.00  0.00    +0.000 C 
ENDROOT
BRANCH   1  15
ATOM     15  C   UNL     1      26.586  23.574  22.318  0.00  0.00    +0.000 C 
ATOM     16  O   UNL     1      25.565  22.920  22.076  0.00  0.00    +0.000 OA
BRANCH  15  17
ATOM     17  O   UNL     1      27.015  24.543  21.425  0.00  0.00    +0.000 OA
BRANCH  17  19
ATOM     18  C   UNL     1      28.933  25.922  21.251  0.00  0.00    +0.000 C 
ATOM     19  C   UNL     1      27.536  25.791  21.831  0.00  0.00    +0.000 C 
ENDBRANCH  17  19
ENDBRANCH  15  17
ENDBRANCH   1  15
TORSDOF 3
ENDMDL
MODEL 7
REMARK VINA RESULT:      -5.9     16.557     19.185
REMARK  Name = 
REMARK  3 active torsions:
REMARK  status: ('A' for Active; 'I' for Inactive)
REMARK    1  A    between atoms: C_2  and  O_3
REMARK    2  A    between atoms: O_3  and  C_4
REMARK    3  A    between atoms: C_4  and  C_6
REMARK                            x       y       z     vdW  Elec       q    Type
REMARK                         _______ _______ _______ _____ _____    ______ ____
ROOT
ATOM      1  C   UNL     1      26.495  23.299  28.790  0.00  0.00    +0.000 A 
ATOM      2  N   UNL     1      25.759  23.653  27.721  0.00  0.00    +0.000 NA
ATOM      3  C   UNL     1      26.497  23.578  26.584  0.00  0.00    +0.000 A 
ATOM      4  C   UNL     1      26.203  23.834  25.263  0.00  0.00    +0.000 A 
ATOM      5  C   UNL     1      27.173  23.672  24.265  0.00  0.00    +0.000 A 
ATOM      6  N   UNL     1      27.109  23.860  22.937  0.00  0.00    +0.000 NA
ATOM      7  C   UNL     1      28.310  23.569  22.421  0.00  0.00    +0.000 A 
ATOM      8  C   UNL     1      29.169  23.188  23.424  0.00  0.00    +0.000 A 
ATOM      9  C   UNL     1      28.444  23.256  24.583  0.00  0.00    +0.000 A 
ATOM     10  C   UNL     1      28.715  23.005  25.929  0.00  0.00    +0.000 A 
ATOM     11  C   UNL     1      30.081  22.556  26.271  0.00  0.00    +0.000 C 
ATOM     12  C   UNL     1      27.767  23.161  26.916  0.00  0.00    +0.000 A 
ATOM     13  C   UNL     1      27.756  22.989  28.285  0.00  0.00    +0.000 A 
ATOM     14  C   UNL     1      28.920  22.543  29.080  0.00  0.00    +0.000 C 
ENDROOT
BRANCH   1  15
ATOM     15  C   UNL     1      26.082  23.244  30.188  0.00  0.00    +0.000 C 
ATOM     16  O   UNL     1      25.987  22.177  30.805  0.00  0.00    +0.000 OA
BRANCH  15  17
ATOM     17  O   UNL     1      25.792  24.440  30.826  0.00  0.00    +0.000 OA
BRANCH  17  19
ATOM     18  C   UNL     1      27.616  25.942  30.997  0.00  0.00    +0.000 C 
ATOM     19  C   UNL     1      26.658  25.047  31.762  0.00  0.00    +0.000 C 
ENDBRANCH  17  19
ENDBRANCH  15  17
ENDBRANCH   1  15
TORSDOF 3
ENDMDL
MODEL 8
REMARK VINA RESULT:      -5.9     20.386     21.966
REMARK  Name = 
REMARK  3 active torsions:
REMARK  status: ('A' for Active; 'I' for Inactive)
REMARK    1  A    between atoms: C_2  and  O_3
REMARK    2  A    between atoms: O_3  and  C_4
REMARK    3  A    between atoms: C_4  and  C_6
REMARK                            x       y       z     vdW  Elec       q    Type
REMARK                         _______ _______ _______ _____ _____    ______ ____
ROOT
ATOM      1  C   UNL     1      19.494  -6.813  26.072  0.00  0.00    +0.000 A 
ATOM      2  N   UNL     1      20.300  -6.036  25.326  0.00  0.00    +0.000 NA
ATOM      3  C   UNL     1      21.433  -6.704  24.988  0.00  0.00    +0.000 A 
ATOM      4  C   UNL     1      22.541  -6.348  24.251  0.00  0.00    +0.000 A 
ATOM      5  C   UNL     1      23.593  -7.252  24.050  0.00  0.00    +0.000 A 
ATOM      6  N   UNL     1      24.748  -7.121  23.379  0.00  0.00    +0.000 NA
ATOM      7  C   UNL     1      25.419  -8.276  23.484  0.00  0.00    +0.000 A 
ATOM      8  C   UNL     1      24.692  -9.170  24.234  0.00  0.00    +0.000 A 
ATOM      9  C   UNL     1      23.543  -8.516  24.587  0.00  0.00    +0.000 A 
ATOM     10  C   UNL     1      22.410  -8.851  25.329  0.00  0.00    +0.000 A 
ATOM     11  C   UNL     1      22.356 -10.210  25.905  0.00  0.00    +0.000 C 
ATOM     12  C   UNL     1      21.371  -7.968  25.531  0.00  0.00    +0.000 A 
ATOM     13  C   UNL     1      20.166  -8.027  26.200  0.00  0.00    +0.000 A 
ATOM     14  C   UNL     1      19.677  -9.211  26.939  0.00  0.00    +0.000 C 
ENDROOT
BRANCH   1  15
ATOM     15  C   UNL     1      18.191  -6.478  26.636  0.00  0.00    +0.000 C 
ATOM     16  O   UNL     1      18.074  -5.877  27.709  0.00  0.00    +0.000 OA
BRANCH  15  17
ATOM     17  O   UNL     1      17.061  -6.857  25.928  0.00  0.00    +0.000 OA
BRANCH  17  19
ATOM     18  C   UNL     1      16.371  -9.002  25.197  0.00  0.00    +0.000 C 
ATOM     19  C   UNL     1      16.254  -7.957  26.292  0.00  0.00    +0.000 C 
ENDBRANCH  17  19
ENDBRANCH  15  17
ENDBRANCH   1  15
TORSDOF 3
ENDMDL
MODEL 9
REMARK VINA RESULT:      -5.8     18.734     20.547
REMARK  Name = 
REMARK  3 active torsions:
REMARK  status: ('A' for Active; 'I' for Inactive)
REMARK    1  A    between atoms: C_2  and  O_3
REMARK    2  A    between atoms: O_3  and  C_4
REMARK    3  A    between atoms: C_4  and  C_6
REMARK                            x       y       z     vdW  Elec       q    Type
REMARK                         _______ _______ _______ _____ _____    ______ ____
ROOT
ATOM      1  C   UNL     1      34.071  -0.499  35.790  0.00  0.00    +0.000 A 
ATOM      2  N   UNL     1      34.131   0.363  36.820  0.00  0.00    +0.000 NA
ATOM      3  C   UNL     1      34.046   1.645  36.379  0.00  0.00    +0.000 A 
ATOM      4  C   UNL     1      34.061   2.859  37.032  0.00  0.00    +0.000 A 
ATOM      5  C   UNL     1      33.954   4.060  36.318  0.00  0.00    +0.000 A 
ATOM      6  N   UNL     1      33.946   5.334  36.740  0.00  0.00    +0.000 NA
ATOM      7  C   UNL     1      33.822   6.124  35.665  0.00  0.00    +0.000 A 
ATOM      8  C   UNL     1      33.749   5.355  34.528  0.00  0.00    +0.000 A 
ATOM      9  C   UNL     1      33.834   4.055  34.949  0.00  0.00    +0.000 A 
ATOM     10  C   UNL     1      33.822   2.812  34.314  0.00  0.00    +0.000 A 
ATOM     11  C   UNL     1      33.691   2.807  32.843  0.00  0.00    +0.000 C 
ATOM     12  C   UNL     1      33.926   1.626  35.008  0.00  0.00    +0.000 A 
ATOM     13  C   UNL     1      33.941   0.294  34.651  0.00  0.00    +0.000 A 
ATOM     14  C   UNL     1      33.836  -0.201  33.261  0.00  0.00    +0.000 C 
ENDROOT
BRANCH   1  15
ATOM     15  C   UNL     1      34.127  -1.956  35.831  0.00  0.00    +0.000 C 
ATOM     16  O   UNL     1      35.180  -2.579  35.656  0.00  0.00    +0.000 OA
BRANCH  15  17
ATOM     17  O   UNL     1      32.948  -2.643  36.076  0.00  0.00    +0.000 OA
BRANCH  17  19
ATOM     18  C   UNL     1      32.350  -4.055  34.270  0.00  0.00    +0.000 C 
ATOM     19  C   UNL     1      31.953  -2.843  35.096  0.00  0.00    +0.000 C 
ENDBRANCH  17  19
ENDBRANCH  15  17
ENDBRANCH   1  15
TORSDOF 3
ENDMDL
MODEL 10
REMARK VINA RESULT:      -5.7     20.668     22.185
REMARK  Name = 
REMARK  3 active torsions:
REMARK  status: ('A' for Active; 'I' for Inactive)
REMARK    1  A    between atoms: C_2  and  O_3
REMARK    2  A    between atoms: O_3  and  C_4
REMARK    3  A    between atoms: C_4  and  C_6
REMARK                            x       y       z     vdW  Elec       q    Type
REMARK                         _______ _______ _______ _____ _____    ______ ____
ROOT
ATOM      1  C   UNL     1      23.177  -7.412  24.420  0.00  0.00    +0.000 A 
ATOM      2  N   UNL     1      22.348  -6.354  24.462  0.00  0.00    +0.000 NA
ATOM      3  C   UNL     1      21.233  -6.646  25.181  0.00  0.00    +0.000 A 
ATOM      4  C   UNL     1      20.113  -5.912  25.505  0.00  0.00    +0.000 A 
ATOM      5  C   UNL     1      19.086  -6.470  26.278  0.00  0.00    +0.000 A 
ATOM      6  N   UNL     1      17.926  -5.947  26.706  0.00  0.00    +0.000 NA
ATOM      7  C   UNL     1      17.288  -6.887  27.416  0.00  0.00    +0.000 A 
ATOM      8  C   UNL     1      18.041  -8.037  27.450  0.00  0.00    +0.000 A 
ATOM      9  C   UNL     1      19.172  -7.765  26.730  0.00  0.00    +0.000 A 
ATOM     10  C   UNL     1      20.317  -8.486  26.387  0.00  0.00    +0.000 A 
ATOM     11  C   UNL     1      20.410  -9.877  26.874  0.00  0.00    +0.000 C 
ATOM     12  C   UNL     1      21.331  -7.945  25.627  0.00  0.00    +0.000 A 
ATOM     13  C   UNL     1      22.540  -8.412  25.152  0.00  0.00    +0.000 A 
ATOM     14  C   UNL     1      23.063  -9.774  25.393  0.00  0.00    +0.000 C 
ENDROOT
BRANCH   1  15
ATOM     15  C   UNL     1      24.472  -7.514  23.756  0.00  0.00    +0.000 C 
ATOM     16  O   UNL     1      25.378  -6.696  23.951  0.00  0.00    +0.000 OA
BRANCH  15  17
ATOM     17  O   UNL     1      24.669  -8.571  22.880  0.00  0.00    +0.000 OA
BRANCH  17  19
ATOM     18  C   UNL     1      23.507 -10.197  21.610  0.00  0.00    +0.000 C 
ATOM     19  C   UNL     1      23.925  -8.740  21.693  0.00  0.00    +0.000 C 
ENDBRANCH  17  19
ENDBRANCH  15  17
ENDBRANCH   1  15
TORSDOF 3
ENDMDL
