MODEL 1
REMARK VINA RESULT:      -6.7      0.000      0.000
REMARK  Name = 
REMARK  3 active torsions:
REMARK  status: ('A' for Active; 'I' for Inactive)
REMARK    1  A    between atoms: O_2  and  C_3
REMARK    2  A    between atoms: N_15  and  C_16
REMARK    3  A    between atoms: C_16  and  C_17
REMARK                            x       y       z     vdW  Elec       q    Type
REMARK                         _______ _______ _______ _____ _____    ______ ____
ROOT
ATOM      1  C   UNL     1      27.913  23.083  23.824  0.00  0.00    +0.000 A 
ATOM      2  C   UNL     1      29.251  23.055  23.452  0.00  0.00    +0.000 A 
ATOM      3  C   UNL     1      30.187  22.934  24.481  0.00  0.00    +0.000 A 
ATOM      4  O   UNL     1      31.413  22.901  24.226  0.00  0.00    +0.000 OA
ATOM      5  C   UNL     1      29.754  22.848  25.796  0.00  0.00    +0.000 A 
ATOM      6  C   UNL     1      30.693  22.730  26.792  0.00  0.00    +0.000 A 
ATOM      7  C   UNL     1      30.300  22.641  28.122  0.00  0.00    +0.000 A 
ATOM      8  C   UNL     1      31.366  22.514  29.162  0.00  0.00    +0.000 C 
ATOM      9  C   UNL     1      28.959  22.673  28.447  0.00  0.00    +0.000 A 
ATOM     10  C   UNL     1      28.608  22.574  29.888  0.00  0.00    +0.000 C 
ATOM     11  C   UNL     1      28.010  22.792  27.447  0.00  0.00    +0.000 A 
ATOM     12  C   UNL     1      28.408  22.880  26.124  0.00  0.00    +0.000 A 
ATOM     13  N   UNL     1      27.533  22.998  25.108  0.00  0.00    +0.000 N 
ENDROOT
BRANCH   1  15
ATOM     14  C   UNL     1      27.048  24.139  21.815  0.00  0.00    +0.000 C 
ATOM     15  O   UNL     1      26.910  23.200  22.872  0.00  0.00    +0.000 OA
ENDBRANCH   1  15
BRANCH  13  16
ATOM     16  C   UNL     1      26.124  23.030  25.451  0.00  0.00    +0.000 C 
BRANCH  16  17
ATOM     17  C   UNL     1      25.713  24.393  25.908  0.00  0.00    +0.000 A 
ATOM     18  C   UNL     1      25.963  25.521  25.155  0.00  0.00    +0.000 A 
ATOM     19  C   UNL     1      25.589  26.784  25.565  0.00  0.00    +0.000 A 
ATOM     20  C   UNL     1      24.937  26.976  26.767  0.00  0.00    +0.000 A 
ATOM     21  O   UNL     1      24.543  28.229  27.219  0.00  0.00    +0.000 OA
ATOM     22  C   UNL     1      24.688  25.846  27.522  0.00  0.00    +0.000 A 
ATOM     23  C   UNL     1      25.063  24.586  27.109  0.00  0.00    +0.000 A 
ENDBRANCH  16  17
ENDBRANCH  13  16
TORSDOF 3
ENDMDL
MODEL 2
REMARK VINA RESULT:      -6.5     32.445     33.717
REMARK  Name = 
REMARK  3 active torsions:
REMARK  status: ('A' for Active; 'I' for Inactive)
REMARK    1  A    between atoms: O_2  and  C_3
REMARK    2  A    between atoms: N_15  and  C_16
REMARK    3  A    between atoms: C_16  and  C_17
REMARK                            x       y       z     vdW  Elec       q    Type
REMARK                         _______ _______ _______ _____ _____    ______ ____
ROOT
ATOM      1  C   UNL     1      17.855  -7.644  26.702  0.00  0.00    +0.000 A 
ATOM      2  C   UNL     1      17.940  -6.274  26.489  0.00  0.00    +0.000 A 
ATOM      3  C   UNL     1      19.149  -5.791  25.985  0.00  0.00    +0.000 A 
ATOM      4  O   UNL     1      19.304  -4.568  25.765  0.00  0.00    +0.000 OA
ATOM      5  C   UNL     1      20.186  -6.675  25.723  0.00  0.00    +0.000 A 
ATOM      6  C   UNL     1      21.367  -6.177  25.227  0.00  0.00    +0.000 A 
ATOM      7  C   UNL     1      22.429  -7.029  24.953  0.00  0.00    +0.000 A 
ATOM      8  C   UNL     1      23.688  -6.430  24.415  0.00  0.00    +0.000 C 
ATOM      9  C   UNL     1      22.301  -8.384  25.179  0.00  0.00    +0.000 A 
ATOM     10  C   UNL     1      23.476  -9.239  24.865  0.00  0.00    +0.000 C 
ATOM     11  C   UNL     1      21.113  -8.891  25.679  0.00  0.00    +0.000 A 
ATOM     12  C   UNL     1      20.059  -8.037  25.950  0.00  0.00    +0.000 A 
ATOM     13  N   UNL     1      18.881  -8.468  26.438  0.00  0.00    +0.000 N 
ENDROOT
BRANCH   1  15
ATOM     14  C   UNL     1      15.560  -8.363  26.356  0.00  0.00    +0.000 C 
ATOM     15  O   UNL     1      16.694  -8.218  27.201  0.00  0.00    +0.000 OA
ENDBRANCH   1  15
BRANCH  13  16
ATOM     16  C   UNL     1      18.747  -9.892  26.675  0.00  0.00    +0.000 C 
BRANCH  16  17
ATOM     17  C   UNL     1      18.777 -10.199  28.138  0.00  0.00    +0.000 A 
ATOM     18  C   UNL     1      17.841 -11.022  28.729  0.00  0.00    +0.000 A 
ATOM     19  C   UNL     1      17.857 -11.313  30.078  0.00  0.00    +0.000 A 
ATOM     20  C   UNL     1      18.827 -10.785  30.907  0.00  0.00    +0.000 A 
ATOM     21  O   UNL     1      18.881 -11.050  32.270  0.00  0.00    +0.000 OA
ATOM     22  C   UNL     1      19.764  -9.960  30.315  0.00  0.00    +0.000 A 
ATOM     23  C   UNL     1      19.745  -9.671  28.967  0.00  0.00    +0.000 A 
ENDBRANCH  16  17
ENDBRANCH  13  16
TORSDOF 3
ENDMDL
MODEL 3
REMARK VINA RESULT:      -6.5      1.710      5.262
REMARK  Name = 
REMARK  3 active torsions:
REMARK  status: ('A' for Active; 'I' for Inactive)
REMARK    1  A    between atoms: O_2  and  C_3
REMARK    2  A    between atoms: N_15  and  C_16
REMARK    3  A    between atoms: C_16  and  C_17
REMARK                            x       y       z     vdW  Elec       q    Type
REMARK                         _______ _______ _______ _____ _____    ______ ____
ROOT
ATOM      1  C   UNL     1      26.357  23.787  24.636  0.00  0.00    +0.000 A 
ATOM      2  C   UNL     1      25.412  24.777  24.395  0.00  0.00    +0.000 A 
ATOM      3  C   UNL     1      24.864  25.407  25.514  0.00  0.00    +0.000 A 
ATOM      4  O   UNL     1      24.006  26.309  25.380  0.00  0.00    +0.000 OA
ATOM      5  C   UNL     1      25.276  25.030  26.784  0.00  0.00    +0.000 A 
ATOM      6  C   UNL     1      24.723  25.665  27.871  0.00  0.00    +0.000 A 
ATOM      7  C   UNL     1      25.108  25.317  29.159  0.00  0.00    +0.000 A 
ATOM      8  C   UNL     1      24.472  26.041  30.301  0.00  0.00    +0.000 C 
ATOM      9  C   UNL     1      26.051  24.328  29.352  0.00  0.00    +0.000 A 
ATOM     10  C   UNL     1      26.418  24.005  30.756  0.00  0.00    +0.000 C 
ATOM     11  C   UNL     1      26.611  23.686  28.261  0.00  0.00    +0.000 A 
ATOM     12  C   UNL     1      26.223  24.038  26.980  0.00  0.00    +0.000 A 
ATOM     13  N   UNL     1      26.730  23.450  25.880  0.00  0.00    +0.000 N 
ENDROOT
BRANCH   1  15
ATOM     14  C   UNL     1      27.362  23.814  22.424  0.00  0.00    +0.000 C 
ATOM     15  O   UNL     1      26.958  23.105  23.587  0.00  0.00    +0.000 OA
ENDBRANCH   1  15
BRANCH  13  16
ATOM     16  C   UNL     1      27.721  22.412  26.084  0.00  0.00    +0.000 C 
BRANCH  16  17
ATOM     17  C   UNL     1      29.098  22.921  25.807  0.00  0.00    +0.000 A 
ATOM     18  C   UNL     1      29.644  23.970  26.516  0.00  0.00    +0.000 A 
ATOM     19  C   UNL     1      30.915  24.449  26.270  0.00  0.00    +0.000 A 
ATOM     20  C   UNL     1      31.707  23.889  25.288  0.00  0.00    +0.000 A 
ATOM     21  O   UNL     1      32.991  24.339  25.007  0.00  0.00    +0.000 OA
ATOM     22  C   UNL     1      31.160  22.839  24.577  0.00  0.00    +0.000 A 
ATOM     23  C   UNL     1      29.891  22.362  24.826  0.00  0.00    +0.000 A 
ENDBRANCH  16  17
ENDBRANCH  13  16
TORSDOF 3
ENDMDL
MODEL 4
REMARK VINA RESULT:      -6.5      2.579      4.774
REMARK  Name = 
REMARK  3 active torsions:
REMARK  status: ('A' for Active; 'I' for Inactive)
REMARK    1  A    between atoms: O_2  and  C_3
REMARK    2  A    between atoms: N_15  and  C_16
REMARK    3  A    between atoms: C_16  and  C_17
REMARK                            x       y       z     vdW  Elec       q    Type
REMARK                         _______ _______ _______ _____ _____    ______ ____
ROOT
ATOM      1  C   UNL     1      30.508  22.842  27.384  0.00  0.00    +0.000 A 
ATOM      2  C   UNL     1      31.625  23.549  26.956  0.00  0.00    +0.000 A 
ATOM      3  C   UNL     1      31.557  24.119  25.684  0.00  0.00    +0.000 A 
ATOM      4  O   UNL     1      32.523  24.771  25.226  0.00  0.00    +0.000 OA
ATOM      5  C   UNL     1      30.409  23.961  24.921  0.00  0.00    +0.000 A 
ATOM      6  C   UNL     1      30.364  24.531  23.672  0.00  0.00    +0.000 A 
ATOM      7  C   UNL     1      29.233  24.397  22.877  0.00  0.00    +0.000 A 
ATOM      8  C   UNL     1      29.243  25.038  21.527  0.00  0.00    +0.000 C 
ATOM      9  C   UNL     1      28.145  23.686  23.342  0.00  0.00    +0.000 A 
ATOM     10  C   UNL     1      26.968  23.580  22.442  0.00  0.00    +0.000 C 
ATOM     11  C   UNL     1      28.186  23.110  24.601  0.00  0.00    +0.000 A 
ATOM     12  C   UNL     1      29.316  23.248  25.388  0.00  0.00    +0.000 A 
ATOM     13  N   UNL     1      29.415  22.711  26.617  0.00  0.00    +0.000 N 
ENDROOT
BRANCH   1  15
ATOM     14  C   UNL     1      30.911  22.968  29.777  0.00  0.00    +0.000 C 
ATOM     15  O   UNL     1      30.481  22.240  28.635  0.00  0.00    +0.000 OA
ENDBRANCH   1  15
BRANCH  13  16
ATOM     16  C   UNL     1      28.272  21.964  27.106  0.00  0.00    +0.000 C 
BRANCH  16  17
ATOM     17  C   UNL     1      27.535  22.733  28.154  0.00  0.00    +0.000 A 
ATOM     18  C   UNL     1      27.131  24.037  27.954  0.00  0.00    +0.000 A 
ATOM     19  C   UNL     1      26.449  24.758  28.913  0.00  0.00    +0.000 A 
ATOM     20  C   UNL     1      26.138  24.196  30.135  0.00  0.00    +0.000 A 
ATOM     21  O   UNL     1      25.455  24.884  31.130  0.00  0.00    +0.000 OA
ATOM     22  C   UNL     1      26.544  22.891  30.337  0.00  0.00    +0.000 A 
ATOM     23  C   UNL     1      27.223  22.173  29.376  0.00  0.00    +0.000 A 
ENDBRANCH  16  17
ENDBRANCH  13  16
TORSDOF 3
ENDMDL
MODEL 5
REMARK VINA RESULT:      -6.2      2.339      6.554
REMARK  Name = 
REMARK  3 active torsions:
REMARK  status: ('A' for Active; 'I' for Inactive)
REMARK    1  A    between atoms: O_2  and  C_3
REMARK    2  A    between atoms: N_15  and  C_16
REMARK    3  A    between atoms: C_16  and  C_17
REMARK                            x       y       z     vdW  Elec       q    Type
REMARK                         _______ _______ _______ _____ _____    ______ ____
ROOT
ATOM      1  C   UNL     1      27.366  22.942  29.817  0.00  0.00    +0.000 A 
ATOM      2  C   UNL     1      26.575  23.849  30.510  0.00  0.00    +0.000 A 
ATOM      3  C   UNL     1      25.735  24.661  29.746  0.00  0.00    +0.000 A 
ATOM      4  O   UNL     1      24.991  25.504  30.297  0.00  0.00    +0.000 OA
ATOM      5  C   UNL     1      25.726  24.532  28.364  0.00  0.00    +0.000 A 
ATOM      6  C   UNL     1      24.891  25.342  27.632  0.00  0.00    +0.000 A 
ATOM      7  C   UNL     1      24.852  25.243  26.247  0.00  0.00    +0.000 A 
ATOM      8  C   UNL     1      23.926  26.151  25.505  0.00  0.00    +0.000 C 
ATOM      9  C   UNL     1      25.656  24.327  25.599  0.00  0.00    +0.000 A 
ATOM     10  C   UNL     1      25.565  24.274  24.117  0.00  0.00    +0.000 C 
ATOM     11  C   UNL     1      26.498  23.509  26.333  0.00  0.00    +0.000 A 
ATOM     12  C   UNL     1      26.532  23.612  27.712  0.00  0.00    +0.000 A 
ATOM     13  N   UNL     1      27.330  22.846  28.479  0.00  0.00    +0.000 N 
ENDROOT
BRANCH   1  15
ATOM     14  C   UNL     1      29.293  22.634  31.265  0.00  0.00    +0.000 C 
ATOM     15  O   UNL     1      28.233  22.091  30.490  0.00  0.00    +0.000 OA
ENDBRANCH   1  15
BRANCH  13  16
ATOM     16  C   UNL     1      28.174  21.883  27.797  0.00  0.00    +0.000 C 
BRANCH  16  17
ATOM     17  C   UNL     1      29.375  22.546  27.205  0.00  0.00    +0.000 A 
ATOM     18  C   UNL     1      30.112  23.478  27.904  0.00  0.00    +0.000 A 
ATOM     19  C   UNL     1      31.224  24.097  27.369  0.00  0.00    +0.000 A 
ATOM     20  C   UNL     1      31.653  23.804  26.090  0.00  0.00    +0.000 A 
ATOM     21  O   UNL     1      32.765  24.402  25.511  0.00  0.00    +0.000 OA
ATOM     22  C   UNL     1      30.914  22.870  25.389  0.00  0.00    +0.000 A 
ATOM     23  C   UNL     1      29.805  22.254  25.927  0.00  0.00    +0.000 A 
ENDBRANCH  16  17
ENDBRANCH  13  16
TORSDOF 3
ENDMDL
MODEL 6
REMARK VINA RESULT:      -6.2      2.201      3.054
REMARK  Name = 
REMARK  3 active torsions:
REMARK  status: ('A' for Active; 'I' for Inactive)
REMARK    1  A    between atoms: O_2  and  C_3
REMARK    2  A    between atoms: N_15  and  C_16
REMARK    3  A    between atoms: C_16  and  C_17
REMARK                            x       y       z     vdW  Elec       q    Type
REMARK                         _______ _______ _______ _____ _____    ______ ____
ROOT
ATOM      1  C   UNL     1      27.751  23.205  24.984  0.00  0.00    +0.000 A 
ATOM      2  C   UNL     1      28.326  24.035  24.030  0.00  0.00    +0.000 A 
ATOM      3  C   UNL     1      29.640  24.442  24.263  0.00  0.00    +0.000 A 
ATOM      4  O   UNL     1      30.229  25.191  23.449  0.00  0.00    +0.000 OA
ATOM      5  C   UNL     1      30.301  24.011  25.405  0.00  0.00    +0.000 A 
ATOM      6  C   UNL     1      31.595  24.424  25.613  0.00  0.00    +0.000 A 
ATOM      7  C   UNL     1      32.289  24.015  26.744  0.00  0.00    +0.000 A 
ATOM      8  C   UNL     1      33.694  24.497  26.917  0.00  0.00    +0.000 C 
ATOM      9  C   UNL     1      31.680  23.190  27.666  0.00  0.00    +0.000 A 
ATOM     10  C   UNL     1      32.479  22.791  28.853  0.00  0.00    +0.000 C 
ATOM     11  C   UNL     1      30.376  22.771  27.460  0.00  0.00    +0.000 A 
ATOM     12  C   UNL     1      29.689  23.182  26.332  0.00  0.00    +0.000 A 
ATOM     13  N   UNL     1      28.421  22.809  26.077  0.00  0.00    +0.000 N 
ENDROOT
BRANCH   1  15
ATOM     14  C   UNL     1      25.611  23.307  23.836  0.00  0.00    +0.000 C 
ATOM     15  O   UNL     1      26.448  22.748  24.839  0.00  0.00    +0.000 OA
ENDBRANCH   1  15
BRANCH  13  16
ATOM     16  C   UNL     1      27.781  21.942  27.046  0.00  0.00    +0.000 C 
BRANCH  16  17
ATOM     17  C   UNL     1      27.160  22.734  28.150  0.00  0.00    +0.000 A 
ATOM     18  C   UNL     1      26.407  23.863  27.904  0.00  0.00    +0.000 A 
ATOM     19  C   UNL     1      25.827  24.603  28.914  0.00  0.00    +0.000 A 
ATOM     20  C   UNL     1      25.980  24.240  30.237  0.00  0.00    +0.000 A 
ATOM     21  O   UNL     1      25.416  24.956  31.286  0.00  0.00    +0.000 OA
ATOM     22  C   UNL     1      26.735  23.110  30.485  0.00  0.00    +0.000 A 
ATOM     23  C   UNL     1      27.311  22.372  29.473  0.00  0.00    +0.000 A 
ENDBRANCH  16  17
ENDBRANCH  13  16
TORSDOF 3
ENDMDL
MODEL 7
REMARK VINA RESULT:      -6.1     22.425     25.464
REMARK  Name = 
REMARK  3 active torsions:
REMARK  status: ('A' for Active; 'I' for Inactive)
REMARK    1  A    between atoms: O_2  and  C_3
REMARK    2  A    between atoms: N_15  and  C_16
REMARK    3  A    between atoms: C_16  and  C_17
REMARK                            x       y       z     vdW  Elec       q    Type
REMARK                         _______ _______ _______ _____ _____    ______ ____
ROOT
ATOM      1  C   UNL     1      34.061   4.147  35.457  0.00  0.00    +0.000 A 
ATOM      2  C   UNL     1      33.848   4.187  34.084  0.00  0.00    +0.000 A 
ATOM      3  C   UNL     1      33.713   2.960  33.434  0.00  0.00    +0.000 A 
ATOM      4  O   UNL     1      33.519   2.912  32.197  0.00  0.00    +0.000 OA
ATOM      5  C   UNL     1      33.795   1.783  34.164  0.00  0.00    +0.000 A 
ATOM      6  C   UNL     1      33.659   0.586  33.503  0.00  0.00    +0.000 A 
ATOM      7  C   UNL     1      33.734  -0.614  34.198  0.00  0.00    +0.000 A 
ATOM      8  C   UNL     1      33.580  -1.884  33.425  0.00  0.00    +0.000 C 
ATOM      9  C   UNL     1      33.947  -0.608  35.561  0.00  0.00    +0.000 A 
ATOM     10  C   UNL     1      34.018  -1.926  36.243  0.00  0.00    +0.000 C 
ATOM     11  C   UNL     1      34.084   0.596  36.232  0.00  0.00    +0.000 A 
ATOM     12  C   UNL     1      34.008   1.788  35.534  0.00  0.00    +0.000 A 
ATOM     13  N   UNL     1      34.134   2.988  36.129  0.00  0.00    +0.000 N 
ENDROOT
BRANCH   1  15
ATOM     14  C   UNL     1      34.023   6.574  35.556  0.00  0.00    +0.000 C 
ATOM     15  O   UNL     1      34.206   5.316  36.191  0.00  0.00    +0.000 OA
ENDBRANCH   1  15
BRANCH  13  16
ATOM     16  C   UNL     1      34.357   2.994  37.562  0.00  0.00    +0.000 C 
BRANCH  16  17
ATOM     17  C   UNL     1      35.811   2.859  37.880  0.00  0.00    +0.000 A 
ATOM     18  C   UNL     1      36.339   1.694  38.395  0.00  0.00    +0.000 A 
ATOM     19  C   UNL     1      37.680   1.555  38.694  0.00  0.00    +0.000 A 
ATOM     20  C   UNL     1      38.564   2.595  38.485  0.00  0.00    +0.000 A 
ATOM     21  O   UNL     1      39.920   2.500  38.771  0.00  0.00    +0.000 OA
ATOM     22  C   UNL     1      38.035   3.762  37.970  0.00  0.00    +0.000 A 
ATOM     23  C   UNL     1      36.696   3.897  37.673  0.00  0.00    +0.000 A 
ENDBRANCH  16  17
ENDBRANCH  13  16
TORSDOF 3
ENDMDL
MODEL 8
REMARK VINA RESULT:      -6.1     18.561     20.982
REMARK  Name = 
REMARK  3 active torsions:
REMARK  status: ('A' for Active; 'I' for Inactive)
REMARK    1  A    between atoms: O_2  and  C_3
REMARK    2  A    between atoms: N_15  and  C_16
REMARK    3  A    between atoms: C_16  and  C_17
REMARK                            x       y       z     vdW  Elec       q    Type
REMARK                         _______ _______ _______ _____ _____    ______ ____
ROOT
ATOM      1  C   UNL     1      19.559   9.176  39.578  0.00  0.00    +0.000 A 
ATOM      2  C   UNL     1      18.653   8.801  40.562  0.00  0.00    +0.000 A 
ATOM      3  C   UNL     1      17.328   9.199  40.380  0.00  0.00    +0.000 A 
ATOM      4  O   UNL     1      16.452   8.900  41.223  0.00  0.00    +0.000 OA
ATOM      5  C   UNL     1      16.979   9.931  39.254  0.00  0.00    +0.000 A 
ATOM      6  C   UNL     1      15.668  10.312  39.096  0.00  0.00    +0.000 A 
ATOM      7  C   UNL     1      15.279  11.046  37.982  0.00  0.00    +0.000 A 
ATOM      8  C   UNL     1      13.840  11.432  37.864  0.00  0.00    +0.000 C 
ATOM      9  C   UNL     1      16.212  11.397  37.028  0.00  0.00    +0.000 A 
ATOM     10  C   UNL     1      15.729  12.182  35.863  0.00  0.00    +0.000 C 
ATOM     11  C   UNL     1      17.534  11.016  37.184  0.00  0.00    +0.000 A 
ATOM     12  C   UNL     1      17.916  10.284  38.295  0.00  0.00    +0.000 A 
ATOM     13  N   UNL     1      19.184   9.886  38.502  0.00  0.00    +0.000 N 
ENDROOT
BRANCH   1  15
ATOM     14  C   UNL     1      21.309   7.849  40.617  0.00  0.00    +0.000 C 
ATOM     15  O   UNL     1      20.899   8.827  39.671  0.00  0.00    +0.000 OA
ENDBRANCH   1  15
BRANCH  13  16
ATOM     16  C   UNL     1      20.164  10.255  37.499  0.00  0.00    +0.000 C 
BRANCH  16  17
ATOM     17  C   UNL     1      20.955  11.446  37.932  0.00  0.00    +0.000 A 
ATOM     18  C   UNL     1      22.334  11.450  37.920  0.00  0.00    +0.000 A 
ATOM     19  C   UNL     1      23.076  12.544  38.317  0.00  0.00    +0.000 A 
ATOM     20  C   UNL     1      22.459  13.701  38.750  0.00  0.00    +0.000 A 
ATOM     21  O   UNL     1      23.166  14.824  39.160  0.00  0.00    +0.000 OA
ATOM     22  C   UNL     1      21.078  13.697  38.764  0.00  0.00    +0.000 A 
ATOM     23  C   UNL     1      20.340  12.602  38.366  0.00  0.00    +0.000 A 
ENDBRANCH  16  17
ENDBRANCH  13  16
TORSDOF 3
ENDMDL
MODEL 9
REMARK VINA RESULT:      -6.1      2.267      4.909
REMARK  Name = 
REMARK  3 active torsions:
REMARK  status: ('A' for Active; 'I' for Inactive)
REMARK    1  A    between atoms: O_2  and  C_3
REMARK    2  A    between atoms: N_15  and  C_16
REMARK    3  A    between atoms: C_16  and  C_17
REMARK                            x       y       z     vdW  Elec       q    Type
REMARK                         _______ _______ _______ _____ _____    ______ ____
ROOT
ATOM      1  C   UNL     1      27.759  23.167  25.108  0.00  0.00    +0.000 A 
ATOM      2  C   UNL     1      26.694  23.396  25.970  0.00  0.00    +0.000 A 
ATOM      3  C   UNL     1      26.956  23.283  27.337  0.00  0.00    +0.000 A 
ATOM      4  O   UNL     1      26.048  23.475  28.177  0.00  0.00    +0.000 OA
ATOM      5  C   UNL     1      28.236  22.958  27.765  0.00  0.00    +0.000 A 
ATOM      6  C   UNL     1      28.471  22.853  29.115  0.00  0.00    +0.000 A 
ATOM      7  C   UNL     1      29.738  22.530  29.584  0.00  0.00    +0.000 A 
ATOM      8  C   UNL     1      29.934  22.429  31.062  0.00  0.00    +0.000 C 
ATOM      9  C   UNL     1      30.768  22.311  28.692  0.00  0.00    +0.000 A 
ATOM     10  C   UNL     1      32.097  21.968  29.261  0.00  0.00    +0.000 C 
ATOM     11  C   UNL     1      30.535  22.416  27.331  0.00  0.00    +0.000 A 
ATOM     12  C   UNL     1      29.271  22.739  26.870  0.00  0.00    +0.000 A 
ATOM     13  N   UNL     1      28.983  22.854  25.561  0.00  0.00    +0.000 N 
ENDROOT
BRANCH   1  15
ATOM     14  C   UNL     1      27.074  24.448  23.161  0.00  0.00    +0.000 C 
ATOM     15  O   UNL     1      27.595  23.256  23.733  0.00  0.00    +0.000 OA
ENDBRANCH   1  15
BRANCH  13  16
ATOM     16  C   UNL     1      30.065  22.625  24.624  0.00  0.00    +0.000 C 
BRANCH  16  17
ATOM     17  C   UNL     1      31.088  23.711  24.706  0.00  0.00    +0.000 A 
ATOM     18  C   UNL     1      30.733  25.042  24.782  0.00  0.00    +0.000 A 
ATOM     19  C   UNL     1      31.667  26.055  24.859  0.00  0.00    +0.000 A 
ATOM     20  C   UNL     1      33.019  25.775  24.863  0.00  0.00    +0.000 A 
ATOM     21  O   UNL     1      33.993  26.763  24.938  0.00  0.00    +0.000 OA
ATOM     22  C   UNL     1      33.374  24.443  24.786  0.00  0.00    +0.000 A 
ATOM     23  C   UNL     1      32.438  23.433  24.710  0.00  0.00    +0.000 A 
ENDBRANCH  16  17
ENDBRANCH  13  16
TORSDOF 3
ENDMDL
MODEL 10
REMARK VINA RESULT:      -5.9     14.404     16.693
REMARK  Name = 
REMARK  3 active torsions:
REMARK  status: ('A' for Active; 'I' for Inactive)
REMARK    1  A    between atoms: O_2  and  C_3
REMARK    2  A    between atoms: N_15  and  C_16
REMARK    3  A    between atoms: C_16  and  C_17
REMARK                            x       y       z     vdW  Elec       q    Type
REMARK                         _______ _______ _______ _____ _____    ______ ____
ROOT
ATOM      1  C   UNL     1      13.398  24.890  22.084  0.00  0.00    +0.000 A 
ATOM      2  C   UNL     1      14.372  24.109  21.476  0.00  0.00    +0.000 A 
ATOM      3  C   UNL     1      13.983  22.837  21.053  0.00  0.00    +0.000 A 
ATOM      4  O   UNL     1      14.804  22.072  20.496  0.00  0.00    +0.000 OA
ATOM      5  C   UNL     1      12.674  22.419  21.249  0.00  0.00    +0.000 A 
ATOM      6  C   UNL     1      12.313  21.163  20.823  0.00  0.00    +0.000 A 
ATOM      7  C   UNL     1      11.014  20.707  21.001  0.00  0.00    +0.000 A 
ATOM      8  C   UNL     1      10.680  19.332  20.519  0.00  0.00    +0.000 C 
ATOM      9  C   UNL     1      10.077  21.517  21.610  0.00  0.00    +0.000 A 
ATOM     10  C   UNL     1       8.706  20.968  21.770  0.00  0.00    +0.000 C 
ATOM     11  C   UNL     1      10.436  22.783  22.040  0.00  0.00    +0.000 A 
ATOM     12  C   UNL     1      11.733  23.232  21.860  0.00  0.00    +0.000 A 
ATOM     13  N   UNL     1      12.142  24.451  22.257  0.00  0.00    +0.000 N 
ENDROOT
BRANCH   1  15
ATOM     14  C   UNL     1      14.805  26.869  22.004  0.00  0.00    +0.000 C 
ATOM     15  O   UNL     1      13.690  26.169  22.538  0.00  0.00    +0.000 OA
ENDBRANCH   1  15
BRANCH  13  16
ATOM     16  C   UNL     1      11.157  25.302  22.896  0.00  0.00    +0.000 C 
BRANCH  16  17
ATOM     17  C   UNL     1      11.125  25.073  24.372  0.00  0.00    +0.000 A 
ATOM     18  C   UNL     1      10.087  24.402  24.984  0.00  0.00    +0.000 A 
ATOM     19  C   UNL     1      10.045  24.183  26.346  0.00  0.00    +0.000 A 
ATOM     20  C   UNL     1      11.058  24.635  27.168  0.00  0.00    +0.000 A 
ATOM     21  O   UNL     1      11.058  24.438  28.543  0.00  0.00    +0.000 OA
ATOM     22  C   UNL     1      12.098  25.308  26.556  0.00  0.00    +0.000 A 
ATOM     23  C   UNL     1      12.136  25.523  25.195  0.00  0.00    +0.000 A 
ENDBRANCH  16  17
ENDBRANCH  13  16
TORSDOF 3
ENDMDL
