MODEL 1
REMARK VINA RESULT:      -8.1      0.000      0.000
REMARK  Name = 
REMARK  8 active torsions:
REMARK  status: ('A' for Active; 'I' for Inactive)
REMARK    1  A    between atoms: O_2  and  C_3
REMARK    2  A    between atoms: C_7  and  C_8
REMARK    3  A    between atoms: C_10  and  C_11
REMARK    4  A    between atoms: N_13  and  C_14
REMARK    5  A    between atoms: C_14  and  C_15
REMARK    6  A    between atoms: C_15  and  C_16
REMARK    7  A    between atoms: C_19  and  O_20
REMARK    8  A    between atoms: C_22  and  O_23
REMARK                            x       y       z     vdW  Elec       q    Type
REMARK                         _______ _______ _______ _____ _____    ______ ____
ROOT
ATOM      1  C   UNL     1      41.551   6.832  19.755  0.00  0.00    +0.000 A 
ATOM      2  C   UNL     1      40.934   6.103  18.761  0.00  0.00    +0.000 A 
ATOM      3  C   UNL     1      39.631   6.351  18.379  0.00  0.00    +0.000 A 
ATOM      4  C   UNL     1      38.976   7.358  19.034  0.00  0.00    +0.000 A 
ATOM      5  C   UNL     1      37.674   7.629  18.679  0.00  0.00    +0.000 A 
ATOM      6  C   UNL     1      37.024   8.643  19.346  0.00  0.00    +0.000 A 
ATOM      7  C   UNL     1      37.607   9.394  20.345  0.00  0.00    +0.000 A 
ATOM      8  C   UNL     1      38.911   9.116  20.694  0.00  0.00    +0.000 A 
ATOM      9  C   UNL     1      39.586   8.106  20.042  0.00  0.00    +0.000 A 
ATOM     10  N   UNL     1      40.877   7.815  20.376  0.00  0.00    +0.000 NA
ENDROOT
BRANCH   1  15
ATOM     11  C   UNL     1      44.552   5.751  21.754  0.00  0.00    +0.000 A 
ATOM     12  C   UNL     1      45.570   5.986  20.855  0.00  0.00    +0.000 A 
ATOM     13  C   UNL     1      45.281   6.491  19.610  0.00  0.00    +0.000 A 
ATOM     14  C   UNL     1      43.961   6.769  19.251  0.00  0.00    +0.000 A 
ATOM     15  C   UNL     1      42.924   6.542  20.131  0.00  0.00    +0.000 A 
ATOM     16  C   UNL     1      43.246   6.035  21.370  0.00  0.00    +0.000 A 
BRANCH  11  18
ATOM     17  C   UNL     1      44.403   5.901  24.153  0.00  0.00    +0.000 C 
ATOM     18  O   UNL     1      44.859   5.245  22.994  0.00  0.00    +0.000 OA
ENDBRANCH  11  18
ENDBRANCH   1  15
BRANCH   3  19
ATOM     19  C   UNL     1      39.041   5.550  17.323  0.00  0.00    +0.000 C 
ATOM     20  O   UNL     1      39.161   5.906  16.120  0.00  0.00    +0.000 OA
ATOM     21  N   UNL     1      38.307   4.342  17.535  0.00  0.00    +0.000 NA
BRANCH  21  22
ATOM     22  C   UNL     1      37.757   3.604  16.404  0.00  0.00    +0.000 C 
BRANCH  22  23
ATOM     23  C   UNL     1      36.338   3.222  16.594  0.00  0.00    +0.000 C 
BRANCH  23  24
ATOM     24  C   UNL     1      36.176   1.767  16.354  0.00  0.00    +0.000 A 
ATOM     25  C   UNL     1      35.087   1.177  17.011  0.00  0.00    +0.000 A 
ATOM     26  C   UNL     1      34.812  -0.146  16.875  0.00  0.00    +0.000 A 
ATOM     27  C   UNL     1      35.622  -0.912  16.078  0.00  0.00    +0.000 A 
ATOM     28  C   UNL     1      36.704  -0.340  15.422  0.00  0.00    +0.000 A 
ATOM     29  C   UNL     1      36.973   1.002  15.567  0.00  0.00    +0.000 A 
BRANCH  27  30
ATOM     30  O   UNL     1      35.406  -2.263  15.893  0.00  0.00    +0.000 OA
ATOM     31  C   UNL     1      35.888  -3.159  16.874  0.00  0.00    +0.000 C 
ENDBRANCH  27  30
BRANCH  28  32
ATOM     32  O   UNL     1      37.514  -1.137  14.615  0.00  0.00    +0.000 OA
ATOM     33  C   UNL     1      38.870  -1.280  14.976  0.00  0.00    +0.000 C 
ENDBRANCH  28  32
ENDBRANCH  23  24
ENDBRANCH  22  23
ENDBRANCH  21  22
ENDBRANCH   3  19
TORSDOF 8
ENDMDL
MODEL 2
REMARK VINA RESULT:      -8.1     22.997     27.704
REMARK  Name = 
REMARK  8 active torsions:
REMARK  status: ('A' for Active; 'I' for Inactive)
REMARK    1  A    between atoms: O_2  and  C_3
REMARK    2  A    between atoms: C_7  and  C_8
REMARK    3  A    between atoms: C_10  and  C_11
REMARK    4  A    between atoms: N_13  and  C_14
REMARK    5  A    between atoms: C_14  and  C_15
REMARK    6  A    between atoms: C_15  and  C_16
REMARK    7  A    between atoms: C_19  and  O_20
REMARK    8  A    between atoms: C_22  and  O_23
REMARK                            x       y       z     vdW  Elec       q    Type
REMARK                         _______ _______ _______ _____ _____    ______ ____
ROOT
ATOM      1  C   UNL     1      11.425  -0.704  26.008  0.00  0.00    +0.000 A 
ATOM      2  C   UNL     1      12.684  -0.600  26.559  0.00  0.00    +0.000 A 
ATOM      3  C   UNL     1      13.187   0.607  27.001  0.00  0.00    +0.000 A 
ATOM      4  C   UNL     1      12.377   1.701  26.866  0.00  0.00    +0.000 A 
ATOM      5  C   UNL     1      12.849   2.920  27.295  0.00  0.00    +0.000 A 
ATOM      6  C   UNL     1      12.025   4.015  27.152  0.00  0.00    +0.000 A 
ATOM      7  C   UNL     1      10.761   3.950  26.607  0.00  0.00    +0.000 A 
ATOM      8  C   UNL     1      10.296   2.725  26.180  0.00  0.00    +0.000 A 
ATOM      9  C   UNL     1      11.099   1.613  26.311  0.00  0.00    +0.000 A 
ATOM     10  N   UNL     1      10.656   0.391  25.892  0.00  0.00    +0.000 NA
ENDROOT
BRANCH   1  15
ATOM     11  C   UNL     1      10.925  -3.808  23.936  0.00  0.00    +0.000 A 
ATOM     12  C   UNL     1       9.971  -4.472  24.677  0.00  0.00    +0.000 A 
ATOM     13  C   UNL     1       9.496  -3.914  25.839  0.00  0.00    +0.000 A 
ATOM     14  C   UNL     1       9.974  -2.677  26.275  0.00  0.00    +0.000 A 
ATOM     15  C   UNL     1      10.929  -1.992  25.553  0.00  0.00    +0.000 A 
ATOM     16  C   UNL     1      11.385  -2.577  24.393  0.00  0.00    +0.000 A 
BRANCH  11  18
ATOM     17  C   UNL     1      11.335  -5.778  22.613  0.00  0.00    +0.000 C 
ATOM     18  O   UNL     1      11.388  -4.381  22.776  0.00  0.00    +0.000 OA
ENDBRANCH  11  18
ENDBRANCH   1  15
BRANCH   3  19
ATOM     19  C   UNL     1      14.519   0.648  27.575  0.00  0.00    +0.000 C 
ATOM     20  O   UNL     1      14.693   0.342  28.785  0.00  0.00    +0.000 OA
ATOM     21  N   UNL     1      15.700   1.018  26.860  0.00  0.00    +0.000 NA
BRANCH  21  22
ATOM     22  C   UNL     1      16.997   1.023  27.528  0.00  0.00    +0.000 C 
BRANCH  22  23
ATOM     23  C   UNL     1      17.613  -0.321  27.612  0.00  0.00    +0.000 C 
BRANCH  23  24
ATOM     24  C   UNL     1      18.282  -0.645  26.328  0.00  0.00    +0.000 A 
ATOM     25  C   UNL     1      18.558  -2.006  26.131  0.00  0.00    +0.000 A 
ATOM     26  C   UNL     1      19.160  -2.448  24.997  0.00  0.00    +0.000 A 
ATOM     27  C   UNL     1      19.502  -1.539  24.030  0.00  0.00    +0.000 A 
ATOM     28  C   UNL     1      19.233  -0.188  24.213  0.00  0.00    +0.000 A 
ATOM     29  C   UNL     1      18.624   0.249  25.367  0.00  0.00    +0.000 A 
BRANCH  27  30
ATOM     30  O   UNL     1      20.116  -1.913  22.852  0.00  0.00    +0.000 OA
ATOM     31  C   UNL     1      19.918  -3.231  22.383  0.00  0.00    +0.000 C 
ENDBRANCH  27  30
BRANCH  28  32
ATOM     32  O   UNL     1      19.589   0.720  23.217  0.00  0.00    +0.000 OA
ATOM     33  C   UNL     1      20.427   1.797  23.573  0.00  0.00    +0.000 C 
ENDBRANCH  28  32
ENDBRANCH  23  24
ENDBRANCH  22  23
ENDBRANCH  21  22
ENDBRANCH   3  19
TORSDOF 8
ENDMDL
MODEL 3
REMARK VINA RESULT:      -8.0      2.616      5.113
REMARK  Name = 
REMARK  8 active torsions:
REMARK  status: ('A' for Active; 'I' for Inactive)
REMARK    1  A    between atoms: O_2  and  C_3
REMARK    2  A    between atoms: C_7  and  C_8
REMARK    3  A    between atoms: C_10  and  C_11
REMARK    4  A    between atoms: N_13  and  C_14
REMARK    5  A    between atoms: C_14  and  C_15
REMARK    6  A    between atoms: C_15  and  C_16
REMARK    7  A    between atoms: C_19  and  O_20
REMARK    8  A    between atoms: C_22  and  O_23
REMARK                            x       y       z     vdW  Elec       q    Type
REMARK                         _______ _______ _______ _____ _____    ______ ____
ROOT
ATOM      1  C   UNL     1      39.147   5.214  17.068  0.00  0.00    +0.000 A 
ATOM      2  C   UNL     1      38.074   4.357  17.191  0.00  0.00    +0.000 A 
ATOM      3  C   UNL     1      37.652   3.564  16.143  0.00  0.00    +0.000 A 
ATOM      4  C   UNL     1      38.350   3.666  14.971  0.00  0.00    +0.000 A 
ATOM      5  C   UNL     1      37.953   2.891  13.906  0.00  0.00    +0.000 A 
ATOM      6  C   UNL     1      38.662   3.004  12.730  0.00  0.00    +0.000 A 
ATOM      7  C   UNL     1      39.740   3.848  12.569  0.00  0.00    +0.000 A 
ATOM      8  C   UNL     1      40.129   4.621  13.641  0.00  0.00    +0.000 A 
ATOM      9  C   UNL     1      39.439   4.528  14.829  0.00  0.00    +0.000 A 
ATOM     10  N   UNL     1      39.809   5.288  15.902  0.00  0.00    +0.000 NA
ENDROOT
BRANCH   1  15
ATOM     11  C   UNL     1      41.299   6.882  19.668  0.00  0.00    +0.000 A 
ATOM     12  C   UNL     1      40.360   7.615  20.361  0.00  0.00    +0.000 A 
ATOM     13  C   UNL     1      39.039   7.566  19.986  0.00  0.00    +0.000 A 
ATOM     14  C   UNL     1      38.642   6.776  18.904  0.00  0.00    +0.000 A 
ATOM     15  C   UNL     1      39.562   6.034  18.193  0.00  0.00    +0.000 A 
ATOM     16  C   UNL     1      40.877   6.105  18.594  0.00  0.00    +0.000 A 
BRANCH  11  18
ATOM     17  C   UNL     1      43.036   6.263  21.216  0.00  0.00    +0.000 C 
ATOM     18  O   UNL     1      42.615   6.943  20.058  0.00  0.00    +0.000 OA
ENDBRANCH  11  18
ENDBRANCH   1  15
BRANCH   3  19
ATOM     19  C   UNL     1      36.518   2.681  16.340  0.00  0.00    +0.000 C 
ATOM     20  O   UNL     1      35.353   3.084  16.082  0.00  0.00    +0.000 OA
ATOM     21  N   UNL     1      36.609   1.337  16.821  0.00  0.00    +0.000 NA
BRANCH  21  22
ATOM     22  C   UNL     1      35.407   0.527  16.980  0.00  0.00    +0.000 C 
BRANCH  22  23
ATOM     23  C   UNL     1      35.358  -0.191  18.274  0.00  0.00    +0.000 C 
BRANCH  23  24
ATOM     24  C   UNL     1      36.306  -1.332  18.249  0.00  0.00    +0.000 A 
ATOM     25  C   UNL     1      37.234  -1.353  19.301  0.00  0.00    +0.000 A 
ATOM     26  C   UNL     1      38.156  -2.344  19.409  0.00  0.00    +0.000 A 
ATOM     27  C   UNL     1      38.172  -3.340  18.468  0.00  0.00    +0.000 A 
ATOM     28  C   UNL     1      37.258  -3.330  17.422  0.00  0.00    +0.000 A 
ATOM     29  C   UNL     1      36.329  -2.320  17.321  0.00  0.00    +0.000 A 
BRANCH  27  30
ATOM     30  O   UNL     1      39.080  -4.379  18.511  0.00  0.00    +0.000 OA
ATOM     31  C   UNL     1      39.105  -5.197  19.664  0.00  0.00    +0.000 C 
ENDBRANCH  27  30
BRANCH  28  32
ATOM     32  O   UNL     1      37.293  -4.353  16.475  0.00  0.00    +0.000 OA
ATOM     33  C   UNL     1      36.231  -4.434  15.550  0.00  0.00    +0.000 C 
ENDBRANCH  28  32
ENDBRANCH  23  24
ENDBRANCH  22  23
ENDBRANCH  21  22
ENDBRANCH   3  19
TORSDOF 8
ENDMDL
MODEL 4
REMARK VINA RESULT:      -7.9      2.735      9.810
REMARK  Name = 
REMARK  8 active torsions:
REMARK  status: ('A' for Active; 'I' for Inactive)
REMARK    1  A    between atoms: O_2  and  C_3
REMARK    2  A    between atoms: C_7  and  C_8
REMARK    3  A    between atoms: C_10  and  C_11
REMARK    4  A    between atoms: N_13  and  C_14
REMARK    5  A    between atoms: C_14  and  C_15
REMARK    6  A    between atoms: C_15  and  C_16
REMARK    7  A    between atoms: C_19  and  O_20
REMARK    8  A    between atoms: C_22  and  O_23
REMARK                            x       y       z     vdW  Elec       q    Type
REMARK                         _______ _______ _______ _____ _____    ______ ____
ROOT
ATOM      1  C   UNL     1      38.934  -0.852  14.531  0.00  0.00    +0.000 A 
ATOM      2  C   UNL     1      38.919   0.526  14.521  0.00  0.00    +0.000 A 
ATOM      3  C   UNL     1      37.894   1.248  15.097  0.00  0.00    +0.000 A 
ATOM      4  C   UNL     1      36.887   0.531  15.682  0.00  0.00    +0.000 A 
ATOM      5  C   UNL     1      35.848   1.220  16.264  0.00  0.00    +0.000 A 
ATOM      6  C   UNL     1      34.838   0.488  16.849  0.00  0.00    +0.000 A 
ATOM      7  C   UNL     1      34.817  -0.891  16.880  0.00  0.00    +0.000 A 
ATOM      8  C   UNL     1      35.862  -1.572  16.295  0.00  0.00    +0.000 A 
ATOM      9  C   UNL     1      36.886  -0.865  15.703  0.00  0.00    +0.000 A 
ATOM     10  N   UNL     1      37.928  -1.524  15.117  0.00  0.00    +0.000 NA
ENDROOT
BRANCH   1  15
ATOM     11  C   UNL     1      40.974  -2.780  12.023  0.00  0.00    +0.000 A 
ATOM     12  C   UNL     1      42.143  -2.979  12.726  0.00  0.00    +0.000 A 
ATOM     13  C   UNL     1      42.265  -2.490  14.004  0.00  0.00    +0.000 A 
ATOM     14  C   UNL     1      41.210  -1.791  14.596  0.00  0.00    +0.000 A 
ATOM     15  C   UNL     1      40.030  -1.578  13.914  0.00  0.00    +0.000 A 
ATOM     16  C   UNL     1      39.939  -2.081  12.635  0.00  0.00    +0.000 A 
BRANCH  11  18
ATOM     17  C   UNL     1      40.386  -2.455   9.711  0.00  0.00    +0.000 C 
ATOM     18  O   UNL     1      40.870  -3.276  10.746  0.00  0.00    +0.000 OA
ENDBRANCH  11  18
ENDBRANCH   1  15
BRANCH   3  19
ATOM     19  C   UNL     1      37.941   2.697  15.054  0.00  0.00    +0.000 C 
ATOM     20  O   UNL     1      37.358   3.320  14.126  0.00  0.00    +0.000 OA
ATOM     21  N   UNL     1      38.618   3.516  16.011  0.00  0.00    +0.000 NA
BRANCH  21  22
ATOM     22  C   UNL     1      38.603   4.968  15.882  0.00  0.00    +0.000 C 
BRANCH  22  23
ATOM     23  C   UNL     1      38.326   5.663  17.160  0.00  0.00    +0.000 C 
BRANCH  23  24
ATOM     24  C   UNL     1      39.603   5.969  17.850  0.00  0.00    +0.000 A 
ATOM     25  C   UNL     1      39.510   6.079  19.245  0.00  0.00    +0.000 A 
ATOM     26  C   UNL     1      40.603   6.347  20.006  0.00  0.00    +0.000 A 
ATOM     27  C   UNL     1      41.816   6.511  19.390  0.00  0.00    +0.000 A 
ATOM     28  C   UNL     1      41.921   6.404  18.010  0.00  0.00    +0.000 A 
ATOM     29  C   UNL     1      40.807   6.133  17.248  0.00  0.00    +0.000 A 
BRANCH  27  30
ATOM     30  O   UNL     1      42.969   6.786  20.098  0.00  0.00    +0.000 OA
ATOM     31  C   UNL     1      43.174   6.122  21.329  0.00  0.00    +0.000 C 
ENDBRANCH  27  30
BRANCH  28  32
ATOM     32  O   UNL     1      43.164   6.574  17.404  0.00  0.00    +0.000 OA
ATOM     33  C   UNL     1      43.192   6.914  16.035  0.00  0.00    +0.000 C 
ENDBRANCH  28  32
ENDBRANCH  23  24
ENDBRANCH  22  23
ENDBRANCH  21  22
ENDBRANCH   3  19
TORSDOF 8
ENDMDL
MODEL 5
REMARK VINA RESULT:      -7.9      1.199      2.076
REMARK  Name = 
REMARK  8 active torsions:
REMARK  status: ('A' for Active; 'I' for Inactive)
REMARK    1  A    between atoms: O_2  and  C_3
REMARK    2  A    between atoms: C_7  and  C_8
REMARK    3  A    between atoms: C_10  and  C_11
REMARK    4  A    between atoms: N_13  and  C_14
REMARK    5  A    between atoms: C_14  and  C_15
REMARK    6  A    between atoms: C_15  and  C_16
REMARK    7  A    between atoms: C_19  and  O_20
REMARK    8  A    between atoms: C_22  and  O_23
REMARK                            x       y       z     vdW  Elec       q    Type
REMARK                         _______ _______ _______ _____ _____    ______ ____
ROOT
ATOM      1  C   UNL     1      41.658   6.842  19.974  0.00  0.00    +0.000 A 
ATOM      2  C   UNL     1      40.980   6.034  19.086  0.00  0.00    +0.000 A 
ATOM      3  C   UNL     1      39.677   6.295  18.714  0.00  0.00    +0.000 A 
ATOM      4  C   UNL     1      39.084   7.396  19.268  0.00  0.00    +0.000 A 
ATOM      5  C   UNL     1      37.785   7.683  18.920  0.00  0.00    +0.000 A 
ATOM      6  C   UNL     1      37.197   8.793  19.485  0.00  0.00    +0.000 A 
ATOM      7  C   UNL     1      37.842   9.625  20.376  0.00  0.00    +0.000 A 
ATOM      8  C   UNL     1      39.144   9.330  20.719  0.00  0.00    +0.000 A 
ATOM      9  C   UNL     1      39.756   8.225  20.168  0.00  0.00    +0.000 A 
ATOM     10  N   UNL     1      41.044   7.916  20.498  0.00  0.00    +0.000 NA
ENDROOT
BRANCH   1  15
ATOM     11  C   UNL     1      44.649   5.664  21.932  0.00  0.00    +0.000 A 
ATOM     12  C   UNL     1      45.672   5.948  21.054  0.00  0.00    +0.000 A 
ATOM     13  C   UNL     1      45.390   6.518  19.836  0.00  0.00    +0.000 A 
ATOM     14  C   UNL     1      44.071   6.811  19.483  0.00  0.00    +0.000 A 
ATOM     15  C   UNL     1      43.029   6.536  20.343  0.00  0.00    +0.000 A 
ATOM     16  C   UNL     1      43.344   5.965  21.556  0.00  0.00    +0.000 A 
BRANCH  11  18
ATOM     17  C   UNL     1      44.548   5.727  24.338  0.00  0.00    +0.000 C 
ATOM     18  O   UNL     1      44.950   5.094  23.146  0.00  0.00    +0.000 OA
ENDBRANCH  11  18
ENDBRANCH   1  15
BRANCH   3  19
ATOM     19  C   UNL     1      39.022   5.406  17.772  0.00  0.00    +0.000 C 
ATOM     20  O   UNL     1      38.559   4.302  18.165  0.00  0.00    +0.000 OA
ATOM     21  N   UNL     1      38.847   5.685  16.381  0.00  0.00    +0.000 NA
BRANCH  21  22
ATOM     22  C   UNL     1      38.169   4.727  15.515  0.00  0.00    +0.000 C 
BRANCH  22  23
ATOM     23  C   UNL     1      39.104   3.835  14.790  0.00  0.00    +0.000 C 
BRANCH  23  24
ATOM     24  C   UNL     1      38.639   2.431  14.897  0.00  0.00    +0.000 A 
ATOM     25  C   UNL     1      39.582   1.465  14.515  0.00  0.00    +0.000 A 
ATOM     26  C   UNL     1      39.295   0.139  14.570  0.00  0.00    +0.000 A 
ATOM     27  C   UNL     1      38.058  -0.255  15.009  0.00  0.00    +0.000 A 
ATOM     28  C   UNL     1      37.117   0.692  15.391  0.00  0.00    +0.000 A 
ATOM     29  C   UNL     1      37.417   2.034  15.330  0.00  0.00    +0.000 A 
BRANCH  27  30
ATOM     30  O   UNL     1      37.695  -1.585  15.092  0.00  0.00    +0.000 OA
ATOM     31  C   UNL     1      38.694  -2.533  15.411  0.00  0.00    +0.000 C 
ENDBRANCH  27  30
BRANCH  28  32
ATOM     32  O   UNL     1      35.865   0.269  15.835  0.00  0.00    +0.000 OA
ATOM     33  C   UNL     1      35.077   1.187  16.561  0.00  0.00    +0.000 C 
ENDBRANCH  28  32
ENDBRANCH  23  24
ENDBRANCH  22  23
ENDBRANCH  21  22
ENDBRANCH   3  19
TORSDOF 8
ENDMDL
MODEL 6
REMARK VINA RESULT:      -7.7      2.731      9.720
REMARK  Name = 
REMARK  8 active torsions:
REMARK  status: ('A' for Active; 'I' for Inactive)
REMARK    1  A    between atoms: O_2  and  C_3
REMARK    2  A    between atoms: C_7  and  C_8
REMARK    3  A    between atoms: C_10  and  C_11
REMARK    4  A    between atoms: N_13  and  C_14
REMARK    5  A    between atoms: C_14  and  C_15
REMARK    6  A    between atoms: C_15  and  C_16
REMARK    7  A    between atoms: C_19  and  O_20
REMARK    8  A    between atoms: C_22  and  O_23
REMARK                            x       y       z     vdW  Elec       q    Type
REMARK                         _______ _______ _______ _____ _____    ______ ____
ROOT
ATOM      1  C   UNL     1      38.576  -0.848  14.530  0.00  0.00    +0.000 A 
ATOM      2  C   UNL     1      38.571   0.528  14.599  0.00  0.00    +0.000 A 
ATOM      3  C   UNL     1      37.580   1.220  15.266  0.00  0.00    +0.000 A 
ATOM      4  C   UNL     1      36.598   0.474  15.859  0.00  0.00    +0.000 A 
ATOM      5  C   UNL     1      35.595   1.133  16.531  0.00  0.00    +0.000 A 
ATOM      6  C   UNL     1      34.610   0.373  17.122  0.00  0.00    +0.000 A 
ATOM      7  C   UNL     1      34.581  -1.005  17.075  0.00  0.00    +0.000 A 
ATOM      8  C   UNL     1      35.590  -1.656  16.401  0.00  0.00    +0.000 A 
ATOM      9  C   UNL     1      36.588  -0.920  15.800  0.00  0.00    +0.000 A 
ATOM     10  N   UNL     1      37.595  -1.548  15.125  0.00  0.00    +0.000 NA
ENDROOT
BRANCH   1  15
ATOM     11  C   UNL     1      41.972  -2.169  13.585  0.00  0.00    +0.000 A 
ATOM     12  C   UNL     1      41.674  -2.879  12.443  0.00  0.00    +0.000 A 
ATOM     13  C   UNL     1      40.380  -2.927  11.984  0.00  0.00    +0.000 A 
ATOM     14  C   UNL     1      39.363  -2.259  12.671  0.00  0.00    +0.000 A 
ATOM     15  C   UNL     1      39.635  -1.542  13.817  0.00  0.00    +0.000 A 
ATOM     16  C   UNL     1      40.942  -1.514  14.250  0.00  0.00    +0.000 A 
BRANCH  11  18
ATOM     17  C   UNL     1      44.117  -1.074  13.641  0.00  0.00    +0.000 C 
ATOM     18  O   UNL     1      43.272  -2.132  14.029  0.00  0.00    +0.000 OA
ENDBRANCH  11  18
ENDBRANCH   1  15
BRANCH   3  19
ATOM     19  C   UNL     1      37.636   2.669  15.305  0.00  0.00    +0.000 C 
ATOM     20  O   UNL     1      37.138   3.344  14.364  0.00  0.00    +0.000 OA
ATOM     21  N   UNL     1      38.230   3.431  16.358  0.00  0.00    +0.000 NA
BRANCH  21  22
ATOM     22  C   UNL     1      38.231   4.888  16.306  0.00  0.00    +0.000 C 
BRANCH  22  23
ATOM     23  C   UNL     1      39.574   5.460  16.054  0.00  0.00    +0.000 C 
BRANCH  23  24
ATOM     24  C   UNL     1      40.124   6.017  17.314  0.00  0.00    +0.000 A 
ATOM     25  C   UNL     1      41.514   6.201  17.322  0.00  0.00    +0.000 A 
ATOM     26  C   UNL     1      42.152   6.712  18.407  0.00  0.00    +0.000 A 
ATOM     27  C   UNL     1      41.415   7.051  19.512  0.00  0.00    +0.000 A 
ATOM     28  C   UNL     1      40.037   6.873  19.516  0.00  0.00    +0.000 A 
ATOM     29  C   UNL     1      39.401   6.354  18.411  0.00  0.00    +0.000 A 
BRANCH  27  30
ATOM     30  O   UNL     1      41.994   7.575  20.651  0.00  0.00    +0.000 OA
ATOM     31  C   UNL     1      42.682   8.805  20.547  0.00  0.00    +0.000 C 
ENDBRANCH  27  30
BRANCH  28  32
ATOM     32  O   UNL     1      39.307   7.225  20.649  0.00  0.00    +0.000 OA
ATOM     33  C   UNL     1      38.527   8.399  20.595  0.00  0.00    +0.000 C 
ENDBRANCH  28  32
ENDBRANCH  23  24
ENDBRANCH  22  23
ENDBRANCH  21  22
ENDBRANCH   3  19
TORSDOF 8
ENDMDL
MODEL 7
REMARK VINA RESULT:      -7.7      2.830      5.103
REMARK  Name = 
REMARK  8 active torsions:
REMARK  status: ('A' for Active; 'I' for Inactive)
REMARK    1  A    between atoms: O_2  and  C_3
REMARK    2  A    between atoms: C_7  and  C_8
REMARK    3  A    between atoms: C_10  and  C_11
REMARK    4  A    between atoms: N_13  and  C_14
REMARK    5  A    between atoms: C_14  and  C_15
REMARK    6  A    between atoms: C_15  and  C_16
REMARK    7  A    between atoms: C_19  and  O_20
REMARK    8  A    between atoms: C_22  and  O_23
REMARK                            x       y       z     vdW  Elec       q    Type
REMARK                         _______ _______ _______ _____ _____    ______ ____
ROOT
ATOM      1  C   UNL     1      39.161   5.062  16.737  0.00  0.00    +0.000 A 
ATOM      2  C   UNL     1      38.148   4.201  17.101  0.00  0.00    +0.000 A 
ATOM      3  C   UNL     1      37.390   3.531  16.163  0.00  0.00    +0.000 A 
ATOM      4  C   UNL     1      37.689   3.761  14.848  0.00  0.00    +0.000 A 
ATOM      5  C   UNL     1      36.950   3.110  13.887  0.00  0.00    +0.000 A 
ATOM      6  C   UNL     1      37.259   3.350  12.566  0.00  0.00    +0.000 A 
ATOM      7  C   UNL     1      38.265   4.203  12.163  0.00  0.00    +0.000 A 
ATOM      8  C   UNL     1      38.999   4.850  13.132  0.00  0.00    +0.000 A 
ATOM      9  C   UNL     1      38.712   4.629  14.461  0.00  0.00    +0.000 A 
ATOM     10  N   UNL     1      39.428   5.263  15.435  0.00  0.00    +0.000 NA
ENDROOT
BRANCH   1  15
ATOM     11  C   UNL     1      41.932   6.964  18.432  0.00  0.00    +0.000 A 
ATOM     12  C   UNL     1      41.434   7.077  19.712  0.00  0.00    +0.000 A 
ATOM     13  C   UNL     1      40.208   6.540  20.019  0.00  0.00    +0.000 A 
ATOM     14  C   UNL     1      39.462   5.878  19.041  0.00  0.00    +0.000 A 
ATOM     15  C   UNL     1      39.938   5.752  17.753  0.00  0.00    +0.000 A 
ATOM     16  C   UNL     1      41.170   6.301  17.476  0.00  0.00    +0.000 A 
BRANCH  11  18
ATOM     17  C   UNL     1      43.971   6.924  17.151  0.00  0.00    +0.000 C 
ATOM     18  O   UNL     1      43.161   7.508  18.143  0.00  0.00    +0.000 OA
ENDBRANCH  11  18
ENDBRANCH   1  15
BRANCH   3  19
ATOM     19  C   UNL     1      36.341   2.636  16.613  0.00  0.00    +0.000 C 
ATOM     20  O   UNL     1      35.131   2.964  16.480  0.00  0.00    +0.000 OA
ATOM     21  N   UNL     1      36.567   1.361  17.220  0.00  0.00    +0.000 NA
BRANCH  21  22
ATOM     22  C   UNL     1      35.442   0.532  17.636  0.00  0.00    +0.000 C 
BRANCH  22  23
ATOM     23  C   UNL     1      35.081  -0.502  16.638  0.00  0.00    +0.000 C 
BRANCH  23  24
ATOM     24  C   UNL     1      36.313  -1.050  16.019  0.00  0.00    +0.000 A 
ATOM     25  C   UNL     1      37.194  -1.679  16.910  0.00  0.00    +0.000 A 
ATOM     26  C   UNL     1      38.356  -2.234  16.480  0.00  0.00    +0.000 A 
ATOM     27  C   UNL     1      38.666  -2.174  15.146  0.00  0.00    +0.000 A 
ATOM     28  C   UNL     1      37.801  -1.554  14.253  0.00  0.00    +0.000 A 
ATOM     29  C   UNL     1      36.626  -0.994  14.700  0.00  0.00    +0.000 A 
BRANCH  27  30
ATOM     30  O   UNL     1      39.829  -2.715  14.636  0.00  0.00    +0.000 OA
ATOM     31  C   UNL     1      41.022  -1.965  14.748  0.00  0.00    +0.000 C 
ENDBRANCH  27  30
BRANCH  28  32
ATOM     32  O   UNL     1      38.136  -1.505  12.901  0.00  0.00    +0.000 OA
ATOM     33  C   UNL     1      37.944  -0.287  12.217  0.00  0.00    +0.000 C 
ENDBRANCH  28  32
ENDBRANCH  23  24
ENDBRANCH  22  23
ENDBRANCH  21  22
ENDBRANCH   3  19
TORSDOF 8
ENDMDL
MODEL 8
REMARK VINA RESULT:      -7.6      2.633      4.858
REMARK  Name = 
REMARK  8 active torsions:
REMARK  status: ('A' for Active; 'I' for Inactive)
REMARK    1  A    between atoms: O_2  and  C_3
REMARK    2  A    between atoms: C_7  and  C_8
REMARK    3  A    between atoms: C_10  and  C_11
REMARK    4  A    between atoms: N_13  and  C_14
REMARK    5  A    between atoms: C_14  and  C_15
REMARK    6  A    between atoms: C_15  and  C_16
REMARK    7  A    between atoms: C_19  and  O_20
REMARK    8  A    between atoms: C_22  and  O_23
REMARK                            x       y       z     vdW  Elec       q    Type
REMARK                         _______ _______ _______ _____ _____    ______ ____
ROOT
ATOM      1  C   UNL     1      39.410   5.209  17.016  0.00  0.00    +0.000 A 
ATOM      2  C   UNL     1      38.293   4.431  17.235  0.00  0.00    +0.000 A 
ATOM      3  C   UNL     1      37.709   3.695  16.224  0.00  0.00    +0.000 A 
ATOM      4  C   UNL     1      38.291   3.772  14.989  0.00  0.00    +0.000 A 
ATOM      5  C   UNL     1      37.732   3.052  13.958  0.00  0.00    +0.000 A 
ATOM      6  C   UNL     1      38.324   3.138  12.718  0.00  0.00    +0.000 A 
ATOM      7  C   UNL     1      39.441   3.905  12.460  0.00  0.00    +0.000 A 
ATOM      8  C   UNL     1      39.994   4.622  13.498  0.00  0.00    +0.000 A 
ATOM      9  C   UNL     1      39.422   4.554  14.749  0.00  0.00    +0.000 A 
ATOM     10  N   UNL     1      39.955   5.260  15.789  0.00  0.00    +0.000 NA
ENDROOT
BRANCH   1  15
ATOM     11  C   UNL     1      41.915   7.042  19.146  0.00  0.00    +0.000 A 
ATOM     12  C   UNL     1      41.127   7.439  20.203  0.00  0.00    +0.000 A 
ATOM     13  C   UNL     1      39.792   7.113  20.223  0.00  0.00    +0.000 A 
ATOM     14  C   UNL     1      39.230   6.380  19.175  0.00  0.00    +0.000 A 
ATOM     15  C   UNL     1      39.997   5.971  18.105  0.00  0.00    +0.000 A 
ATOM     16  C   UNL     1      41.330   6.314  18.115  0.00  0.00    +0.000 A 
BRANCH  11  18
ATOM     17  C   UNL     1      43.833   7.921  17.984  0.00  0.00    +0.000 C 
ATOM     18  O   UNL     1      43.248   7.377  19.143  0.00  0.00    +0.000 OA
ENDBRANCH  11  18
ENDBRANCH   1  15
BRANCH   3  19
ATOM     19  C   UNL     1      36.537   2.893  16.523  0.00  0.00    +0.000 C 
ATOM     20  O   UNL     1      35.401   3.267  16.126  0.00  0.00    +0.000 OA
ATOM     21  N   UNL     1      36.558   1.667  17.258  0.00  0.00    +0.000 NA
BRANCH  21  22
ATOM     22  C   UNL     1      35.323   0.932  17.502  0.00  0.00    +0.000 C 
BRANCH  22  23
ATOM     23  C   UNL     1      35.524  -0.290  18.315  0.00  0.00    +0.000 C 
BRANCH  23  24
ATOM     24  C   UNL     1      35.690  -1.462  17.422  0.00  0.00    +0.000 A 
ATOM     25  C   UNL     1      34.493  -2.031  16.963  0.00  0.00    +0.000 A 
ATOM     26  C   UNL     1      34.495  -3.105  16.131  0.00  0.00    +0.000 A 
ATOM     27  C   UNL     1      35.695  -3.636  15.737  0.00  0.00    +0.000 A 
ATOM     28  C   UNL     1      36.887  -3.082  16.185  0.00  0.00    +0.000 A 
ATOM     29  C   UNL     1      36.874  -1.994  17.028  0.00  0.00    +0.000 A 
BRANCH  27  30
ATOM     30  O   UNL     1      35.776  -4.727  14.895  0.00  0.00    +0.000 OA
ATOM     31  C   UNL     1      34.776  -5.722  14.990  0.00  0.00    +0.000 C 
ENDBRANCH  27  30
BRANCH  28  32
ATOM     32  O   UNL     1      38.097  -3.638  15.771  0.00  0.00    +0.000 OA
ATOM     33  C   UNL     1      39.273  -3.233  16.437  0.00  0.00    +0.000 C 
ENDBRANCH  28  32
ENDBRANCH  23  24
ENDBRANCH  22  23
ENDBRANCH  21  22
ENDBRANCH   3  19
TORSDOF 8
ENDMDL
MODEL 9
REMARK VINA RESULT:      -7.6      3.131      6.251
REMARK  Name = 
REMARK  8 active torsions:
REMARK  status: ('A' for Active; 'I' for Inactive)
REMARK    1  A    between atoms: O_2  and  C_3
REMARK    2  A    between atoms: C_7  and  C_8
REMARK    3  A    between atoms: C_10  and  C_11
REMARK    4  A    between atoms: N_13  and  C_14
REMARK    5  A    between atoms: C_14  and  C_15
REMARK    6  A    between atoms: C_15  and  C_16
REMARK    7  A    between atoms: C_19  and  O_20
REMARK    8  A    between atoms: C_22  and  O_23
REMARK                            x       y       z     vdW  Elec       q    Type
REMARK                         _______ _______ _______ _____ _____    ______ ____
ROOT
ATOM      1  C   UNL     1      38.326   3.988  15.882  0.00  0.00    +0.000 A 
ATOM      2  C   UNL     1      38.993   3.074  15.096  0.00  0.00    +0.000 A 
ATOM      3  C   UNL     1      38.495   1.807  14.870  0.00  0.00    +0.000 A 
ATOM      4  C   UNL     1      37.302   1.497  15.465  0.00  0.00    +0.000 A 
ATOM      5  C   UNL     1      36.779   0.241  15.262  0.00  0.00    +0.000 A 
ATOM      6  C   UNL     1      35.579  -0.061  15.867  0.00  0.00    +0.000 A 
ATOM      7  C   UNL     1      34.882   0.826  16.660  0.00  0.00    +0.000 A 
ATOM      8  C   UNL     1      35.413   2.082  16.857  0.00  0.00    +0.000 A 
ATOM      9  C   UNL     1      36.613   2.411  16.264  0.00  0.00    +0.000 A 
ATOM     10  N   UNL     1      37.156   3.649  16.450  0.00  0.00    +0.000 NA
ENDROOT
BRANCH   1  15
ATOM     11  C   UNL     1      39.869   6.981  17.566  0.00  0.00    +0.000 A 
ATOM     12  C   UNL     1      39.951   7.866  16.513  0.00  0.00    +0.000 A 
ATOM     13  C   UNL     1      39.508   7.492  15.268  0.00  0.00    +0.000 A 
ATOM     14  C   UNL     1      38.974   6.218  15.062  0.00  0.00    +0.000 A 
ATOM     15  C   UNL     1      38.881   5.313  16.099  0.00  0.00    +0.000 A 
ATOM     16  C   UNL     1      39.334   5.718  17.334  0.00  0.00    +0.000 A 
BRANCH  11  18
ATOM     17  C   UNL     1      40.412   6.431  19.847  0.00  0.00    +0.000 C 
ATOM     18  O   UNL     1      40.316   7.373  18.805  0.00  0.00    +0.000 OA
ENDBRANCH  11  18
ENDBRANCH   1  15
BRANCH   3  19
ATOM     19  C   UNL     1      39.246   0.894  14.029  0.00  0.00    +0.000 C 
ATOM     20  O   UNL     1      39.001   0.829  12.795  0.00  0.00    +0.000 OA
ATOM     21  N   UNL     1      40.281   0.026  14.496  0.00  0.00    +0.000 NA
BRANCH  21  22
ATOM     22  C   UNL     1      40.981  -0.854  13.568  0.00  0.00    +0.000 C 
BRANCH  22  23
ATOM     23  C   UNL     1      41.001  -2.268  14.009  0.00  0.00    +0.000 C 
BRANCH  23  24
ATOM     24  C   UNL     1      39.653  -2.661  14.488  0.00  0.00    +0.000 A 
ATOM     25  C   UNL     1      38.693  -2.830  13.479  0.00  0.00    +0.000 A 
ATOM     26  C   UNL     1      37.419  -3.198  13.772  0.00  0.00    +0.000 A 
ATOM     27  C   UNL     1      37.073  -3.406  15.081  0.00  0.00    +0.000 A 
ATOM     28  C   UNL     1      38.014  -3.242  16.089  0.00  0.00    +0.000 A 
ATOM     29  C   UNL     1      39.303  -2.868  15.781  0.00  0.00    +0.000 A 
BRANCH  27  30
ATOM     30  O   UNL     1      35.798  -3.780  15.455  0.00  0.00    +0.000 OA
ATOM     31  C   UNL     1      35.280  -4.993  14.946  0.00  0.00    +0.000 C 
ENDBRANCH  27  30
BRANCH  28  32
ATOM     32  O   UNL     1      37.641  -3.459  17.414  0.00  0.00    +0.000 OA
ATOM     33  C   UNL     1      38.664  -3.674  18.362  0.00  0.00    +0.000 C 
ENDBRANCH  28  32
ENDBRANCH  23  24
ENDBRANCH  22  23
ENDBRANCH  21  22
ENDBRANCH   3  19
TORSDOF 8
ENDMDL
MODEL 10
REMARK VINA RESULT:      -7.5     23.178     26.218
REMARK  Name = 
REMARK  8 active torsions:
REMARK  status: ('A' for Active; 'I' for Inactive)
REMARK    1  A    between atoms: O_2  and  C_3
REMARK    2  A    between atoms: C_7  and  C_8
REMARK    3  A    between atoms: C_10  and  C_11
REMARK    4  A    between atoms: N_13  and  C_14
REMARK    5  A    between atoms: C_14  and  C_15
REMARK    6  A    between atoms: C_15  and  C_16
REMARK    7  A    between atoms: C_19  and  O_20
REMARK    8  A    between atoms: C_22  and  O_23
REMARK                            x       y       z     vdW  Elec       q    Type
REMARK                         _______ _______ _______ _____ _____    ______ ____
ROOT
ATOM      1  C   UNL     1      27.075  15.506  35.929  0.00  0.00    +0.000 A 
ATOM      2  C   UNL     1      26.502  15.505  37.182  0.00  0.00    +0.000 A 
ATOM      3  C   UNL     1      27.264  15.428  38.331  0.00  0.00    +0.000 A 
ATOM      4  C   UNL     1      28.620  15.353  38.169  0.00  0.00    +0.000 A 
ATOM      5  C   UNL     1      29.408  15.273  39.294  0.00  0.00    +0.000 A 
ATOM      6  C   UNL     1      30.772  15.195  39.119  0.00  0.00    +0.000 A 
ATOM      7  C   UNL     1      31.383  15.195  37.882  0.00  0.00    +0.000 A 
ATOM      8  C   UNL     1      30.585  15.275  36.761  0.00  0.00    +0.000 A 
ATOM      9  C   UNL     1      29.217  15.354  36.907  0.00  0.00    +0.000 A 
ATOM     10  N   UNL     1      28.412  15.432  35.808  0.00  0.00    +0.000 NA
ENDROOT
BRANCH   1  15
ATOM     11  C   UNL     1      24.663  16.796  33.342  0.00  0.00    +0.000 A 
ATOM     12  C   UNL     1      24.635  15.742  32.455  0.00  0.00    +0.000 A 
ATOM     13  C   UNL     1      25.393  14.622  32.697  0.00  0.00    +0.000 A 
ATOM     14  C   UNL     1      26.194  14.546  33.839  0.00  0.00    +0.000 A 
ATOM     15  C   UNL     1      26.242  15.588  34.742  0.00  0.00    +0.000 A 
ATOM     16  C   UNL     1      25.470  16.695  34.471  0.00  0.00    +0.000 A 
BRANCH  11  18
ATOM     17  C   UNL     1      24.512  19.096  32.644  0.00  0.00    +0.000 C 
ATOM     18  O   UNL     1      23.898  17.908  33.084  0.00  0.00    +0.000 OA
ENDBRANCH  11  18
ENDBRANCH   1  15
BRANCH   3  19
ATOM     19  C   UNL     1      26.598  15.435  39.620  0.00  0.00    +0.000 C 
ATOM     20  O   UNL     1      26.429  16.521  40.236  0.00  0.00    +0.000 OA
ATOM     21  N   UNL     1      26.096  14.270  40.280  0.00  0.00    +0.000 NA
BRANCH  21  22
ATOM     22  C   UNL     1      25.436  14.383  41.575  0.00  0.00    +0.000 C 
BRANCH  22  23
ATOM     23  C   UNL     1      26.118  13.617  42.644  0.00  0.00    +0.000 C 
BRANCH  23  24
ATOM     24  C   UNL     1      26.834  12.461  42.051  0.00  0.00    +0.000 A 
ATOM     25  C   UNL     1      28.200  12.673  41.809  0.00  0.00    +0.000 A 
ATOM     26  C   UNL     1      28.982  11.698  41.277  0.00  0.00    +0.000 A 
ATOM     27  C   UNL     1      28.417  10.486  40.974  0.00  0.00    +0.000 A 
ATOM     28  C   UNL     1      27.066  10.265  41.210  0.00  0.00    +0.000 A 
ATOM     29  C   UNL     1      26.283  11.260  41.748  0.00  0.00    +0.000 A 
BRANCH  27  30
ATOM     30  O   UNL     1      29.148   9.449  40.431  0.00  0.00    +0.000 OA
ATOM     31  C   UNL     1      30.276   8.981  41.142  0.00  0.00    +0.000 C 
ENDBRANCH  27  30
BRANCH  28  32
ATOM     32  O   UNL     1      26.512   9.025  40.894  0.00  0.00    +0.000 OA
ATOM     33  C   UNL     1      26.240   8.134  41.954  0.00  0.00    +0.000 C 
ENDBRANCH  28  32
ENDBRANCH  23  24
ENDBRANCH  22  23
ENDBRANCH  21  22
ENDBRANCH   3  19
TORSDOF 8
ENDMDL
