MODEL 1
REMARK VINA RESULT:      -6.8      0.000      0.000
REMARK  Name = 
REMARK  6 active torsions:
REMARK  status: ('A' for Active; 'I' for Inactive)
REMARK    1  A    between atoms: C_2  and  C_3
REMARK    2  A    between atoms: C_4  and  C_5
REMARK    3  A    between atoms: N_7  and  C_9
REMARK    4  A    between atoms: C_9  and  C_10
REMARK    5  A    between atoms: C_10  and  C_11
REMARK    6  A    between atoms: N_19  and  C_20
REMARK                            x       y       z     vdW  Elec       q    Type
REMARK                         _______ _______ _______ _____ _____    ______ ____
ROOT
ATOM      1  C   UNL     1      27.115  24.660  25.123  0.00  0.00    +0.000 A 
ATOM      2  C   UNL     1      26.256  23.880  25.860  0.00  0.00    +0.000 A 
ATOM      3  N   UNL     1      25.666  23.064  24.943  0.00  0.00    +0.000 NA
ATOM      4  N   UNL     1      26.158  23.357  23.745  0.00  0.00    +0.000 NA
ATOM      5  N   UNL     1      27.047  24.329  23.818  0.00  0.00    +0.000 N 
ENDROOT
BRANCH   5   6
ATOM      6  C   UNL     1      27.792  24.929  22.763  0.00  0.00    +0.000 A 
ATOM      7  C   UNL     1      28.854  24.264  22.169  0.00  0.00    +0.000 A 
ATOM      8  C   UNL     1      29.571  24.854  21.151  0.00  0.00    +0.000 A 
ATOM      9  C   UNL     1      29.290  26.112  20.668  0.00  0.00    +0.000 A 
ATOM     10  C   UNL     1      28.222  26.779  21.267  0.00  0.00    +0.000 A 
ATOM     11  C   UNL     1      27.501  26.191  22.287  0.00  0.00    +0.000 A 
ATOM     12  O   UNL     1      27.946  28.045  20.775  0.00  0.00    +0.000 OA
ATOM     13  C   UNL     1      28.517  28.618  19.641  0.00  0.00    +0.000 C 
ATOM     14  C   UNL     1      29.356  27.706  18.809  0.00  0.00    +0.000 C 
ATOM     15  O   UNL     1      29.997  26.730  19.644  0.00  0.00    +0.000 OA
ENDBRANCH   5   6
BRANCH   2  16
ATOM     16  C   UNL     1      25.982  23.874  27.290  0.00  0.00    +0.000 C 
ATOM     17  O   UNL     1      25.020  24.564  27.698  0.00  0.00    +0.000 OA
ATOM     18  N   UNL     1      26.737  23.141  28.226  0.00  0.00    +0.000 N 
ATOM     19  C   UNL     1      26.397  23.187  29.620  0.00  0.00    +0.000 C 
BRANCH  18  20
ATOM     20  C   UNL     1      27.834  22.332  27.784  0.00  0.00    +0.000 C 
BRANCH  20  21
ATOM     21  C   UNL     1      29.178  22.890  28.054  0.00  0.00    +0.000 C 
BRANCH  21  22
ATOM     22  C   UNL     1      30.057  23.084  26.912  0.00  0.00    +0.000 A 
ATOM     23  C   UNL     1      29.815  22.329  25.771  0.00  0.00    +0.000 A 
ATOM     24  C   UNL     1      30.648  22.491  24.687  0.00  0.00    +0.000 A 
ATOM     25  C   UNL     1      31.695  23.372  24.714  0.00  0.00    +0.000 A 
ATOM     26  C   UNL     1      31.895  24.106  25.880  0.00  0.00    +0.000 A 
ATOM     27  N   UNL     1      31.070  23.940  26.943  0.00  0.00    +0.000 NA
ENDBRANCH  21  22
ENDBRANCH  20  21
ENDBRANCH  18  20
ENDBRANCH   2  16
BRANCH   1  29
ATOM     28  C   UNL     1      27.096  26.949  25.847  0.00  0.00    +0.000 C 
ATOM     29  C   UNL     1      27.992  25.714  25.671  0.00  0.00    +0.000 C 
ENDBRANCH   1  29
TORSDOF 6
ENDMDL
MODEL 2
REMARK VINA RESULT:      -6.5     19.620     21.510
REMARK  Name = 
REMARK  6 active torsions:
REMARK  status: ('A' for Active; 'I' for Inactive)
REMARK    1  A    between atoms: C_2  and  C_3
REMARK    2  A    between atoms: C_4  and  C_5
REMARK    3  A    between atoms: N_7  and  C_9
REMARK    4  A    between atoms: C_9  and  C_10
REMARK    5  A    between atoms: C_10  and  C_11
REMARK    6  A    between atoms: N_19  and  C_20
REMARK                            x       y       z     vdW  Elec       q    Type
REMARK                         _______ _______ _______ _____ _____    ______ ____
ROOT
ATOM      1  C   UNL     1      19.590  10.344  38.696  0.00  0.00    +0.000 A 
ATOM      2  C   UNL     1      19.792   9.878  39.974  0.00  0.00    +0.000 A 
ATOM      3  N   UNL     1      18.746   9.036  40.198  0.00  0.00    +0.000 NA
ATOM      4  N   UNL     1      17.984   9.017  39.111  0.00  0.00    +0.000 NA
ATOM      5  N   UNL     1      18.471   9.806  38.172  0.00  0.00    +0.000 N 
ENDROOT
BRANCH   5   6
ATOM      6  C   UNL     1      17.949  10.062  36.872  0.00  0.00    +0.000 A 
ATOM      7  C   UNL     1      18.377   9.334  35.773  0.00  0.00    +0.000 A 
ATOM      8  C   UNL     1      17.869   9.592  34.517  0.00  0.00    +0.000 A 
ATOM      9  C   UNL     1      16.926  10.566  34.277  0.00  0.00    +0.000 A 
ATOM     10  C   UNL     1      16.497  11.296  35.384  0.00  0.00    +0.000 A 
ATOM     11  C   UNL     1      17.003  11.041  36.642  0.00  0.00    +0.000 A 
ATOM     12  O   UNL     1      15.548  12.275  35.132  0.00  0.00    +0.000 OA
ATOM     13  C   UNL     1      14.874  12.462  33.928  0.00  0.00    +0.000 C 
ATOM     14  C   UNL     1      15.080  11.399  32.901  0.00  0.00    +0.000 C 
ATOM     15  O   UNL     1      16.399  10.846  33.022  0.00  0.00    +0.000 OA
ENDBRANCH   5   6
BRANCH   2  16
ATOM     16  C   UNL     1      20.851  10.175  40.927  0.00  0.00    +0.000 C 
ATOM     17  O   UNL     1      20.646  11.095  41.752  0.00  0.00    +0.000 OA
ATOM     18  N   UNL     1      22.081   9.490  40.967  0.00  0.00    +0.000 N 
ATOM     19  C   UNL     1      23.072   9.844  41.943  0.00  0.00    +0.000 C 
BRANCH  18  20
ATOM     20  C   UNL     1      22.336   8.425  40.042  0.00  0.00    +0.000 C 
BRANCH  20  21
ATOM     21  C   UNL     1      23.743   8.298  39.599  0.00  0.00    +0.000 C 
BRANCH  21  22
ATOM     22  C   UNL     1      24.114   8.983  38.371  0.00  0.00    +0.000 A 
ATOM     23  C   UNL     1      23.159   9.078  37.366  0.00  0.00    +0.000 A 
ATOM     24  C   UNL     1      23.501   9.711  36.192  0.00  0.00    +0.000 A 
ATOM     25  C   UNL     1      24.748  10.241  36.001  0.00  0.00    +0.000 A 
ATOM     26  C   UNL     1      25.669  10.120  37.039  0.00  0.00    +0.000 A 
ATOM     27  N   UNL     1      25.325   9.496  38.191  0.00  0.00    +0.000 NA
ENDBRANCH  21  22
ENDBRANCH  20  21
ENDBRANCH  18  20
ENDBRANCH   2  16
BRANCH   1  29
ATOM     28  C   UNL     1      19.981  12.695  38.404  0.00  0.00    +0.000 C 
ATOM     29  C   UNL     1      20.467  11.299  37.988  0.00  0.00    +0.000 C 
ENDBRANCH   1  29
TORSDOF 6
ENDMDL
MODEL 3
REMARK VINA RESULT:      -6.5     19.652     21.691
REMARK  Name = 
REMARK  6 active torsions:
REMARK  status: ('A' for Active; 'I' for Inactive)
REMARK    1  A    between atoms: C_2  and  C_3
REMARK    2  A    between atoms: C_4  and  C_5
REMARK    3  A    between atoms: N_7  and  C_9
REMARK    4  A    between atoms: C_9  and  C_10
REMARK    5  A    between atoms: C_10  and  C_11
REMARK    6  A    between atoms: N_19  and  C_20
REMARK                            x       y       z     vdW  Elec       q    Type
REMARK                         _______ _______ _______ _____ _____    ______ ____
ROOT
ATOM      1  C   UNL     1      18.681  10.374  39.117  0.00  0.00    +0.000 A 
ATOM      2  C   UNL     1      19.718  10.538  40.004  0.00  0.00    +0.000 A 
ATOM      3  N   UNL     1      20.360  11.659  39.573  0.00  0.00    +0.000 NA
ATOM      4  N   UNL     1      19.728  12.115  38.499  0.00  0.00    +0.000 NA
ATOM      5  N   UNL     1      18.696  11.354  38.191  0.00  0.00    +0.000 N 
ENDROOT
BRANCH   5   6
ATOM      6  C   UNL     1      17.775  11.502  37.115  0.00  0.00    +0.000 A 
ATOM      7  C   UNL     1      16.678  12.343  37.223  0.00  0.00    +0.000 A 
ATOM      8  C   UNL     1      15.790  12.477  36.177  0.00  0.00    +0.000 A 
ATOM      9  C   UNL     1      15.929  11.801  34.986  0.00  0.00    +0.000 A 
ATOM     10  C   UNL     1      17.032  10.956  34.880  0.00  0.00    +0.000 A 
ATOM     11  C   UNL     1      17.924  10.819  35.925  0.00  0.00    +0.000 A 
ATOM     12  O   UNL     1      17.163  10.279  33.678  0.00  0.00    +0.000 OA
ATOM     13  C   UNL     1      16.405  10.505  32.532  0.00  0.00    +0.000 C 
ATOM     14  C   UNL     1      15.507  11.697  32.576  0.00  0.00    +0.000 C 
ATOM     15  O   UNL     1      15.048  11.918  33.917  0.00  0.00    +0.000 OA
ENDBRANCH   5   6
BRANCH   2  16
ATOM     16  C   UNL     1      20.106   9.738  41.157  0.00  0.00    +0.000 C 
ATOM     17  O   UNL     1      19.583  10.019  42.260  0.00  0.00    +0.000 OA
ATOM     18  N   UNL     1      21.029   8.676  41.096  0.00  0.00    +0.000 N 
ATOM     19  C   UNL     1      21.354   7.934  42.280  0.00  0.00    +0.000 C 
BRANCH  18  20
ATOM     20  C   UNL     1      21.632   8.324  39.844  0.00  0.00    +0.000 C 
BRANCH  20  21
ATOM     21  C   UNL     1      23.020   8.803  39.655  0.00  0.00    +0.000 C 
BRANCH  21  22
ATOM     22  C   UNL     1      23.373   9.308  38.338  0.00  0.00    +0.000 A 
ATOM     23  C   UNL     1      22.339   9.604  37.457  0.00  0.00    +0.000 A 
ATOM     24  C   UNL     1      22.660  10.068  36.202  0.00  0.00    +0.000 A 
ATOM     25  C   UNL     1      23.959  10.242  35.812  0.00  0.00    +0.000 A 
ATOM     26  C   UNL     1      24.959   9.932  36.731  0.00  0.00    +0.000 A 
ATOM     27  N   UNL     1      24.635   9.475  37.965  0.00  0.00    +0.000 NA
ENDBRANCH  21  22
ENDBRANCH  20  21
ENDBRANCH  18  20
ENDBRANCH   2  16
BRANCH   1  29
ATOM     28  C   UNL     1      16.623   9.734  40.174  0.00  0.00    +0.000 C 
ATOM     29  C   UNL     1      17.686   9.284  39.162  0.00  0.00    +0.000 C 
ENDBRANCH   1  29
TORSDOF 6
ENDMDL
MODEL 4
REMARK VINA RESULT:      -6.4      1.883      6.621
REMARK  Name = 
REMARK  6 active torsions:
REMARK  status: ('A' for Active; 'I' for Inactive)
REMARK    1  A    between atoms: C_2  and  C_3
REMARK    2  A    between atoms: C_4  and  C_5
REMARK    3  A    between atoms: N_7  and  C_9
REMARK    4  A    between atoms: C_9  and  C_10
REMARK    5  A    between atoms: C_10  and  C_11
REMARK    6  A    between atoms: N_19  and  C_20
REMARK                            x       y       z     vdW  Elec       q    Type
REMARK                         _______ _______ _______ _____ _____    ______ ____
ROOT
ATOM      1  C   UNL     1      27.033  24.783  25.242  0.00  0.00    +0.000 A 
ATOM      2  C   UNL     1      26.929  24.339  23.945  0.00  0.00    +0.000 A 
ATOM      3  N   UNL     1      26.082  23.275  24.016  0.00  0.00    +0.000 NA
ATOM      4  N   UNL     1      25.718  23.115  25.282  0.00  0.00    +0.000 NA
ATOM      5  N   UNL     1      26.280  24.020  26.060  0.00  0.00    +0.000 N 
ENDROOT
BRANCH   5   6
ATOM      6  C   UNL     1      26.148  24.184  27.468  0.00  0.00    +0.000 A 
ATOM      7  C   UNL     1      26.907  23.430  28.350  0.00  0.00    +0.000 A 
ATOM      8  C   UNL     1      26.770  23.593  29.712  0.00  0.00    +0.000 A 
ATOM      9  C   UNL     1      25.892  24.492  30.274  0.00  0.00    +0.000 A 
ATOM     10  C   UNL     1      25.130  25.249  29.385  0.00  0.00    +0.000 A 
ATOM     11  C   UNL     1      25.265  25.089  28.021  0.00  0.00    +0.000 A 
ATOM     12  O   UNL     1      24.249  26.151  29.960  0.00  0.00    +0.000 OA
ATOM     13  C   UNL     1      24.192  26.484  31.311  0.00  0.00    +0.000 C 
ATOM     14  C   UNL     1      25.298  25.942  32.156  0.00  0.00    +0.000 C 
ATOM     15  O   UNL     1      25.735  24.675  31.642  0.00  0.00    +0.000 OA
ENDBRANCH   5   6
BRANCH   2  16
ATOM     16  C   UNL     1      27.553  24.837  22.728  0.00  0.00    +0.000 C 
ATOM     17  O   UNL     1      26.896  25.640  22.026  0.00  0.00    +0.000 OA
ATOM     18  N   UNL     1      28.844  24.466  22.303  0.00  0.00    +0.000 N 
ATOM     19  C   UNL     1      29.388  25.007  21.090  0.00  0.00    +0.000 C 
BRANCH  18  20
ATOM     20  C   UNL     1      29.623  23.559  23.094  0.00  0.00    +0.000 C 
BRANCH  20  21
ATOM     21  C   UNL     1      30.611  24.196  23.993  0.00  0.00    +0.000 C 
BRANCH  21  22
ATOM     22  C   UNL     1      30.790  23.601  25.308  0.00  0.00    +0.000 A 
ATOM     23  C   UNL     1      29.955  22.549  25.664  0.00  0.00    +0.000 A 
ATOM     24  C   UNL     1      30.103  21.986  26.912  0.00  0.00    +0.000 A 
ATOM     25  C   UNL     1      31.046  22.438  27.794  0.00  0.00    +0.000 A 
ATOM     26  C   UNL     1      31.858  23.495  27.390  0.00  0.00    +0.000 A 
ATOM     27  N   UNL     1      31.706  24.043  26.161  0.00  0.00    +0.000 NA
ENDBRANCH  21  22
ENDBRANCH  20  21
ENDBRANCH  18  20
ENDBRANCH   2  16
BRANCH   1  29
ATOM     28  C   UNL     1      26.986  27.175  25.435  0.00  0.00    +0.000 C 
ATOM     29  C   UNL     1      27.849  25.931  25.688  0.00  0.00    +0.000 C 
ENDBRANCH   1  29
TORSDOF 6
ENDMDL
MODEL 5
REMARK VINA RESULT:      -6.4      1.928      7.192
REMARK  Name = 
REMARK  6 active torsions:
REMARK  status: ('A' for Active; 'I' for Inactive)
REMARK    1  A    between atoms: C_2  and  C_3
REMARK    2  A    between atoms: C_4  and  C_5
REMARK    3  A    between atoms: N_7  and  C_9
REMARK    4  A    between atoms: C_9  and  C_10
REMARK    5  A    between atoms: C_10  and  C_11
REMARK    6  A    between atoms: N_19  and  C_20
REMARK                            x       y       z     vdW  Elec       q    Type
REMARK                         _______ _______ _______ _____ _____    ______ ____
ROOT
ATOM      1  C   UNL     1      28.393  24.348  23.739  0.00  0.00    +0.000 A 
ATOM      2  C   UNL     1      28.182  24.367  22.381  0.00  0.00    +0.000 A 
ATOM      3  N   UNL     1      27.061  23.616  22.201  0.00  0.00    +0.000 NA
ATOM      4  N   UNL     1      26.649  23.189  23.388  0.00  0.00    +0.000 NA
ATOM      5  N   UNL     1      27.440  23.618  24.352  0.00  0.00    +0.000 N 
ENDROOT
BRANCH   5   6
ATOM      6  C   UNL     1      27.342  23.377  25.752  0.00  0.00    +0.000 A 
ATOM      7  C   UNL     1      28.030  22.331  26.347  0.00  0.00    +0.000 A 
ATOM      8  C   UNL     1      27.927  22.104  27.703  0.00  0.00    +0.000 A 
ATOM      9  C   UNL     1      27.153  22.880  28.536  0.00  0.00    +0.000 A 
ATOM     10  C   UNL     1      26.462  23.931  27.934  0.00  0.00    +0.000 A 
ATOM     11  C   UNL     1      26.563  24.162  26.578  0.00  0.00    +0.000 A 
ATOM     12  O   UNL     1      25.685  24.706  28.780  0.00  0.00    +0.000 OA
ATOM     13  C   UNL     1      25.678  24.635  30.171  0.00  0.00    +0.000 C 
ATOM     14  C   UNL     1      26.733  23.770  30.778  0.00  0.00    +0.000 C 
ATOM     15  O   UNL     1      27.031  22.671  29.904  0.00  0.00    +0.000 OA
ENDBRANCH   5   6
BRANCH   2  16
ATOM     16  C   UNL     1      28.942  25.013  21.320  0.00  0.00    +0.000 C 
ATOM     17  O   UNL     1      29.827  24.337  20.748  0.00  0.00    +0.000 OA
ATOM     18  N   UNL     1      28.734  26.344  20.909  0.00  0.00    +0.000 N 
ATOM     19  C   UNL     1      29.525  26.904  19.851  0.00  0.00    +0.000 C 
BRANCH  18  20
ATOM     20  C   UNL     1      27.718  27.136  21.538  0.00  0.00    +0.000 C 
BRANCH  20  21
ATOM     21  C   UNL     1      28.192  28.024  22.623  0.00  0.00    +0.000 C 
BRANCH  21  22
ATOM     22  C   UNL     1      27.450  27.996  23.874  0.00  0.00    +0.000 A 
ATOM     23  C   UNL     1      26.235  27.320  23.893  0.00  0.00    +0.000 A 
ATOM     24  C   UNL     1      25.516  27.298  25.066  0.00  0.00    +0.000 A 
ATOM     25  C   UNL     1      25.969  27.920  26.197  0.00  0.00    +0.000 A 
ATOM     26  C   UNL     1      27.192  28.583  26.127  0.00  0.00    +0.000 A 
ATOM     27  N   UNL     1      27.895  28.600  24.968  0.00  0.00    +0.000 NA
ENDBRANCH  21  22
ENDBRANCH  20  21
ENDBRANCH  18  20
ENDBRANCH   2  16
BRANCH   1  29
ATOM     28  C   UNL     1      30.703  24.076  24.333  0.00  0.00    +0.000 C 
ATOM     29  C   UNL     1      29.503  25.027  24.439  0.00  0.00    +0.000 C 
ENDBRANCH   1  29
TORSDOF 6
ENDMDL
MODEL 6
REMARK VINA RESULT:      -6.4      1.512      2.481
REMARK  Name = 
REMARK  6 active torsions:
REMARK  status: ('A' for Active; 'I' for Inactive)
REMARK    1  A    between atoms: C_2  and  C_3
REMARK    2  A    between atoms: C_4  and  C_5
REMARK    3  A    between atoms: N_7  and  C_9
REMARK    4  A    between atoms: C_9  and  C_10
REMARK    5  A    between atoms: C_10  and  C_11
REMARK    6  A    between atoms: N_19  and  C_20
REMARK                            x       y       z     vdW  Elec       q    Type
REMARK                         _______ _______ _______ _____ _____    ______ ____
ROOT
ATOM      1  C   UNL     1      27.674  25.045  23.503  0.00  0.00    +0.000 A 
ATOM      2  C   UNL     1      27.210  23.867  24.038  0.00  0.00    +0.000 A 
ATOM      3  N   UNL     1      26.902  23.100  22.955  0.00  0.00    +0.000 NA
ATOM      4  N   UNL     1      27.174  23.797  21.859  0.00  0.00    +0.000 NA
ATOM      5  N   UNL     1      27.649  24.991  22.156  0.00  0.00    +0.000 N 
ENDROOT
BRANCH   5   6
ATOM      6  C   UNL     1      28.052  26.030  21.270  0.00  0.00    +0.000 A 
ATOM      7  C   UNL     1      27.258  27.148  21.070  0.00  0.00    +0.000 A 
ATOM      8  C   UNL     1      27.655  28.148  20.207  0.00  0.00    +0.000 A 
ATOM      9  C   UNL     1      28.838  28.103  19.504  0.00  0.00    +0.000 A 
ATOM     10  C   UNL     1      29.635  26.978  19.707  0.00  0.00    +0.000 A 
ATOM     11  C   UNL     1      29.240  25.975  20.570  0.00  0.00    +0.000 A 
ATOM     12  O   UNL     1      30.823  26.941  18.995  0.00  0.00    +0.000 OA
ATOM     13  C   UNL     1      31.357  27.991  18.251  0.00  0.00    +0.000 C 
ATOM     14  C   UNL     1      30.662  29.304  18.396  0.00  0.00    +0.000 C 
ATOM     15  O   UNL     1      29.261  29.096  18.629  0.00  0.00    +0.000 OA
ENDBRANCH   5   6
BRANCH   2  16
ATOM     16  C   UNL     1      27.051  23.463  25.427  0.00  0.00    +0.000 C 
ATOM     17  O   UNL     1      25.965  23.736  25.989  0.00  0.00    +0.000 OA
ATOM     18  N   UNL     1      28.045  22.789  26.164  0.00  0.00    +0.000 N 
ATOM     19  C   UNL     1      27.805  22.423  27.531  0.00  0.00    +0.000 C 
BRANCH  18  20
ATOM     20  C   UNL     1      29.291  22.453  25.541  0.00  0.00    +0.000 C 
BRANCH  20  21
ATOM     21  C   UNL     1      30.458  22.405  26.451  0.00  0.00    +0.000 C 
BRANCH  21  22
ATOM     22  C   UNL     1      31.548  23.329  26.179  0.00  0.00    +0.000 A 
ATOM     23  C   UNL     1      32.031  23.400  24.878  0.00  0.00    +0.000 A 
ATOM     24  C   UNL     1      33.072  24.259  24.611  0.00  0.00    +0.000 A 
ATOM     25  C   UNL     1      33.631  25.035  25.589  0.00  0.00    +0.000 A 
ATOM     26  C   UNL     1      33.111  24.928  26.877  0.00  0.00    +0.000 A 
ATOM     27  N   UNL     1      32.086  24.080  27.132  0.00  0.00    +0.000 NA
ENDBRANCH  21  22
ENDBRANCH  20  21
ENDBRANCH  18  20
ENDBRANCH   2  16
BRANCH   1  29
ATOM     28  C   UNL     1      29.651  26.018  24.456  0.00  0.00    +0.000 C 
ATOM     29  C   UNL     1      28.138  26.211  24.282  0.00  0.00    +0.000 C 
ENDBRANCH   1  29
TORSDOF 6
ENDMDL
MODEL 7
REMARK VINA RESULT:      -6.3     33.045     34.790
REMARK  Name = 
REMARK  6 active torsions:
REMARK  status: ('A' for Active; 'I' for Inactive)
REMARK    1  A    between atoms: C_2  and  C_3
REMARK    2  A    between atoms: C_4  and  C_5
REMARK    3  A    between atoms: N_7  and  C_9
REMARK    4  A    between atoms: C_9  and  C_10
REMARK    5  A    between atoms: C_10  and  C_11
REMARK    6  A    between atoms: N_19  and  C_20
REMARK                            x       y       z     vdW  Elec       q    Type
REMARK                         _______ _______ _______ _____ _____    ______ ____
ROOT
ATOM      1  C   UNL     1      14.109  -8.691  22.623  0.00  0.00    +0.000 A 
ATOM      2  C   UNL     1      13.617  -8.896  23.890  0.00  0.00    +0.000 A 
ATOM      3  N   UNL     1      12.538  -8.070  23.974  0.00  0.00    +0.000 NA
ATOM      4  N   UNL     1      12.415  -7.426  22.820  0.00  0.00    +0.000 NA
ATOM      5  N   UNL     1      13.359  -7.781  21.970  0.00  0.00    +0.000 N 
ENDROOT
BRANCH   5   6
ATOM      6  C   UNL     1      13.574  -7.319  20.640  0.00  0.00    +0.000 A 
ATOM      7  C   UNL     1      12.919  -7.901  19.566  0.00  0.00    +0.000 A 
ATOM      8  C   UNL     1      13.136  -7.449  18.282  0.00  0.00    +0.000 A 
ATOM      9  C   UNL     1      13.997  -6.416  17.987  0.00  0.00    +0.000 A 
ATOM     10  C   UNL     1      14.654  -5.832  19.069  0.00  0.00    +0.000 A 
ATOM     11  C   UNL     1      14.439  -6.282  20.356  0.00  0.00    +0.000 A 
ATOM     12  O   UNL     1      15.519  -4.793  18.763  0.00  0.00    +0.000 OA
ATOM     13  C   UNL     1      15.646  -4.182  17.518  0.00  0.00    +0.000 C 
ATOM     14  C   UNL     1      14.630  -4.578  16.498  0.00  0.00    +0.000 C 
ATOM     15  O   UNL     1      14.233  -5.942  16.703  0.00  0.00    +0.000 OA
ENDBRANCH   5   6
BRANCH   2  16
ATOM     16  C   UNL     1      14.090  -9.772  24.952  0.00  0.00    +0.000 C 
ATOM     17  O   UNL     1      13.561 -10.904  25.048  0.00  0.00    +0.000 OA
ATOM     18  N   UNL     1      15.099  -9.416  25.868  0.00  0.00    +0.000 N 
ATOM     19  C   UNL     1      15.510 -10.342  26.884  0.00  0.00    +0.000 C 
BRANCH  18  20
ATOM     20  C   UNL     1      15.730  -8.133  25.773  0.00  0.00    +0.000 C 
BRANCH  20  21
ATOM     21  C   UNL     1      16.671  -7.810  26.868  0.00  0.00    +0.000 C 
BRANCH  21  22
ATOM     22  C   UNL     1      17.797  -6.949  26.542  0.00  0.00    +0.000 A 
ATOM     23  C   UNL     1      18.919  -7.535  25.971  0.00  0.00    +0.000 A 
ATOM     24  C   UNL     1      19.997  -6.733  25.671  0.00  0.00    +0.000 A 
ATOM     25  C   UNL     1      19.983  -5.389  25.921  0.00  0.00    +0.000 A 
ATOM     26  C   UNL     1      18.834  -4.849  26.494  0.00  0.00    +0.000 A 
ATOM     27  N   UNL     1      17.777  -5.644  26.787  0.00  0.00    +0.000 NA
ENDBRANCH  21  22
ENDBRANCH  20  21
ENDBRANCH  18  20
ENDBRANCH   2  16
BRANCH   1  29
ATOM     28  C   UNL     1      14.766 -10.674  21.440  0.00  0.00    +0.000 C 
ATOM     29  C   UNL     1      15.291  -9.365  22.047  0.00  0.00    +0.000 C 
ENDBRANCH   1  29
TORSDOF 6
ENDMDL
MODEL 8
REMARK VINA RESULT:      -6.2      2.513      8.086
REMARK  Name = 
REMARK  6 active torsions:
REMARK  status: ('A' for Active; 'I' for Inactive)
REMARK    1  A    between atoms: C_2  and  C_3
REMARK    2  A    between atoms: C_4  and  C_5
REMARK    3  A    between atoms: N_7  and  C_9
REMARK    4  A    between atoms: C_9  and  C_10
REMARK    5  A    between atoms: C_10  and  C_11
REMARK    6  A    between atoms: N_19  and  C_20
REMARK                            x       y       z     vdW  Elec       q    Type
REMARK                         _______ _______ _______ _____ _____    ______ ____
ROOT
ATOM      1  C   UNL     1      28.440  24.445  23.633  0.00  0.00    +0.000 A 
ATOM      2  C   UNL     1      28.225  24.471  22.275  0.00  0.00    +0.000 A 
ATOM      3  N   UNL     1      27.150  23.659  22.085  0.00  0.00    +0.000 NA
ATOM      4  N   UNL     1      26.765  23.191  23.266  0.00  0.00    +0.000 NA
ATOM      5  N   UNL     1      27.531  23.652  24.236  0.00  0.00    +0.000 N 
ENDROOT
BRANCH   5   6
ATOM      6  C   UNL     1      27.450  23.385  25.632  0.00  0.00    +0.000 A 
ATOM      7  C   UNL     1      28.205  22.378  26.213  0.00  0.00    +0.000 A 
ATOM      8  C   UNL     1      28.117  22.125  27.565  0.00  0.00    +0.000 A 
ATOM      9  C   UNL     1      27.295  22.837  28.409  0.00  0.00    +0.000 A 
ATOM     10  C   UNL     1      26.538  23.851  27.822  0.00  0.00    +0.000 A 
ATOM     11  C   UNL     1      26.623  24.107  26.469  0.00  0.00    +0.000 A 
ATOM     12  O   UNL     1      25.713  24.562  28.679  0.00  0.00    +0.000 OA
ATOM     13  C   UNL     1      25.712  24.471  30.068  0.00  0.00    +0.000 C 
ATOM     14  C   UNL     1      26.820  23.667  30.663  0.00  0.00    +0.000 C 
ATOM     15  O   UNL     1      27.188  22.602  29.774  0.00  0.00    +0.000 OA
ENDBRANCH   5   6
BRANCH   2  16
ATOM     16  C   UNL     1      28.944  25.176  21.223  0.00  0.00    +0.000 C 
ATOM     17  O   UNL     1      29.810  24.535  20.583  0.00  0.00    +0.000 OA
ATOM     18  N   UNL     1      28.719  26.526  20.892  0.00  0.00    +0.000 N 
ATOM     19  C   UNL     1      29.469  27.145  19.837  0.00  0.00    +0.000 C 
BRANCH  18  20
ATOM     20  C   UNL     1      27.725  27.279  21.599  0.00  0.00    +0.000 C 
BRANCH  20  21
ATOM     21  C   UNL     1      27.381  28.589  21.000  0.00  0.00    +0.000 C 
BRANCH  21  22
ATOM     22  C   UNL     1      26.021  28.758  20.514  0.00  0.00    +0.000 A 
ATOM     23  C   UNL     1      25.729  28.311  19.231  0.00  0.00    +0.000 A 
ATOM     24  C   UNL     1      24.449  28.479  18.753  0.00  0.00    +0.000 A 
ATOM     25  C   UNL     1      23.473  29.068  19.508  0.00  0.00    +0.000 A 
ATOM     26  C   UNL     1      23.815  29.498  20.789  0.00  0.00    +0.000 A 
ATOM     27  N   UNL     1      25.077  29.330  21.252  0.00  0.00    +0.000 NA
ENDBRANCH  21  22
ENDBRANCH  20  21
ENDBRANCH  18  20
ENDBRANCH   2  16
BRANCH   1  29
ATOM     28  C   UNL     1      30.760  24.295  24.230  0.00  0.00    +0.000 C 
ATOM     29  C   UNL     1      29.509  25.178  24.342  0.00  0.00    +0.000 C 
ENDBRANCH   1  29
TORSDOF 6
ENDMDL
MODEL 9
REMARK VINA RESULT:      -5.9      3.518      6.340
REMARK  Name = 
REMARK  6 active torsions:
REMARK  status: ('A' for Active; 'I' for Inactive)
REMARK    1  A    between atoms: C_2  and  C_3
REMARK    2  A    between atoms: C_4  and  C_5
REMARK    3  A    between atoms: N_7  and  C_9
REMARK    4  A    between atoms: C_9  and  C_10
REMARK    5  A    between atoms: C_10  and  C_11
REMARK    6  A    between atoms: N_19  and  C_20
REMARK                            x       y       z     vdW  Elec       q    Type
REMARK                         _______ _______ _______ _____ _____    ______ ____
ROOT
ATOM      1  C   UNL     1      27.444  24.464  28.865  0.00  0.00    +0.000 A 
ATOM      2  C   UNL     1      28.180  23.409  29.349  0.00  0.00    +0.000 A 
ATOM      3  N   UNL     1      27.262  22.600  29.947  0.00  0.00    +0.000 NA
ATOM      4  N   UNL     1      26.064  23.157  29.813  0.00  0.00    +0.000 NA
ATOM      5  N   UNL     1      26.138  24.299  29.156  0.00  0.00    +0.000 N 
ENDROOT
BRANCH   5   6
ATOM      6  C   UNL     1      25.085  25.194  28.814  0.00  0.00    +0.000 A 
ATOM      7  C   UNL     1      24.515  26.025  29.766  0.00  0.00    +0.000 A 
ATOM      8  C   UNL     1      23.494  26.886  29.426  0.00  0.00    +0.000 A 
ATOM      9  C   UNL     1      22.984  26.977  28.150  0.00  0.00    +0.000 A 
ATOM     10  C   UNL     1      23.559  26.140  27.195  0.00  0.00    +0.000 A 
ATOM     11  C   UNL     1      24.582  25.277  27.531  0.00  0.00    +0.000 A 
ATOM     12  O   UNL     1      23.039  26.238  25.914  0.00  0.00    +0.000 OA
ATOM     13  C   UNL     1      22.137  27.204  25.474  0.00  0.00    +0.000 C 
ATOM     14  C   UNL     1      21.864  28.316  26.432  0.00  0.00    +0.000 C 
ATOM     15  O   UNL     1      21.956  27.836  27.782  0.00  0.00    +0.000 OA
ENDBRANCH   5   6
BRANCH   2  16
ATOM     16  C   UNL     1      29.611  23.151  29.283  0.00  0.00    +0.000 C 
ATOM     17  O   UNL     1      30.317  23.553  30.236  0.00  0.00    +0.000 OA
ATOM     18  N   UNL     1      30.235  22.480  28.213  0.00  0.00    +0.000 N 
ATOM     19  C   UNL     1      31.654  22.263  28.227  0.00  0.00    +0.000 C 
BRANCH  18  20
ATOM     20  C   UNL     1      29.449  21.998  27.116  0.00  0.00    +0.000 C 
BRANCH  20  21
ATOM     21  C   UNL     1      29.549  22.792  25.871  0.00  0.00    +0.000 C 
BRANCH  21  22
ATOM     22  C   UNL     1      28.319  23.018  25.129  0.00  0.00    +0.000 A 
ATOM     23  C   UNL     1      27.117  22.713  25.755  0.00  0.00    +0.000 A 
ATOM     24  C   UNL     1      25.946  22.907  25.059  0.00  0.00    +0.000 A 
ATOM     25  C   UNL     1      25.944  23.390  23.779  0.00  0.00    +0.000 A 
ATOM     26  C   UNL     1      27.175  23.680  23.195  0.00  0.00    +0.000 A 
ATOM     27  N   UNL     1      28.324  23.486  23.887  0.00  0.00    +0.000 NA
ENDBRANCH  21  22
ENDBRANCH  20  21
ENDBRANCH  18  20
ENDBRANCH   2  16
BRANCH   1  29
ATOM     28  C   UNL     1      28.404  26.638  29.200  0.00  0.00    +0.000 C 
ATOM     29  C   UNL     1      27.994  25.620  28.127  0.00  0.00    +0.000 C 
ENDBRANCH   1  29
TORSDOF 6
ENDMDL
MODEL 10
REMARK VINA RESULT:      -5.9      2.955      4.457
REMARK  Name = 
REMARK  6 active torsions:
REMARK  status: ('A' for Active; 'I' for Inactive)
REMARK    1  A    between atoms: C_2  and  C_3
REMARK    2  A    between atoms: C_4  and  C_5
REMARK    3  A    between atoms: N_7  and  C_9
REMARK    4  A    between atoms: C_9  and  C_10
REMARK    5  A    between atoms: C_10  and  C_11
REMARK    6  A    between atoms: N_19  and  C_20
REMARK                            x       y       z     vdW  Elec       q    Type
REMARK                         _______ _______ _______ _____ _____    ______ ____
ROOT
ATOM      1  C   UNL     1      26.990  24.206  28.603  0.00  0.00    +0.000 A 
ATOM      2  C   UNL     1      27.128  23.760  29.896  0.00  0.00    +0.000 A 
ATOM      3  N   UNL     1      27.508  22.459  29.769  0.00  0.00    +0.000 NA
ATOM      4  N   UNL     1      27.586  22.171  28.476  0.00  0.00    +0.000 NA
ATOM      5  N   UNL     1      27.277  23.216  27.733  0.00  0.00    +0.000 N 
ENDROOT
BRANCH   5   6
ATOM      6  C   UNL     1      27.237  23.314  26.313  0.00  0.00    +0.000 A 
ATOM      7  C   UNL     1      26.075  23.037  25.610  0.00  0.00    +0.000 A 
ATOM      8  C   UNL     1      26.047  23.131  24.235  0.00  0.00    +0.000 A 
ATOM      9  C   UNL     1      27.143  23.496  23.487  0.00  0.00    +0.000 A 
ATOM     10  C   UNL     1      28.310  23.775  24.197  0.00  0.00    +0.000 A 
ATOM     11  C   UNL     1      28.342  23.682  25.573  0.00  0.00    +0.000 A 
ATOM     12  O   UNL     1      29.408  24.142  23.435  0.00  0.00    +0.000 OA
ATOM     13  C   UNL     1      29.394  24.423  22.071  0.00  0.00    +0.000 C 
ATOM     14  C   UNL     1      28.043  24.500  21.442  0.00  0.00    +0.000 C 
ATOM     15  O   UNL     1      27.141  23.598  22.101  0.00  0.00    +0.000 OA
ENDBRANCH   5   6
BRANCH   2  16
ATOM     16  C   UNL     1      26.926  24.458  31.158  0.00  0.00    +0.000 C 
ATOM     17  O   UNL     1      25.750  24.570  31.576  0.00  0.00    +0.000 OA
ATOM     18  N   UNL     1      27.972  25.009  31.923  0.00  0.00    +0.000 N 
ATOM     19  C   UNL     1      27.686  25.679  33.160  0.00  0.00    +0.000 C 
BRANCH  18  20
ATOM     20  C   UNL     1      29.328  24.884  31.474  0.00  0.00    +0.000 C 
BRANCH  20  21
ATOM     21  C   UNL     1      30.081  23.748  32.050  0.00  0.00    +0.000 C 
BRANCH  21  22
ATOM     22  C   UNL     1      30.894  22.961  31.136  0.00  0.00    +0.000 A 
ATOM     23  C   UNL     1      30.881  23.309  29.791  0.00  0.00    +0.000 A 
ATOM     24  C   UNL     1      31.634  22.564  28.913  0.00  0.00    +0.000 A 
ATOM     25  C   UNL     1      32.386  21.502  29.336  0.00  0.00    +0.000 A 
ATOM     26  C   UNL     1      32.366  21.194  30.694  0.00  0.00    +0.000 A 
ATOM     27  N   UNL     1      31.622  21.932  31.552  0.00  0.00    +0.000 NA
ENDBRANCH  21  22
ENDBRANCH  20  21
ENDBRANCH  18  20
ENDBRANCH   2  16
BRANCH   1  29
ATOM     28  C   UNL     1      25.053  25.564  28.199  0.00  0.00    +0.000 C 
ATOM     29  C   UNL     1      26.588  25.571  28.210  0.00  0.00    +0.000 C 
ENDBRANCH   1  29
TORSDOF 6
ENDMDL
