MODEL 1
REMARK VINA RESULT:      -8.3      0.000      0.000
REMARK  Name = 
REMARK  5 active torsions:
REMARK  status: ('A' for Active; 'I' for Inactive)
REMARK    1  A    between atoms: O_2  and  C_3
REMARK    2  A    between atoms: C_6  and  C_7
REMARK    3  A    between atoms: C_11  and  C_12
REMARK    4  A    between atoms: N_15  and  C_16
REMARK    5  A    between atoms: C_16  and  C_18
REMARK                            x       y       z     vdW  Elec       q    Type
REMARK                         _______ _______ _______ _____ _____    ______ ____
ROOT
ATOM      1  C   UNL     1      38.391   5.632  16.884  0.00  0.00    +0.000 A 
ATOM      2  C   UNL     1      38.163   4.270  16.905  0.00  0.00    +0.000 A 
ATOM      3  C   UNL     1      37.632   3.594  15.826  0.00  0.00    +0.000 A 
ATOM      4  N   UNL     1      37.457   2.198  15.998  0.00  0.00    +0.000 NA
ATOM      5  N   UNL     1      37.331   4.288  14.731  0.00  0.00    +0.000 NA
ATOM      6  C   UNL     1      37.548   5.626  14.696  0.00  0.00    +0.000 A 
ATOM      7  C   UNL     1      37.185   6.324  13.438  0.00  0.00    +0.000 C 
ATOM      8  N   UNL     1      38.073   6.294  15.761  0.00  0.00    +0.000 NA
ENDROOT
BRANCH   1  13
ATOM      9  C   UNL     1      40.787   6.823  19.492  0.00  0.00    +0.000 A 
ATOM     10  C   UNL     1      39.990   7.673  20.219  0.00  0.00    +0.000 A 
ATOM     11  N   UNL     1      38.718   7.842  19.860  0.00  0.00    +0.000 NA
ATOM     12  C   UNL     1      38.192   7.199  18.801  0.00  0.00    +0.000 A 
ATOM     13  C   UNL     1      38.959   6.338  18.045  0.00  0.00    +0.000 A 
ATOM     14  C   UNL     1      40.265   6.165  18.415  0.00  0.00    +0.000 A 
BRANCH   9  18
ATOM     15  C   UNL     1      44.933   6.180  20.429  0.00  0.00    +0.000 A 
ATOM     16  C   UNL     1      43.942   5.894  21.346  0.00  0.00    +0.000 A 
ATOM     17  C   UNL     1      42.608   6.097  21.056  0.00  0.00    +0.000 A 
ATOM     18  C   UNL     1      42.198   6.594  19.837  0.00  0.00    +0.000 A 
ATOM     19  C   UNL     1      43.192   6.881  18.919  0.00  0.00    +0.000 A 
ATOM     20  C   UNL     1      44.525   6.678  19.211  0.00  0.00    +0.000 A 
BRANCH  15  22
ATOM     21  C   UNL     1      46.843   4.681  20.648  0.00  0.00    +0.000 C 
ATOM     22  O   UNL     1      46.280   5.977  20.721  0.00  0.00    +0.000 OA
ENDBRANCH  15  22
ENDBRANCH   9  18
ENDBRANCH   1  13
BRANCH   4  23
ATOM     23  C   UNL     1      36.842   1.456  14.731  0.00  0.00    +0.000 C 
ATOM     24  C   UNL     1      38.201   0.523  14.467  0.00  0.00    +0.000 C 
BRANCH  23  25
ATOM     25  C   UNL     1      36.073   0.338  15.600  0.00  0.00    +0.000 A 
ATOM     26  C   UNL     1      35.229   0.678  16.566  0.00  0.00    +0.000 A 
ATOM     27  C   UNL     1      34.580  -0.284  17.300  0.00  0.00    +0.000 A 
ATOM     28  C   UNL     1      34.819  -1.604  17.017  0.00  0.00    +0.000 A 
ATOM     29  C   UNL     1      35.698  -1.971  16.013  0.00  0.00    +0.000 A 
ATOM     30  C   UNL     1      36.341  -0.962  15.285  0.00  0.00    +0.000 A 
ENDBRANCH  23  25
ENDBRANCH   4  23
TORSDOF 5
ENDMDL
MODEL 2
REMARK VINA RESULT:      -8.0      1.919      2.987
REMARK  Name = 
REMARK  5 active torsions:
REMARK  status: ('A' for Active; 'I' for Inactive)
REMARK    1  A    between atoms: O_2  and  C_3
REMARK    2  A    between atoms: C_6  and  C_7
REMARK    3  A    between atoms: C_11  and  C_12
REMARK    4  A    between atoms: N_15  and  C_16
REMARK    5  A    between atoms: C_16  and  C_18
REMARK                            x       y       z     vdW  Elec       q    Type
REMARK                         _______ _______ _______ _____ _____    ______ ____
ROOT
ATOM      1  C   UNL     1      37.993   4.039  15.395  0.00  0.00    +0.000 A 
ATOM      2  C   UNL     1      38.402   2.720  15.394  0.00  0.00    +0.000 A 
ATOM      3  C   UNL     1      37.511   1.672  15.291  0.00  0.00    +0.000 A 
ATOM      4  N   UNL     1      38.080   0.374  15.304  0.00  0.00    +0.000 NA
ATOM      5  N   UNL     1      36.213   1.952  15.192  0.00  0.00    +0.000 NA
ATOM      6  C   UNL     1      35.797   3.242  15.192  0.00  0.00    +0.000 A 
ATOM      7  C   UNL     1      34.335   3.468  15.078  0.00  0.00    +0.000 C 
ATOM      8  N   UNL     1      36.677   4.278  15.292  0.00  0.00    +0.000 NA
ENDROOT
BRANCH   1  13
ATOM      9  C   UNL     1      40.616   6.345  16.723  0.00  0.00    +0.000 A 
ATOM     10  C   UNL     1      40.753   7.224  15.677  0.00  0.00    +0.000 A 
ATOM     11  N   UNL     1      40.009   7.059  14.583  0.00  0.00    +0.000 NA
ATOM     12  C   UNL     1      39.125   6.050  14.477  0.00  0.00    +0.000 A 
ATOM     13  C   UNL     1      38.958   5.146  15.505  0.00  0.00    +0.000 A 
ATOM     14  C   UNL     1      39.722   5.316  16.626  0.00  0.00    +0.000 A 
BRANCH   9  18
ATOM     15  C   UNL     1      42.867   6.704  20.368  0.00  0.00    +0.000 A 
ATOM     16  C   UNL     1      43.473   6.860  19.137  0.00  0.00    +0.000 A 
ATOM     17  C   UNL     1      42.759   6.747  17.961  0.00  0.00    +0.000 A 
ATOM     18  C   UNL     1      41.408   6.472  17.955  0.00  0.00    +0.000 A 
ATOM     19  C   UNL     1      40.803   6.315  19.188  0.00  0.00    +0.000 A 
ATOM     20  C   UNL     1      41.517   6.429  20.364  0.00  0.00    +0.000 A 
BRANCH  15  22
ATOM     21  C   UNL     1      44.434   5.769  21.986  0.00  0.00    +0.000 C 
ATOM     22  O   UNL     1      43.586   6.817  21.556  0.00  0.00    +0.000 OA
ENDBRANCH  15  22
ENDBRANCH   9  18
ENDBRANCH   1  13
BRANCH   4  23
ATOM     23  C   UNL     1      37.019  -0.807  15.184  0.00  0.00    +0.000 C 
ATOM     24  C   UNL     1      38.156  -1.945  14.738  0.00  0.00    +0.000 C 
BRANCH  23  25
ATOM     25  C   UNL     1      37.061  -1.175  16.752  0.00  0.00    +0.000 A 
ATOM     26  C   UNL     1      36.089  -0.800  17.572  0.00  0.00    +0.000 A 
ATOM     27  C   UNL     1      36.135  -1.119  18.907  0.00  0.00    +0.000 A 
ATOM     28  C   UNL     1      37.206  -1.835  19.378  0.00  0.00    +0.000 A 
ATOM     29  C   UNL     1      38.228  -2.231  18.532  0.00  0.00    +0.000 A 
ATOM     30  C   UNL     1      38.145  -1.887  17.177  0.00  0.00    +0.000 A 
ENDBRANCH  23  25
ENDBRANCH   4  23
TORSDOF 5
ENDMDL
MODEL 3
REMARK VINA RESULT:      -8.0      2.469      4.157
REMARK  Name = 
REMARK  5 active torsions:
REMARK  status: ('A' for Active; 'I' for Inactive)
REMARK    1  A    between atoms: O_2  and  C_3
REMARK    2  A    between atoms: C_6  and  C_7
REMARK    3  A    between atoms: C_11  and  C_12
REMARK    4  A    between atoms: N_15  and  C_16
REMARK    5  A    between atoms: C_16  and  C_18
REMARK                            x       y       z     vdW  Elec       q    Type
REMARK                         _______ _______ _______ _____ _____    ______ ____
ROOT
ATOM      1  C   UNL     1      38.197   2.682  14.127  0.00  0.00    +0.000 A 
ATOM      2  C   UNL     1      38.931   1.642  14.662  0.00  0.00    +0.000 A 
ATOM      3  C   UNL     1      39.011   0.407  14.054  0.00  0.00    +0.000 A 
ATOM      4  N   UNL     1      39.804  -0.560  14.721  0.00  0.00    +0.000 NA
ATOM      5  N   UNL     1      38.351   0.220  12.912  0.00  0.00    +0.000 NA
ATOM      6  C   UNL     1      37.625   1.232  12.377  0.00  0.00    +0.000 A 
ATOM      7  C   UNL     1      36.921   0.940  11.104  0.00  0.00    +0.000 C 
ATOM      8  N   UNL     1      37.547   2.452  12.976  0.00  0.00    +0.000 NA
ENDROOT
BRANCH   1  13
ATOM      9  C   UNL     1      38.944   5.574  16.373  0.00  0.00    +0.000 A 
ATOM     10  C   UNL     1      37.958   6.458  16.007  0.00  0.00    +0.000 A 
ATOM     11  N   UNL     1      37.087   6.110  15.061  0.00  0.00    +0.000 NA
ATOM     12  C   UNL     1      37.148   4.911  14.452  0.00  0.00    +0.000 A 
ATOM     13  C   UNL     1      38.123   3.996  14.790  0.00  0.00    +0.000 A 
ATOM     14  C   UNL     1      39.016   4.355  15.762  0.00  0.00    +0.000 A 
BRANCH   9  18
ATOM     15  C   UNL     1      41.894   6.538  19.347  0.00  0.00    +0.000 A 
ATOM     16  C   UNL     1      40.612   6.175  19.706  0.00  0.00    +0.000 A 
ATOM     17  C   UNL     1      39.657   5.864  18.760  0.00  0.00    +0.000 A 
ATOM     18  C   UNL     1      39.934   5.899  17.409  0.00  0.00    +0.000 A 
ATOM     19  C   UNL     1      41.219   6.264  17.050  0.00  0.00    +0.000 A 
ATOM     20  C   UNL     1      42.173   6.575  17.999  0.00  0.00    +0.000 A 
BRANCH  15  22
ATOM     21  C   UNL     1      43.145   5.956  21.358  0.00  0.00    +0.000 C 
ATOM     22  O   UNL     1      42.859   6.853  20.301  0.00  0.00    +0.000 OA
ENDBRANCH  15  22
ENDBRANCH   9  18
ENDBRANCH   1  13
BRANCH   4  23
ATOM     23  C   UNL     1      39.869  -1.971  13.987  0.00  0.00    +0.000 C 
ATOM     24  C   UNL     1      41.351  -2.377  14.640  0.00  0.00    +0.000 C 
BRANCH  23  25
ATOM     25  C   UNL     1      39.008  -2.739  15.112  0.00  0.00    +0.000 A 
ATOM     26  C   UNL     1      39.468  -2.886  16.348  0.00  0.00    +0.000 A 
ATOM     27  C   UNL     1      38.725  -3.542  17.299  0.00  0.00    +0.000 A 
ATOM     28  C   UNL     1      37.498  -4.044  16.948  0.00  0.00    +0.000 A 
ATOM     29  C   UNL     1      37.009  -3.898  15.662  0.00  0.00    +0.000 A 
ATOM     30  C   UNL     1      37.794  -3.223  14.720  0.00  0.00    +0.000 A 
ENDBRANCH  23  25
ENDBRANCH   4  23
TORSDOF 5
ENDMDL
MODEL 4
REMARK VINA RESULT:      -7.9      1.568      2.479
REMARK  Name = 
REMARK  5 active torsions:
REMARK  status: ('A' for Active; 'I' for Inactive)
REMARK    1  A    between atoms: O_2  and  C_3
REMARK    2  A    between atoms: C_6  and  C_7
REMARK    3  A    between atoms: C_11  and  C_12
REMARK    4  A    between atoms: N_15  and  C_16
REMARK    5  A    between atoms: C_16  and  C_18
REMARK                            x       y       z     vdW  Elec       q    Type
REMARK                         _______ _______ _______ _____ _____    ______ ____
ROOT
ATOM      1  C   UNL     1      38.219   4.479  14.996  0.00  0.00    +0.000 A 
ATOM      2  C   UNL     1      38.083   3.222  15.550  0.00  0.00    +0.000 A 
ATOM      3  C   UNL     1      37.779   2.110  14.792  0.00  0.00    +0.000 A 
ATOM      4  N   UNL     1      37.672   0.888  15.503  0.00  0.00    +0.000 NA
ATOM      5  N   UNL     1      37.613   2.265  13.481  0.00  0.00    +0.000 NA
ATOM      6  C   UNL     1      37.743   3.494  12.922  0.00  0.00    +0.000 A 
ATOM      7  C   UNL     1      37.541   3.580  11.455  0.00  0.00    +0.000 C 
ATOM      8  N   UNL     1      38.044   4.592  13.670  0.00  0.00    +0.000 NA
ENDROOT
BRANCH   1  13
ATOM      9  C   UNL     1      39.875   6.728  17.479  0.00  0.00    +0.000 A 
ATOM     10  C   UNL     1      39.126   7.871  17.345  0.00  0.00    +0.000 A 
ATOM     11  N   UNL     1      38.119   7.894  16.472  0.00  0.00    +0.000 NA
ATOM     12  C   UNL     1      37.816   6.822  15.716  0.00  0.00    +0.000 A 
ATOM     13  C   UNL     1      38.545   5.656  15.820  0.00  0.00    +0.000 A 
ATOM     14  C   UNL     1      39.577   5.634  16.717  0.00  0.00    +0.000 A 
BRANCH   9  18
ATOM     15  C   UNL     1      43.111   6.455  20.295  0.00  0.00    +0.000 A 
ATOM     16  C   UNL     1      43.342   6.772  18.972  0.00  0.00    +0.000 A 
ATOM     17  C   UNL     1      42.311   6.862  18.060  0.00  0.00    +0.000 A 
ATOM     18  C   UNL     1      40.998   6.641  18.422  0.00  0.00    +0.000 A 
ATOM     19  C   UNL     1      40.768   6.323  19.748  0.00  0.00    +0.000 A 
ATOM     20  C   UNL     1      41.801   6.234  20.660  0.00  0.00    +0.000 A 
BRANCH  15  22
ATOM     21  C   UNL     1      43.886   6.410  22.607  0.00  0.00    +0.000 C 
ATOM     22  O   UNL     1      44.151   6.363  21.218  0.00  0.00    +0.000 OA
ENDBRANCH  15  22
ENDBRANCH   9  18
ENDBRANCH   1  13
BRANCH   4  23
ATOM     23  C   UNL     1      37.320  -0.369  14.593  0.00  0.00    +0.000 C 
ATOM     24  C   UNL     1      38.522  -1.328  15.244  0.00  0.00    +0.000 C 
BRANCH  23  25
ATOM     25  C   UNL     1      36.163  -0.915  15.571  0.00  0.00    +0.000 A 
ATOM     26  C   UNL     1      35.811  -2.194  15.573  0.00  0.00    +0.000 A 
ATOM     27  C   UNL     1      34.823  -2.649  16.411  0.00  0.00    +0.000 A 
ATOM     28  C   UNL     1      34.205  -1.755  17.248  0.00  0.00    +0.000 A 
ATOM     29  C   UNL     1      34.562  -0.418  17.255  0.00  0.00    +0.000 A 
ATOM     30  C   UNL     1      35.574   0.007  16.386  0.00  0.00    +0.000 A 
ENDBRANCH  23  25
ENDBRANCH   4  23
TORSDOF 5
ENDMDL
MODEL 5
REMARK VINA RESULT:      -7.9     18.128     21.828
REMARK  Name = 
REMARK  5 active torsions:
REMARK  status: ('A' for Active; 'I' for Inactive)
REMARK    1  A    between atoms: O_2  and  C_3
REMARK    2  A    between atoms: C_6  and  C_7
REMARK    3  A    between atoms: C_11  and  C_12
REMARK    4  A    between atoms: N_15  and  C_16
REMARK    5  A    between atoms: C_16  and  C_18
REMARK                            x       y       z     vdW  Elec       q    Type
REMARK                         _______ _______ _______ _____ _____    ______ ____
ROOT
ATOM      1  C   UNL     1      32.119  15.731  33.854  0.00  0.00    +0.000 A 
ATOM      2  C   UNL     1      30.910  16.386  33.981  0.00  0.00    +0.000 A 
ATOM      3  C   UNL     1      29.911  15.935  34.818  0.00  0.00    +0.000 A 
ATOM      4  N   UNL     1      28.726  16.714  34.842  0.00  0.00    +0.000 NA
ATOM      5  N   UNL     1      30.128  14.826  35.522  0.00  0.00    +0.000 NA
ATOM      6  C   UNL     1      31.310  14.172  35.407  0.00  0.00    +0.000 A 
ATOM      7  C   UNL     1      31.471  12.946  36.227  0.00  0.00    +0.000 C 
ATOM      8  N   UNL     1      32.297  14.618  34.582  0.00  0.00    +0.000 NA
ENDROOT
BRANCH   1  13
ATOM      9  C   UNL     1      33.891  17.027  30.830  0.00  0.00    +0.000 A 
ATOM     10  C   UNL     1      35.173  17.153  31.305  0.00  0.00    +0.000 A 
ATOM     11  N   UNL     1      35.436  16.823  32.570  0.00  0.00    +0.000 NA
ATOM     12  C   UNL     1      34.475  16.368  33.395  0.00  0.00    +0.000 A 
ATOM     13  C   UNL     1      33.176  16.228  32.956  0.00  0.00    +0.000 A 
ATOM     14  C   UNL     1      32.907  16.566  31.659  0.00  0.00    +0.000 A 
BRANCH   9  18
ATOM     15  C   UNL     1      32.783  18.015  26.796  0.00  0.00    +0.000 A 
ATOM     16  C   UNL     1      34.045  18.296  27.278  0.00  0.00    +0.000 A 
ATOM     17  C   UNL     1      34.411  17.983  28.571  0.00  0.00    +0.000 A 
ATOM     18  C   UNL     1      33.536  17.375  29.447  0.00  0.00    +0.000 A 
ATOM     19  C   UNL     1      32.271  17.094  28.962  0.00  0.00    +0.000 A 
ATOM     20  C   UNL     1      31.907  17.408  27.668  0.00  0.00    +0.000 A 
BRANCH  15  22
ATOM     21  C   UNL     1      32.629  17.409  24.439  0.00  0.00    +0.000 C 
ATOM     22  O   UNL     1      32.412  18.331  25.490  0.00  0.00    +0.000 OA
ENDBRANCH  15  22
ENDBRANCH   9  18
ENDBRANCH   1  13
BRANCH   4  23
ATOM     23  C   UNL     1      27.599  16.159  35.818  0.00  0.00    +0.000 C 
ATOM     24  C   UNL     1      27.010  17.675  36.195  0.00  0.00    +0.000 C 
BRANCH  23  25
ATOM     25  C   UNL     1      26.534  15.885  34.640  0.00  0.00    +0.000 A 
ATOM     26  C   UNL     1      25.855  16.880  34.084  0.00  0.00    +0.000 A 
ATOM     27  C   UNL     1      24.950  16.635  33.080  0.00  0.00    +0.000 A 
ATOM     28  C   UNL     1      24.760  15.342  32.664  0.00  0.00    +0.000 A 
ATOM     29  C   UNL     1      25.461  14.296  33.238  0.00  0.00    +0.000 A 
ATOM     30  C   UNL     1      26.375  14.585  34.258  0.00  0.00    +0.000 A 
ENDBRANCH  23  25
ENDBRANCH   4  23
TORSDOF 5
ENDMDL
MODEL 6
REMARK VINA RESULT:      -7.9     25.110     28.133
REMARK  Name = 
REMARK  5 active torsions:
REMARK  status: ('A' for Active; 'I' for Inactive)
REMARK    1  A    between atoms: O_2  and  C_3
REMARK    2  A    between atoms: C_6  and  C_7
REMARK    3  A    between atoms: C_11  and  C_12
REMARK    4  A    between atoms: N_15  and  C_16
REMARK    5  A    between atoms: C_16  and  C_18
REMARK                            x       y       z     vdW  Elec       q    Type
REMARK                         _______ _______ _______ _____ _____    ______ ____
ROOT
ATOM      1  C   UNL     1      26.114  14.011  39.898  0.00  0.00    +0.000 A 
ATOM      2  C   UNL     1      26.541  14.617  38.734  0.00  0.00    +0.000 A 
ATOM      3  C   UNL     1      25.789  15.569  38.079  0.00  0.00    +0.000 A 
ATOM      4  N   UNL     1      26.360  16.101  36.895  0.00  0.00    +0.000 NA
ATOM      5  N   UNL     1      24.609  15.909  38.595  0.00  0.00    +0.000 NA
ATOM      6  C   UNL     1      24.177  15.321  39.738  0.00  0.00    +0.000 A 
ATOM      7  C   UNL     1      22.852  15.756  40.246  0.00  0.00    +0.000 C 
ATOM      8  N   UNL     1      24.920  14.382  40.385  0.00  0.00    +0.000 NA
ENDROOT
BRANCH   1  13
ATOM      9  C   UNL     1      27.117  11.036  41.925  0.00  0.00    +0.000 A 
ATOM     10  C   UNL     1      28.486  11.115  41.856  0.00  0.00    +0.000 A 
ATOM     11  N   UNL     1      29.049  12.109  41.169  0.00  0.00    +0.000 NA
ATOM     12  C   UNL     1      28.309  13.040  40.540  0.00  0.00    +0.000 A 
ATOM     13  C   UNL     1      26.931  12.996  40.585  0.00  0.00    +0.000 A 
ATOM     14  C   UNL     1      26.355  11.976  41.290  0.00  0.00    +0.000 A 
BRANCH   9  18
ATOM     15  C   UNL     1      25.069   7.950  44.108  0.00  0.00    +0.000 A 
ATOM     16  C   UNL     1      26.273   7.702  43.482  0.00  0.00    +0.000 A 
ATOM     17  C   UNL     1      26.939   8.685  42.778  0.00  0.00    +0.000 A 
ATOM     18  C   UNL     1      26.436   9.964  42.665  0.00  0.00    +0.000 A 
ATOM     19  C   UNL     1      25.229  10.212  43.293  0.00  0.00    +0.000 A 
ATOM     20  C   UNL     1      24.565   9.228  43.997  0.00  0.00    +0.000 A 
BRANCH  15  22
ATOM     21  C   UNL     1      25.019   6.307  45.909  0.00  0.00    +0.000 C 
ATOM     22  O   UNL     1      24.396   6.959  44.818  0.00  0.00    +0.000 OA
ENDBRANCH  15  22
ENDBRANCH   9  18
ENDBRANCH   1  13
BRANCH   4  23
ATOM     23  C   UNL     1      25.460  17.196  36.170  0.00  0.00    +0.000 C 
ATOM     24  C   UNL     1      26.761  18.139  35.717  0.00  0.00    +0.000 C 
BRANCH  23  25
ATOM     25  C   UNL     1      25.380  16.392  34.776  0.00  0.00    +0.000 A 
ATOM     26  C   UNL     1      25.819  15.144  34.677  0.00  0.00    +0.000 A 
ATOM     27  C   UNL     1      25.746  14.468  33.484  0.00  0.00    +0.000 A 
ATOM     28  C   UNL     1      25.211  15.106  32.395  0.00  0.00    +0.000 A 
ATOM     29  C   UNL     1      24.751  16.408  32.486  0.00  0.00    +0.000 A 
ATOM     30  C   UNL     1      24.842  17.065  33.719  0.00  0.00    +0.000 A 
ENDBRANCH  23  25
ENDBRANCH   4  23
TORSDOF 5
ENDMDL
MODEL 7
REMARK VINA RESULT:      -7.9      3.150      4.732
REMARK  Name = 
REMARK  5 active torsions:
REMARK  status: ('A' for Active; 'I' for Inactive)
REMARK    1  A    between atoms: O_2  and  C_3
REMARK    2  A    between atoms: C_6  and  C_7
REMARK    3  A    between atoms: C_11  and  C_12
REMARK    4  A    between atoms: N_15  and  C_16
REMARK    5  A    between atoms: C_16  and  C_18
REMARK                            x       y       z     vdW  Elec       q    Type
REMARK                         _______ _______ _______ _____ _____    ______ ____
ROOT
ATOM      1  C   UNL     1      38.130   5.510  16.871  0.00  0.00    +0.000 A 
ATOM      2  C   UNL     1      38.012   4.135  16.827  0.00  0.00    +0.000 A 
ATOM      3  C   UNL     1      37.447   3.478  15.753  0.00  0.00    +0.000 A 
ATOM      4  N   UNL     1      37.396   2.064  15.852  0.00  0.00    +0.000 NA
ATOM      5  N   UNL     1      37.003   4.204  14.729  0.00  0.00    +0.000 NA
ATOM      6  C   UNL     1      37.112   5.555  14.760  0.00  0.00    +0.000 A 
ATOM      7  C   UNL     1      36.593   6.288  13.580  0.00  0.00    +0.000 C 
ATOM      8  N   UNL     1      37.670   6.204  15.819  0.00  0.00    +0.000 NA
ENDROOT
BRANCH   1  13
ATOM      9  C   UNL     1      38.979   8.120  19.407  0.00  0.00    +0.000 A 
ATOM     10  C   UNL     1      39.884   7.446  20.191  0.00  0.00    +0.000 A 
ATOM     11  N   UNL     1      40.198   6.186  19.891  0.00  0.00    +0.000 NA
ATOM     12  C   UNL     1      39.649   5.554  18.837  0.00  0.00    +0.000 A 
ATOM     13  C   UNL     1      38.736   6.195  18.026  0.00  0.00    +0.000 A 
ATOM     14  C   UNL     1      38.415   7.489  18.335  0.00  0.00    +0.000 A 
BRANCH   9  18
ATOM     15  C   UNL     1      37.882  12.181  20.292  0.00  0.00    +0.000 A 
ATOM     16  C   UNL     1      37.501  11.580  19.110  0.00  0.00    +0.000 A 
ATOM     17  C   UNL     1      37.847  10.278  18.815  0.00  0.00    +0.000 A 
ATOM     18  C   UNL     1      38.592   9.509  19.687  0.00  0.00    +0.000 A 
ATOM     19  C   UNL     1      38.974  10.112  20.871  0.00  0.00    +0.000 A 
ATOM     20  C   UNL     1      38.625  11.416  21.164  0.00  0.00    +0.000 A 
BRANCH  15  22
ATOM     21  C   UNL     1      37.843  14.054  21.853  0.00  0.00    +0.000 C 
ATOM     22  O   UNL     1      37.533  13.496  20.590  0.00  0.00    +0.000 OA
ENDBRANCH  15  22
ENDBRANCH   9  18
ENDBRANCH   1  13
BRANCH   4  23
ATOM     23  C   UNL     1      36.738   1.345  14.593  0.00  0.00    +0.000 C 
ATOM     24  C   UNL     1      38.099   0.442  14.246  0.00  0.00    +0.000 C 
BRANCH  23  25
ATOM     25  C   UNL     1      36.026   0.192  15.464  0.00  0.00    +0.000 A 
ATOM     26  C   UNL     1      36.214  -1.092  15.189  0.00  0.00    +0.000 A 
ATOM     27  C   UNL     1      35.602  -2.067  15.938  0.00  0.00    +0.000 A 
ATOM     28  C   UNL     1      34.791  -1.689  16.977  0.00  0.00    +0.000 A 
ATOM     29  C   UNL     1      34.586  -0.353  17.273  0.00  0.00    +0.000 A 
ATOM     30  C   UNL     1      35.227   0.612  16.487  0.00  0.00    +0.000 A 
ENDBRANCH  23  25
ENDBRANCH   4  23
TORSDOF 5
ENDMDL
MODEL 8
REMARK VINA RESULT:      -7.8      5.770     11.030
REMARK  Name = 
REMARK  5 active torsions:
REMARK  status: ('A' for Active; 'I' for Inactive)
REMARK    1  A    between atoms: O_2  and  C_3
REMARK    2  A    between atoms: C_6  and  C_7
REMARK    3  A    between atoms: C_11  and  C_12
REMARK    4  A    between atoms: N_15  and  C_16
REMARK    5  A    between atoms: C_16  and  C_18
REMARK                            x       y       z     vdW  Elec       q    Type
REMARK                         _______ _______ _______ _____ _____    ______ ____
ROOT
ATOM      1  C   UNL     1      44.769   5.974  23.602  0.00  0.00    +0.000 A 
ATOM      2  C   UNL     1      43.888   6.148  24.651  0.00  0.00    +0.000 A 
ATOM      3  C   UNL     1      44.071   5.540  25.875  0.00  0.00    +0.000 A 
ATOM      4  N   UNL     1      43.082   5.815  26.854  0.00  0.00    +0.000 NA
ATOM      5  N   UNL     1      45.136   4.760  26.042  0.00  0.00    +0.000 NA
ATOM      6  C   UNL     1      46.009   4.579  25.021  0.00  0.00    +0.000 A 
ATOM      7  C   UNL     1      47.169   3.694  25.289  0.00  0.00    +0.000 C 
ATOM      8  N   UNL     1      45.830   5.179  23.811  0.00  0.00    +0.000 NA
ENDROOT
BRANCH   1  13
ATOM      9  C   UNL     1      43.265   6.977  20.331  0.00  0.00    +0.000 A 
ATOM     10  C   UNL     1      44.197   7.875  19.873  0.00  0.00    +0.000 A 
ATOM     11  N   UNL     1      45.274   8.135  20.614  0.00  0.00    +0.000 NA
ATOM     12  C   UNL     1      45.472   7.538  21.804  0.00  0.00    +0.000 A 
ATOM     13  C   UNL     1      44.559   6.630  22.300  0.00  0.00    +0.000 A 
ATOM     14  C   UNL     1      43.455   6.365  21.538  0.00  0.00    +0.000 A 
BRANCH   9  18
ATOM     15  C   UNL     1      39.690   6.016  18.146  0.00  0.00    +0.000 A 
ATOM     16  C   UNL     1      40.895   6.196  17.498  0.00  0.00    +0.000 A 
ATOM     17  C   UNL     1      42.049   6.505  18.190  0.00  0.00    +0.000 A 
ATOM     18  C   UNL     1      42.057   6.649  19.562  0.00  0.00    +0.000 A 
ATOM     19  C   UNL     1      40.848   6.470  20.209  0.00  0.00    +0.000 A 
ATOM     20  C   UNL     1      39.695   6.160  19.516  0.00  0.00    +0.000 A 
BRANCH  15  22
ATOM     21  C   UNL     1      38.104   4.360  17.316  0.00  0.00    +0.000 C 
ATOM     22  O   UNL     1      38.525   5.705  17.449  0.00  0.00    +0.000 OA
ENDBRANCH  15  22
ENDBRANCH   9  18
ENDBRANCH   1  13
BRANCH   4  23
ATOM     23  C   UNL     1      43.329   5.095  28.252  0.00  0.00    +0.000 C 
ATOM     24  C   UNL     1      44.101   6.412  28.929  0.00  0.00    +0.000 C 
BRANCH  23  25
ATOM     25  C   UNL     1      41.877   5.467  28.844  0.00  0.00    +0.000 A 
ATOM     26  C   UNL     1      41.245   6.572  28.470  0.00  0.00    +0.000 A 
ATOM     27  C   UNL     1      40.008   6.879  28.982  0.00  0.00    +0.000 A 
ATOM     28  C   UNL     1      39.437   6.022  29.887  0.00  0.00    +0.000 A 
ATOM     29  C   UNL     1      40.087   4.867  30.286  0.00  0.00    +0.000 A 
ATOM     30  C   UNL     1      41.347   4.588  29.742  0.00  0.00    +0.000 A 
ENDBRANCH  23  25
ENDBRANCH   4  23
TORSDOF 5
ENDMDL
MODEL 9
REMARK VINA RESULT:      -7.8      3.102      5.546
REMARK  Name = 
REMARK  5 active torsions:
REMARK  status: ('A' for Active; 'I' for Inactive)
REMARK    1  A    between atoms: O_2  and  C_3
REMARK    2  A    between atoms: C_6  and  C_7
REMARK    3  A    between atoms: C_11  and  C_12
REMARK    4  A    between atoms: N_15  and  C_16
REMARK    5  A    between atoms: C_16  and  C_18
REMARK                            x       y       z     vdW  Elec       q    Type
REMARK                         _______ _______ _______ _____ _____    ______ ____
ROOT
ATOM      1  C   UNL     1      37.833   2.024  15.232  0.00  0.00    +0.000 A 
ATOM      2  C   UNL     1      38.836   1.363  14.551  0.00  0.00    +0.000 A 
ATOM      3  C   UNL     1      38.795   0.004  14.314  0.00  0.00    +0.000 A 
ATOM      4  N   UNL     1      39.897  -0.532  13.602  0.00  0.00    +0.000 NA
ATOM      5  N   UNL     1      37.747  -0.684  14.761  0.00  0.00    +0.000 NA
ATOM      6  C   UNL     1      36.755  -0.048  15.431  0.00  0.00    +0.000 A 
ATOM      7  C   UNL     1      35.624  -0.889  15.895  0.00  0.00    +0.000 C 
ATOM      8  N   UNL     1      36.795   1.293  15.665  0.00  0.00    +0.000 NA
ENDROOT
BRANCH   1  13
ATOM      9  C   UNL     1      38.796   5.353  16.629  0.00  0.00    +0.000 A 
ATOM     10  C   UNL     1      37.981   6.191  15.909  0.00  0.00    +0.000 A 
ATOM     11  N   UNL     1      37.151   5.675  15.002  0.00  0.00    +0.000 NA
ATOM     12  C   UNL     1      37.091   4.350  14.775  0.00  0.00    +0.000 A 
ATOM     13  C   UNL     1      37.893   3.475  15.477  0.00  0.00    +0.000 A 
ATOM     14  C   UNL     1      38.744   4.006  16.406  0.00  0.00    +0.000 A 
BRANCH   9  18
ATOM     15  C   UNL     1      41.483   6.829  19.643  0.00  0.00    +0.000 A 
ATOM     16  C   UNL     1      41.883   6.708  18.328  0.00  0.00    +0.000 A 
ATOM     17  C   UNL     1      41.029   6.235  17.353  0.00  0.00    +0.000 A 
ATOM     18  C   UNL     1      39.734   5.860  17.641  0.00  0.00    +0.000 A 
ATOM     19  C   UNL     1      39.333   5.982  18.959  0.00  0.00    +0.000 A 
ATOM     20  C   UNL     1      40.189   6.455  19.934  0.00  0.00    +0.000 A 
BRANCH  15  22
ATOM     21  C   UNL     1      43.164   6.414  21.360  0.00  0.00    +0.000 C 
ATOM     22  O   UNL     1      42.344   7.306  20.629  0.00  0.00    +0.000 OA
ENDBRANCH  15  22
ENDBRANCH   9  18
ENDBRANCH   1  13
BRANCH   4  23
ATOM     23  C   UNL     1      39.811  -2.101  13.349  0.00  0.00    +0.000 C 
ATOM     24  C   UNL     1      39.691  -1.948  11.691  0.00  0.00    +0.000 C 
BRANCH  23  25
ATOM     25  C   UNL     1      41.408  -2.318  13.353  0.00  0.00    +0.000 A 
ATOM     26  C   UNL     1      41.991  -3.142  12.492  0.00  0.00    +0.000 A 
ATOM     27  C   UNL     1      43.352  -3.320  12.504  0.00  0.00    +0.000 A 
ATOM     28  C   UNL     1      44.100  -2.629  13.423  0.00  0.00    +0.000 A 
ATOM     29  C   UNL     1      43.503  -1.768  14.327  0.00  0.00    +0.000 A 
ATOM     30  C   UNL     1      42.112  -1.613  14.284  0.00  0.00    +0.000 A 
ENDBRANCH  23  25
ENDBRANCH   4  23
TORSDOF 5
ENDMDL
MODEL 10
REMARK VINA RESULT:      -7.6      6.323      7.244
REMARK  Name = 
REMARK  5 active torsions:
REMARK  status: ('A' for Active; 'I' for Inactive)
REMARK    1  A    between atoms: O_2  and  C_3
REMARK    2  A    between atoms: C_6  and  C_7
REMARK    3  A    between atoms: C_11  and  C_12
REMARK    4  A    between atoms: N_15  and  C_16
REMARK    5  A    between atoms: C_16  and  C_18
REMARK                            x       y       z     vdW  Elec       q    Type
REMARK                         _______ _______ _______ _____ _____    ______ ____
ROOT
ATOM      1  C   UNL     1      40.550  -0.581  13.642  0.00  0.00    +0.000 A 
ATOM      2  C   UNL     1      39.984  -1.438  14.565  0.00  0.00    +0.000 A 
ATOM      3  C   UNL     1      38.633  -1.713  14.584  0.00  0.00    +0.000 A 
ATOM      4  N   UNL     1      38.200  -2.613  15.591  0.00  0.00    +0.000 NA
ATOM      5  N   UNL     1      37.855  -1.127  13.677  0.00  0.00    +0.000 NA
ATOM      6  C   UNL     1      38.397  -0.282  12.765  0.00  0.00    +0.000 A 
ATOM      7  C   UNL     1      37.461   0.329  11.790  0.00  0.00    +0.000 C 
ATOM      8  N   UNL     1      39.731  -0.011  12.746  0.00  0.00    +0.000 NA
ENDROOT
BRANCH   1  13
ATOM      9  C   UNL     1      44.149  -0.457  14.641  0.00  0.00    +0.000 A 
ATOM     10  C   UNL     1      44.692   0.247  13.594  0.00  0.00    +0.000 A 
ATOM     11  N   UNL     1      43.901   0.660  12.604  0.00  0.00    +0.000 NA
ATOM     12  C   UNL     1      42.580   0.406  12.604  0.00  0.00    +0.000 A 
ATOM     13  C   UNL     1      41.996  -0.298  13.636  0.00  0.00    +0.000 A 
ATOM     14  C   UNL     1      42.809  -0.722  14.651  0.00  0.00    +0.000 A 
BRANCH   9  18
ATOM     15  C   UNL     1      46.544  -1.802  17.948  0.00  0.00    +0.000 A 
ATOM     16  C   UNL     1      46.171  -2.667  16.939  0.00  0.00    +0.000 A 
ATOM     17  C   UNL     1      45.403  -2.245  15.873  0.00  0.00    +0.000 A 
ATOM     18  C   UNL     1      44.968  -0.941  15.761  0.00  0.00    +0.000 A 
ATOM     19  C   UNL     1      45.342  -0.076  16.773  0.00  0.00    +0.000 A 
ATOM     20  C   UNL     1      46.111  -0.499  17.838  0.00  0.00    +0.000 A 
BRANCH  15  22
ATOM     21  C   UNL     1      46.710  -2.619  20.239  0.00  0.00    +0.000 C 
ATOM     22  O   UNL     1      47.320  -2.226  19.024  0.00  0.00    +0.000 OA
ENDBRANCH  15  22
ENDBRANCH   9  18
ENDBRANCH   1  13
BRANCH   4  23
ATOM     23  C   UNL     1      36.635  -2.904  15.578  0.00  0.00    +0.000 C 
ATOM     24  C   UNL     1      36.764  -4.288  16.504  0.00  0.00    +0.000 C 
BRANCH  23  25
ATOM     25  C   UNL     1      36.316  -1.933  16.824  0.00  0.00    +0.000 A 
ATOM     26  C   UNL     1      35.433  -0.948  16.717  0.00  0.00    +0.000 A 
ATOM     27  C   UNL     1      35.169  -0.126  17.786  0.00  0.00    +0.000 A 
ATOM     28  C   UNL     1      35.833  -0.343  18.965  0.00  0.00    +0.000 A 
ATOM     29  C   UNL     1      36.757  -1.366  19.088  0.00  0.00    +0.000 A 
ATOM     30  C   UNL     1      36.999  -2.183  17.977  0.00  0.00    +0.000 A 
ENDBRANCH  23  25
ENDBRANCH   4  23
TORSDOF 5
ENDMDL
