MODEL 1
REMARK VINA RESULT:      -7.9      0.000      0.000
REMARK  Name = 
REMARK  4 active torsions:
REMARK  status: ('A' for Active; 'I' for Inactive)
REMARK    1  A    between atoms: C_2  and  C_3
REMARK    2  A    between atoms: C_5  and  C_6
REMARK    3  A    between atoms: C_14  and  C_15
REMARK    4  A    between atoms: C_18  and  C_19
REMARK                            x       y       z     vdW  Elec       q    Type
REMARK                         _______ _______ _______ _____ _____    ______ ____
ROOT
ATOM      1  O   UNL     1      16.961   9.327  34.358  0.00  0.00    +0.000 OA
ATOM      2  C   UNL     1      16.839  10.336  35.187  0.00  0.00    +0.000 C 
ATOM      3  N   UNL     1      17.548  10.363  36.372  0.00  0.00    +0.000 N 
ATOM      4  C   UNL     1      18.469   9.291  36.770  0.00  0.00    +0.000 C 
ATOM      5  C   UNL     1      19.597  10.196  37.124  0.00  0.00    +0.000 C 
ATOM      6  C   UNL     1      18.835  11.165  38.255  0.00  0.00    +0.000 C 
ATOM      7  C   UNL     1      17.483  11.391  37.352  0.00  0.00    +0.000 C 
ENDROOT
BRANCH   2   8
ATOM      8  C   UNL     1      15.853  11.338  34.630  0.00  0.00    +0.000 A 
ATOM      9  C   UNL     1      16.448  11.198  33.038  0.00  0.00    +0.000 A 
ATOM     10  C   UNL     1      15.729  12.004  32.291  0.00  0.00    +0.000 A 
ATOM     11  N   UNL     1      14.829  12.610  33.079  0.00  0.00    +0.000 NA
ATOM     12  N   UNL     1      15.103  12.100  34.207  0.00  0.00    +0.000 NA
BRANCH  10  13
ATOM     13  C   UNL     1      15.751  12.277  30.806  0.00  0.00    +0.000 C 
ATOM     14  C   UNL     1      16.707  13.453  30.433  0.00  0.00    +0.000 C 
ATOM     15  C   UNL     1      15.222  13.622  30.450  0.00  0.00    +0.000 C 
ENDBRANCH  10  13
ENDBRANCH   2   8
BRANCH   6  16
ATOM     16  C   UNL     1      18.285   9.923  39.121  0.00  0.00    +0.000 A 
ATOM     17  N   UNL     1      17.096   9.737  39.580  0.00  0.00    +0.000 NA
ATOM     18  O   UNL     1      17.127   8.583  40.230  0.00  0.00    +0.000 OA
ATOM     19  C   UNL     1      18.323   8.062  40.168  0.00  0.00    +0.000 A 
ATOM     20  N   UNL     1      19.120   8.912  39.448  0.00  0.00    +0.000 NA
BRANCH  19  21
ATOM     21  C   UNL     1      18.735   6.795  40.769  0.00  0.00    +0.000 A 
ATOM     22  C   UNL     1      18.014   5.699  41.135  0.00  0.00    +0.000 A 
ATOM     23  C   UNL     1      18.663   4.672  41.656  0.00  0.00    +0.000 A 
ATOM     24  C   UNL     1      20.007   4.757  41.802  0.00  0.00    +0.000 A 
ATOM     25  S   UNL     1      20.324   6.339  41.178  0.00  0.00    +0.000 S 
ENDBRANCH  19  21
ENDBRANCH   6  16
TORSDOF 4
ENDMDL
MODEL 2
REMARK VINA RESULT:      -6.9     19.120     23.273
REMARK  Name = 
REMARK  4 active torsions:
REMARK  status: ('A' for Active; 'I' for Inactive)
REMARK    1  A    between atoms: C_2  and  C_3
REMARK    2  A    between atoms: C_5  and  C_6
REMARK    3  A    between atoms: C_14  and  C_15
REMARK    4  A    between atoms: C_18  and  C_19
REMARK                            x       y       z     vdW  Elec       q    Type
REMARK                         _______ _______ _______ _____ _____    ______ ____
ROOT
ATOM      1  O   UNL     1      31.739  25.023  28.134  0.00  0.00    +0.000 OA
ATOM      2  C   UNL     1      31.126  23.905  27.822  0.00  0.00    +0.000 C 
ATOM      3  N   UNL     1      30.878  23.584  26.501  0.00  0.00    +0.000 N 
ATOM      4  C   UNL     1      31.279  24.450  25.385  0.00  0.00    +0.000 C 
ATOM      5  C   UNL     1      31.916  23.366  24.588  0.00  0.00    +0.000 C 
ATOM      6  C   UNL     1      30.623  22.313  24.462  0.00  0.00    +0.000 C 
ATOM      7  C   UNL     1      30.209  22.416  26.046  0.00  0.00    +0.000 C 
ENDROOT
BRANCH   2   8
ATOM      8  C   UNL     1      30.779  23.145  29.081  0.00  0.00    +0.000 A 
ATOM      9  C   UNL     1      29.158  23.678  29.084  0.00  0.00    +0.000 A 
ATOM     10  C   UNL     1      28.581  23.134  30.131  0.00  0.00    +0.000 A 
ATOM     11  N   UNL     1      29.495  22.391  30.771  0.00  0.00    +0.000 NA
ATOM     12  N   UNL     1      30.514  22.566  30.039  0.00  0.00    +0.000 NA
BRANCH  10  13
ATOM     13  C   UNL     1      27.158  23.195  30.632  0.00  0.00    +0.000 C 
ATOM     14  C   UNL     1      26.378  21.870  30.364  0.00  0.00    +0.000 C 
ATOM     15  C   UNL     1      26.149  23.097  29.541  0.00  0.00    +0.000 C 
ENDBRANCH  10  13
ENDBRANCH   2   8
BRANCH   6  16
ATOM     16  C   UNL     1      29.607  23.440  23.922  0.00  0.00    +0.000 A 
ATOM     17  N   UNL     1      28.428  23.723  24.357  0.00  0.00    +0.000 NA
ATOM     18  O   UNL     1      27.982  24.714  23.598  0.00  0.00    +0.000 OA
ATOM     19  C   UNL     1      28.879  25.038  22.706  0.00  0.00    +0.000 A 
ATOM     20  N   UNL     1      29.966  24.224  22.881  0.00  0.00    +0.000 NA
BRANCH  19  21
ATOM     21  C   UNL     1      28.741  26.086  21.697  0.00  0.00    +0.000 A 
ATOM     22  C   UNL     1      29.561  26.465  20.678  0.00  0.00    +0.000 A 
ATOM     23  C   UNL     1      29.171  27.460  19.900  0.00  0.00    +0.000 A 
ATOM     24  C   UNL     1      27.979  28.053  20.151  0.00  0.00    +0.000 A 
ATOM     25  S   UNL     1      27.429  27.158  21.526  0.00  0.00    +0.000 S 
ENDBRANCH  19  21
ENDBRANCH   6  16
TORSDOF 4
ENDMDL
MODEL 3
REMARK VINA RESULT:      -6.9     18.456     22.214
REMARK  Name = 
REMARK  4 active torsions:
REMARK  status: ('A' for Active; 'I' for Inactive)
REMARK    1  A    between atoms: C_2  and  C_3
REMARK    2  A    between atoms: C_5  and  C_6
REMARK    3  A    between atoms: C_14  and  C_15
REMARK    4  A    between atoms: C_18  and  C_19
REMARK                            x       y       z     vdW  Elec       q    Type
REMARK                         _______ _______ _______ _____ _____    ______ ____
ROOT
ATOM      1  O   UNL     1      31.868  24.956  28.147  0.00  0.00    +0.000 OA
ATOM      2  C   UNL     1      31.222  23.855  27.844  0.00  0.00    +0.000 C 
ATOM      3  N   UNL     1      30.926  23.553  26.529  0.00  0.00    +0.000 N 
ATOM      4  C   UNL     1      31.309  24.423  25.409  0.00  0.00    +0.000 C 
ATOM      5  C   UNL     1      31.898  23.335  24.580  0.00  0.00    +0.000 C 
ATOM      6  C   UNL     1      30.580  22.310  24.485  0.00  0.00    +0.000 C 
ATOM      7  C   UNL     1      30.219  22.404  26.083  0.00  0.00    +0.000 C 
ENDROOT
BRANCH   2   8
ATOM      8  C   UNL     1      30.900  23.087  29.105  0.00  0.00    +0.000 A 
ATOM      9  C   UNL     1      29.269  23.587  29.120  0.00  0.00    +0.000 A 
ATOM     10  C   UNL     1      28.710  23.031  30.171  0.00  0.00    +0.000 A 
ATOM     11  N   UNL     1      29.644  22.307  30.805  0.00  0.00    +0.000 NA
ATOM     12  N   UNL     1      30.654  22.503  30.065  0.00  0.00    +0.000 NA
BRANCH  10  13
ATOM     13  C   UNL     1      27.290  23.063  30.681  0.00  0.00    +0.000 C 
ATOM     14  C   UNL     1      26.472  21.811  30.237  0.00  0.00    +0.000 C 
ATOM     15  C   UNL     1      26.278  23.145  29.592  0.00  0.00    +0.000 C 
ENDBRANCH  10  13
ENDBRANCH   2   8
BRANCH   6  16
ATOM     16  C   UNL     1      29.570  23.464  23.990  0.00  0.00    +0.000 A 
ATOM     17  N   UNL     1      29.653  24.193  22.931  0.00  0.00    +0.000 NA
ATOM     18  O   UNL     1      28.601  24.999  22.955  0.00  0.00    +0.000 OA
ATOM     19  C   UNL     1      27.878  24.766  24.017  0.00  0.00    +0.000 A 
ATOM     20  N   UNL     1      28.479  23.763  24.729  0.00  0.00    +0.000 NA
BRANCH  19  21
ATOM     21  C   UNL     1      26.644  25.460  24.380  0.00  0.00    +0.000 A 
ATOM     22  C   UNL     1      25.477  24.999  24.909  0.00  0.00    +0.000 A 
ATOM     23  C   UNL     1      24.512  25.871  25.147  0.00  0.00    +0.000 A 
ATOM     24  C   UNL     1      24.728  27.176  24.854  0.00  0.00    +0.000 A 
ATOM     25  S   UNL     1      26.341  27.129  24.230  0.00  0.00    +0.000 S 
ENDBRANCH  19  21
ENDBRANCH   6  16
TORSDOF 4
ENDMDL
MODEL 4
REMARK VINA RESULT:      -6.8     20.016     24.587
REMARK  Name = 
REMARK  4 active torsions:
REMARK  status: ('A' for Active; 'I' for Inactive)
REMARK    1  A    between atoms: C_2  and  C_3
REMARK    2  A    between atoms: C_5  and  C_6
REMARK    3  A    between atoms: C_14  and  C_15
REMARK    4  A    between atoms: C_18  and  C_19
REMARK                            x       y       z     vdW  Elec       q    Type
REMARK                         _______ _______ _______ _____ _____    ______ ____
ROOT
ATOM      1  O   UNL     1      30.026  25.349  26.418  0.00  0.00    +0.000 OA
ATOM      2  C   UNL     1      28.847  25.471  25.855  0.00  0.00    +0.000 C 
ATOM      3  N   UNL     1      28.599  24.913  24.616  0.00  0.00    +0.000 N 
ATOM      4  C   UNL     1      29.612  24.160  23.866  0.00  0.00    +0.000 C 
ATOM      5  C   UNL     1      28.730  23.000  23.563  0.00  0.00    +0.000 C 
ATOM      6  C   UNL     1      27.478  23.794  22.790  0.00  0.00    +0.000 C 
ATOM      7  C   UNL     1      27.371  24.996  23.903  0.00  0.00    +0.000 C 
ENDROOT
BRANCH   2   8
ATOM      8  C   UNL     1      27.934  26.276  26.751  0.00  0.00    +0.000 A 
ATOM      9  C   UNL     1      27.354  24.900  27.576  0.00  0.00    +0.000 A 
ATOM     10  C   UNL     1      26.495  25.327  28.472  0.00  0.00    +0.000 A 
ATOM     11  N   UNL     1      26.418  26.662  28.371  0.00  0.00    +0.000 NA
ATOM     12  N   UNL     1      27.240  26.888  27.433  0.00  0.00    +0.000 NA
BRANCH  10  13
ATOM     13  C   UNL     1      25.698  24.592  29.522  0.00  0.00    +0.000 C 
ATOM     14  C   UNL     1      26.536  24.297  30.805  0.00  0.00    +0.000 C 
ATOM     15  C   UNL     1      26.223  23.229  29.809  0.00  0.00    +0.000 C 
ENDBRANCH  10  13
ENDBRANCH   2   8
BRANCH   6  16
ATOM     16  C   UNL     1      28.446  24.568  21.761  0.00  0.00    +0.000 A 
ATOM     17  N   UNL     1      29.446  24.094  21.100  0.00  0.00    +0.000 NA
ATOM     18  O   UNL     1      29.933  25.105  20.394  0.00  0.00    +0.000 OA
ATOM     19  C   UNL     1      29.238  26.188  20.617  0.00  0.00    +0.000 A 
ATOM     20  N   UNL     1      28.249  25.881  21.513  0.00  0.00    +0.000 NA
BRANCH  19  21
ATOM     21  C   UNL     1      29.481  27.497  20.016  0.00  0.00    +0.000 A 
ATOM     22  C   UNL     1      30.044  27.848  18.826  0.00  0.00    +0.000 A 
ATOM     23  C   UNL     1      30.129  29.134  18.532  0.00  0.00    +0.000 A 
ATOM     24  C   UNL     1      29.655  30.039  19.422  0.00  0.00    +0.000 A 
ATOM     25  S   UNL     1      29.086  29.010  20.691  0.00  0.00    +0.000 S 
ENDBRANCH  19  21
ENDBRANCH   6  16
TORSDOF 4
ENDMDL
MODEL 5
REMARK VINA RESULT:      -6.8     21.428     24.788
REMARK  Name = 
REMARK  4 active torsions:
REMARK  status: ('A' for Active; 'I' for Inactive)
REMARK    1  A    between atoms: C_2  and  C_3
REMARK    2  A    between atoms: C_5  and  C_6
REMARK    3  A    between atoms: C_14  and  C_15
REMARK    4  A    between atoms: C_18  and  C_19
REMARK                            x       y       z     vdW  Elec       q    Type
REMARK                         _______ _______ _______ _____ _____    ______ ____
ROOT
ATOM      1  O   UNL     1      28.507  28.797  22.308  0.00  0.00    +0.000 OA
ATOM      2  C   UNL     1      28.282  27.726  21.585  0.00  0.00    +0.000 C 
ATOM      3  N   UNL     1      28.134  26.491  22.184  0.00  0.00    +0.000 N 
ATOM      4  C   UNL     1      28.213  26.299  23.638  0.00  0.00    +0.000 C 
ATOM      5  C   UNL     1      26.966  25.492  23.742  0.00  0.00    +0.000 C 
ATOM      6  C   UNL     1      27.338  24.261  22.673  0.00  0.00    +0.000 C 
ATOM      7  C   UNL     1      27.906  25.263  21.504  0.00  0.00    +0.000 C 
ENDROOT
BRANCH   2   8
ATOM      8  C   UNL     1      28.239  28.099  20.120  0.00  0.00    +0.000 A 
ATOM      9  C   UNL     1      29.846  27.599  19.837  0.00  0.00    +0.000 A 
ATOM     10  C   UNL     1      30.092  27.816  18.565  0.00  0.00    +0.000 A 
ATOM     11  N   UNL     1      28.992  28.345  18.012  0.00  0.00    +0.000 NA
ATOM     12  N   UNL     1      28.207  28.382  19.006  0.00  0.00    +0.000 NA
BRANCH  10  13
ATOM     13  C   UNL     1      31.313  27.537  17.722  0.00  0.00    +0.000 C 
ATOM     14  C   UNL     1      32.399  28.649  17.863  0.00  0.00    +0.000 C 
ATOM     15  C   UNL     1      31.530  28.549  16.652  0.00  0.00    +0.000 C 
ENDBRANCH  10  13
ENDBRANCH   2   8
BRANCH   6  16
ATOM     16  C   UNL     1      28.759  23.936  23.358  0.00  0.00    +0.000 A 
ATOM     17  N   UNL     1      29.916  23.867  22.796  0.00  0.00    +0.000 NA
ATOM     18  O   UNL     1      30.777  23.569  23.759  0.00  0.00    +0.000 OA
ATOM     19  C   UNL     1      30.155  23.459  24.902  0.00  0.00    +0.000 A 
ATOM     20  N   UNL     1      28.823  23.692  24.686  0.00  0.00    +0.000 NA
BRANCH  19  21
ATOM     21  C   UNL     1      30.777  23.140  26.186  0.00  0.00    +0.000 A 
ATOM     22  C   UNL     1      30.582  22.100  27.043  0.00  0.00    +0.000 A 
ATOM     23  C   UNL     1      31.305  22.060  28.150  0.00  0.00    +0.000 A 
ATOM     24  C   UNL     1      32.200  23.052  28.378  0.00  0.00    +0.000 A 
ATOM     25  S   UNL     1      31.984  24.043  26.977  0.00  0.00    +0.000 S 
ENDBRANCH  19  21
ENDBRANCH   6  16
TORSDOF 4
ENDMDL
MODEL 6
REMARK VINA RESULT:      -6.7     18.466     19.936
REMARK  Name = 
REMARK  4 active torsions:
REMARK  status: ('A' for Active; 'I' for Inactive)
REMARK    1  A    between atoms: C_2  and  C_3
REMARK    2  A    between atoms: C_5  and  C_6
REMARK    3  A    between atoms: C_14  and  C_15
REMARK    4  A    between atoms: C_18  and  C_19
REMARK                            x       y       z     vdW  Elec       q    Type
REMARK                         _______ _______ _______ _____ _____    ______ ____
ROOT
ATOM      1  O   UNL     1      26.944  26.888  30.824  0.00  0.00    +0.000 OA
ATOM      2  C   UNL     1      26.279  25.758  30.786  0.00  0.00    +0.000 C 
ATOM      3  N   UNL     1      26.900  24.591  30.386  0.00  0.00    +0.000 N 
ATOM      4  C   UNL     1      28.313  24.538  29.990  0.00  0.00    +0.000 C 
ATOM      5  C   UNL     1      28.654  23.363  30.839  0.00  0.00    +0.000 C 
ATOM      6  C   UNL     1      27.538  22.263  30.256  0.00  0.00    +0.000 C 
ATOM      7  C   UNL     1      26.279  23.316  30.287  0.00  0.00    +0.000 C 
ENDROOT
BRANCH   2   8
ATOM      8  C   UNL     1      24.848  25.992  31.212  0.00  0.00    +0.000 A 
ATOM      9  C   UNL     1      24.359  26.513  29.663  0.00  0.00    +0.000 A 
ATOM     10  C   UNL     1      23.079  26.795  29.743  0.00  0.00    +0.000 A 
ATOM     11  N   UNL     1      22.680  26.567  31.003  0.00  0.00    +0.000 NA
ATOM     12  N   UNL     1      23.759  26.170  31.536  0.00  0.00    +0.000 NA
BRANCH  10  13
ATOM     13  C   UNL     1      22.089  27.254  28.699  0.00  0.00    +0.000 C 
ATOM     14  C   UNL     1      20.897  26.261  28.535  0.00  0.00    +0.000 C 
ATOM     15  C   UNL     1      22.001  26.335  27.531  0.00  0.00    +0.000 C 
ENDBRANCH  10  13
ENDBRANCH   2   8
BRANCH   6  16
ATOM     16  C   UNL     1      27.943  22.491  28.713  0.00  0.00    +0.000 A 
ATOM     17  N   UNL     1      29.122  22.512  28.195  0.00  0.00    +0.000 NA
ATOM     18  O   UNL     1      28.952  22.737  26.900  0.00  0.00    +0.000 OA
ATOM     19  C   UNL     1      27.680  22.850  26.625  0.00  0.00    +0.000 A 
ATOM     20  N   UNL     1      26.978  22.696  27.790  0.00  0.00    +0.000 NA
BRANCH  19  21
ATOM     21  C   UNL     1      27.112  23.101  25.302  0.00  0.00    +0.000 A 
ATOM     22  C   UNL     1      25.834  23.001  24.841  0.00  0.00    +0.000 A 
ATOM     23  C   UNL     1      25.603  23.305  23.575  0.00  0.00    +0.000 A 
ATOM     24  C   UNL     1      26.642  23.697  22.799  0.00  0.00    +0.000 A 
ATOM     25  S   UNL     1      27.959  23.622  23.920  0.00  0.00    +0.000 S 
ENDBRANCH  19  21
ENDBRANCH   6  16
TORSDOF 4
ENDMDL
MODEL 7
REMARK VINA RESULT:      -6.6     19.630     22.642
REMARK  Name = 
REMARK  4 active torsions:
REMARK  status: ('A' for Active; 'I' for Inactive)
REMARK    1  A    between atoms: C_2  and  C_3
REMARK    2  A    between atoms: C_5  and  C_6
REMARK    3  A    between atoms: C_14  and  C_15
REMARK    4  A    between atoms: C_18  and  C_19
REMARK                            x       y       z     vdW  Elec       q    Type
REMARK                         _______ _______ _______ _____ _____    ______ ____
ROOT
ATOM      1  O   UNL     1      28.233  26.938  23.190  0.00  0.00    +0.000 OA
ATOM      2  C   UNL     1      28.120  25.652  22.956  0.00  0.00    +0.000 C 
ATOM      3  N   UNL     1      27.374  24.848  23.794  0.00  0.00    +0.000 N 
ATOM      4  C   UNL     1      26.670  25.367  24.974  0.00  0.00    +0.000 C 
ATOM      5  C   UNL     1      25.372  24.705  24.667  0.00  0.00    +0.000 C 
ATOM      6  C   UNL     1      25.882  23.115  24.578  0.00  0.00    +0.000 C 
ATOM      7  C   UNL     1      27.196  23.444  23.651  0.00  0.00    +0.000 C 
ENDROOT
BRANCH   2   8
ATOM      8  C   UNL     1      28.907  25.288  21.718  0.00  0.00    +0.000 A 
ATOM      9  C   UNL     1      28.895  26.882  21.111  0.00  0.00    +0.000 A 
ATOM     10  C   UNL     1      29.554  26.862  19.975  0.00  0.00    +0.000 A 
ATOM     11  N   UNL     1      29.960  25.604  19.752  0.00  0.00    +0.000 NA
ATOM     12  N   UNL     1      29.507  25.011  20.776  0.00  0.00    +0.000 NA
BRANCH  10  13
ATOM     13  C   UNL     1      29.914  27.964  19.008  0.00  0.00    +0.000 C 
ATOM     14  C   UNL     1      29.857  27.492  17.522  0.00  0.00    +0.000 C 
ATOM     15  C   UNL     1      31.155  27.684  18.236  0.00  0.00    +0.000 C 
ENDBRANCH  10  13
ENDBRANCH   2   8
BRANCH   6  16
ATOM     16  C   UNL     1      26.635  23.153  26.002  0.00  0.00    +0.000 A 
ATOM     17  N   UNL     1      26.166  23.535  27.140  0.00  0.00    +0.000 NA
ATOM     18  O   UNL     1      27.153  23.392  28.012  0.00  0.00    +0.000 OA
ATOM     19  C   UNL     1      28.217  22.924  27.417  0.00  0.00    +0.000 A 
ATOM     20  N   UNL     1      27.922  22.752  26.092  0.00  0.00    +0.000 NA
BRANCH  19  21
ATOM     21  C   UNL     1      29.498  22.638  28.059  0.00  0.00    +0.000 A 
ATOM     22  C   UNL     1      30.664  22.144  27.556  0.00  0.00    +0.000 A 
ATOM     23  C   UNL     1      31.685  21.993  28.382  0.00  0.00    +0.000 A 
ATOM     24  C   UNL     1      31.526  22.334  29.684  0.00  0.00    +0.000 A 
ATOM     25  S   UNL     1      29.882  22.874  29.701  0.00  0.00    +0.000 S 
ENDBRANCH  19  21
ENDBRANCH   6  16
TORSDOF 4
ENDMDL
MODEL 8
REMARK VINA RESULT:      -6.6     19.890     21.932
REMARK  Name = 
REMARK  4 active torsions:
REMARK  status: ('A' for Active; 'I' for Inactive)
REMARK    1  A    between atoms: C_2  and  C_3
REMARK    2  A    between atoms: C_5  and  C_6
REMARK    3  A    between atoms: C_14  and  C_15
REMARK    4  A    between atoms: C_18  and  C_19
REMARK                            x       y       z     vdW  Elec       q    Type
REMARK                         _______ _______ _______ _____ _____    ______ ____
ROOT
ATOM      1  O   UNL     1      25.725  23.738  28.210  0.00  0.00    +0.000 OA
ATOM      2  C   UNL     1      25.788  24.699  27.318  0.00  0.00    +0.000 C 
ATOM      3  N   UNL     1      26.178  24.429  26.021  0.00  0.00    +0.000 N 
ATOM      4  C   UNL     1      26.536  23.081  25.564  0.00  0.00    +0.000 C 
ATOM      5  C   UNL     1      25.686  23.115  24.342  0.00  0.00    +0.000 C 
ATOM      6  C   UNL     1      26.305  24.485  23.608  0.00  0.00    +0.000 C 
ATOM      7  C   UNL     1      26.300  25.388  24.979  0.00  0.00    +0.000 C 
ENDROOT
BRANCH   2   8
ATOM      8  C   UNL     1      25.398  26.013  27.955  0.00  0.00    +0.000 A 
ATOM      9  C   UNL     1      23.751  25.847  27.542  0.00  0.00    +0.000 A 
ATOM     10  C   UNL     1      23.134  26.910  28.005  0.00  0.00    +0.000 A 
ATOM     11  N   UNL     1      24.043  27.692  28.604  0.00  0.00    +0.000 NA
ATOM     12  N   UNL     1      25.101  27.013  28.440  0.00  0.00    +0.000 NA
BRANCH  10  13
ATOM     13  C   UNL     1      21.677  27.305  27.989  0.00  0.00    +0.000 C 
ATOM     14  C   UNL     1      20.885  26.699  29.190  0.00  0.00    +0.000 C 
ATOM     15  C   UNL     1      20.758  26.148  27.807  0.00  0.00    +0.000 C 
ENDBRANCH  10  13
ENDBRANCH   2   8
BRANCH   6  16
ATOM     16  C   UNL     1      27.834  23.989  23.707  0.00  0.00    +0.000 A 
ATOM     17  N   UNL     1      28.322  22.841  23.385  0.00  0.00    +0.000 NA
ATOM     18  O   UNL     1      29.619  22.904  23.647  0.00  0.00    +0.000 OA
ATOM     19  C   UNL     1      29.927  24.081  24.124  0.00  0.00    +0.000 A 
ATOM     20  N   UNL     1      28.781  24.828  24.182  0.00  0.00    +0.000 NA
BRANCH  19  21
ATOM     21  C   UNL     1      31.262  24.517  24.526  0.00  0.00    +0.000 A 
ATOM     22  C   UNL     1      32.446  23.845  24.583  0.00  0.00    +0.000 A 
ATOM     23  C   UNL     1      33.519  24.506  24.985  0.00  0.00    +0.000 A 
ATOM     24  C   UNL     1      33.391  25.812  25.320  0.00  0.00    +0.000 A 
ATOM     25  S   UNL     1      31.702  26.076  25.050  0.00  0.00    +0.000 S 
ENDBRANCH  19  21
ENDBRANCH   6  16
TORSDOF 4
ENDMDL
MODEL 9
REMARK VINA RESULT:      -6.5     20.470     23.749
REMARK  Name = 
REMARK  4 active torsions:
REMARK  status: ('A' for Active; 'I' for Inactive)
REMARK    1  A    between atoms: C_2  and  C_3
REMARK    2  A    between atoms: C_5  and  C_6
REMARK    3  A    between atoms: C_14  and  C_15
REMARK    4  A    between atoms: C_18  and  C_19
REMARK                            x       y       z     vdW  Elec       q    Type
REMARK                         _______ _______ _______ _____ _____    ______ ____
ROOT
ATOM      1  O   UNL     1      31.058  25.390  28.074  0.00  0.00    +0.000 OA
ATOM      2  C   UNL     1      30.521  24.222  27.808  0.00  0.00    +0.000 C 
ATOM      3  N   UNL     1      30.428  23.771  26.506  0.00  0.00    +0.000 N 
ATOM      4  C   UNL     1      30.916  24.548  25.360  0.00  0.00    +0.000 C 
ATOM      5  C   UNL     1      31.672  23.426  24.740  0.00  0.00    +0.000 C 
ATOM      6  C   UNL     1      30.438  22.309  24.582  0.00  0.00    +0.000 C 
ATOM      7  C   UNL     1      29.853  22.537  26.098  0.00  0.00    +0.000 C 
ENDROOT
BRANCH   2   8
ATOM      8  C   UNL     1      30.068  23.565  29.092  0.00  0.00    +0.000 A 
ATOM      9  C   UNL     1      31.542  22.735  29.312  0.00  0.00    +0.000 A 
ATOM     10  C   UNL     1      31.428  22.044  30.423  0.00  0.00    +0.000 A 
ATOM     11  N   UNL     1      30.205  22.266  30.927  0.00  0.00    +0.000 NA
ATOM     12  N   UNL     1      29.724  23.065  30.069  0.00  0.00    +0.000 NA
BRANCH  10  13
ATOM     13  C   UNL     1      32.407  21.160  31.156  0.00  0.00    +0.000 C 
ATOM     14  C   UNL     1      33.339  21.969  32.110  0.00  0.00    +0.000 C 
ATOM     15  C   UNL     1      33.827  21.438  30.802  0.00  0.00    +0.000 C 
ENDBRANCH  10  13
ENDBRANCH   2   8
BRANCH   6  16
ATOM     16  C   UNL     1      29.446  23.335  23.834  0.00  0.00    +0.000 A 
ATOM     17  N   UNL     1      28.173  23.462  23.983  0.00  0.00    +0.000 NA
ATOM     18  O   UNL     1      27.799  24.428  23.155  0.00  0.00    +0.000 OA
ATOM     19  C   UNL     1      28.834  24.892  22.507  0.00  0.00    +0.000 A 
ATOM     20  N   UNL     1      29.940  24.200  22.921  0.00  0.00    +0.000 NA
BRANCH  19  21
ATOM     21  C   UNL     1      28.808  25.960  21.511  0.00  0.00    +0.000 A 
ATOM     22  C   UNL     1      29.645  26.241  20.473  0.00  0.00    +0.000 A 
ATOM     23  C   UNL     1      29.368  27.287  19.714  0.00  0.00    +0.000 A 
ATOM     24  C   UNL     1      28.272  28.029  20.003  0.00  0.00    +0.000 A 
ATOM     25  S   UNL     1      27.645  27.198  21.385  0.00  0.00    +0.000 S 
ENDBRANCH  19  21
ENDBRANCH   6  16
TORSDOF 4
ENDMDL
MODEL 10
REMARK VINA RESULT:      -6.5     20.669     21.596
REMARK  Name = 
REMARK  4 active torsions:
REMARK  status: ('A' for Active; 'I' for Inactive)
REMARK    1  A    between atoms: C_2  and  C_3
REMARK    2  A    between atoms: C_5  and  C_6
REMARK    3  A    between atoms: C_14  and  C_15
REMARK    4  A    between atoms: C_18  and  C_19
REMARK                            x       y       z     vdW  Elec       q    Type
REMARK                         _______ _______ _______ _____ _____    ______ ____
ROOT
ATOM      1  O   UNL     1      15.880 -10.401  24.200  0.00  0.00    +0.000 OA
ATOM      2  C   UNL     1      15.867  -9.265  24.857  0.00  0.00    +0.000 C 
ATOM      3  N   UNL     1      16.992  -8.830  25.530  0.00  0.00    +0.000 N 
ATOM      4  C   UNL     1      18.249  -9.589  25.552  0.00  0.00    +0.000 C 
ATOM      5  C   UNL     1      19.118  -8.433  25.198  0.00  0.00    +0.000 C 
ATOM      6  C   UNL     1      18.706  -7.383  26.432  0.00  0.00    +0.000 C 
ATOM      7  C   UNL     1      17.089  -7.630  26.287  0.00  0.00    +0.000 C 
ENDROOT
BRANCH   2   8
ATOM      8  C   UNL     1      14.504  -8.623  24.739  0.00  0.00    +0.000 A 
ATOM      9  C   UNL     1      13.935  -9.312  26.191  0.00  0.00    +0.000 A 
ATOM     10  C   UNL     1      12.701  -8.894  26.353  0.00  0.00    +0.000 A 
ATOM     11  N   UNL     1      12.389  -8.106  25.314  0.00  0.00    +0.000 NA
ATOM     12  N   UNL     1      13.468  -8.134  24.649  0.00  0.00    +0.000 NA
BRANCH  10  13
ATOM     13  C   UNL     1      11.704  -9.125  27.463  0.00  0.00    +0.000 C 
ATOM     14  C   UNL     1      10.919 -10.463  27.286  0.00  0.00    +0.000 C 
ATOM     15  C   UNL     1      10.292  -9.139  26.989  0.00  0.00    +0.000 C 
ENDBRANCH  10  13
ENDBRANCH   2   8
BRANCH   6  16
ATOM     16  C   UNL     1      18.963  -8.466  27.597  0.00  0.00    +0.000 A 
ATOM     17  N   UNL     1      19.980  -9.242  27.752  0.00  0.00    +0.000 NA
ATOM     18  O   UNL     1      19.738  -9.953  28.844  0.00  0.00    +0.000 OA
ATOM     19  C   UNL     1      18.585  -9.615  29.357  0.00  0.00    +0.000 A 
ATOM     20  N   UNL     1      18.039  -8.639  28.568  0.00  0.00    +0.000 NA
BRANCH  19  21
ATOM     21  C   UNL     1      17.987 -10.185  30.562  0.00  0.00    +0.000 A 
ATOM     22  C   UNL     1      16.687 -10.289  30.956  0.00  0.00    +0.000 A 
ATOM     23  C   UNL     1      16.431 -10.871  32.115  0.00  0.00    +0.000 A 
ATOM     24  C   UNL     1      17.468 -11.334  32.854  0.00  0.00    +0.000 A 
ATOM     25  S   UNL     1      18.818 -10.918  31.855  0.00  0.00    +0.000 S 
ENDBRANCH  19  21
ENDBRANCH   6  16
TORSDOF 4
ENDMDL
