MODEL 1
REMARK VINA RESULT:      -7.9      0.000      0.000
REMARK  Name = 
REMARK  7 active torsions:
REMARK  status: ('A' for Active; 'I' for Inactive)
REMARK    1  A    between atoms: C_9  and  O_10
REMARK    2  A    between atoms: O_10  and  C_11
REMARK    3  A    between atoms: C_11  and  C_13
REMARK    4  A    between atoms: C_13  and  C_15
REMARK    5  A    between atoms: C_13  and  C_21
REMARK    6  A    between atoms: C_27  and  C_28
REMARK    7  A    between atoms: C_28  and  N_29
REMARK                            x       y       z     vdW  Elec       q    Type
REMARK                         _______ _______ _______ _____ _____    ______ ____
ROOT
ATOM      1  O   UNL     1      38.450  -1.503  15.423  0.00  0.00    +0.000 OA
ENDROOT
BRANCH   1  10
ATOM      2  C   UNL     1      38.798  -2.165  12.778  0.00  0.00    +0.000 C 
ATOM      3  C   UNL     1      40.251  -2.050  13.184  0.00  0.00    +0.000 C 
ATOM      4  C   UNL     1      41.197  -2.780  12.329  0.00  0.00    +0.000 C 
ATOM      5  C   UNL     1      40.670  -0.491  12.920  0.00  0.00    +0.000 C 
ATOM      6  C   UNL     1      41.813  -0.376  14.079  0.00  0.00    +0.000 C 
ATOM      7  C   UNL     1      41.976  -1.746  14.578  0.00  0.00    +0.000 C 
ATOM      8  C   UNL     1      40.503  -2.121  14.540  0.00  0.00    +0.000 C 
ATOM      9  C   UNL     1      40.274  -3.282  15.391  0.00  0.00    +0.000 C 
ATOM     10  C   UNL     1      39.842  -0.811  15.268  0.00  0.00    +0.000 C 
ATOM     11  C   UNL     1      39.336  -0.036  13.842  0.00  0.00    +0.000 C 
BRANCH  11  12
ATOM     12  C   UNL     1      39.958   1.379  14.251  0.00  0.00    +0.000 C 
BRANCH  12  13
ATOM     13  N   UNL     1      38.791   2.268  14.117  0.00  0.00    +0.000 NA
ATOM     14  C   UNL     1      38.970   3.327  15.114  0.00  0.00    +0.000 C 
ATOM     15  C   UNL     1      38.166   4.509  14.578  0.00  0.00    +0.000 C 
ATOM     16  C   UNL     1      38.017   4.220  13.121  0.00  0.00    +0.000 C 
ATOM     17  C   UNL     1      38.893   3.000  12.871  0.00  0.00    +0.000 C 
ENDBRANCH  12  13
ENDBRANCH  11  12
ENDBRANCH   1  10
BRANCH   1  18
ATOM     18  C   UNL     1      37.887  -1.429  16.661  0.00  0.00    +0.000 C 
ATOM     19  O   UNL     1      38.600  -1.431  17.669  0.00  0.00    +0.000 OA
BRANCH  18  20
ATOM     20  C   UNL     1      36.409  -1.346  16.763  0.00  0.00    +0.000 C 
ATOM     21  O   UNL     1      35.994  -1.341  18.105  0.00  0.00    +0.000 OA
BRANCH  20  22
ATOM     22  C   UNL     1      35.948  -0.078  16.137  0.00  0.00    +0.000 A 
ATOM     23  C   UNL     1      35.386   0.866  16.971  0.00  0.00    +0.000 A 
ATOM     24  C   UNL     1      34.938   2.060  16.460  0.00  0.00    +0.000 A 
ATOM     25  C   UNL     1      35.035   2.356  15.109  0.00  0.00    +0.000 A 
ATOM     26  C   UNL     1      35.605   1.392  14.277  0.00  0.00    +0.000 A 
ATOM     27  C   UNL     1      36.060   0.180  14.787  0.00  0.00    +0.000 A 
ENDBRANCH  20  22
BRANCH  20  28
ATOM     28  C   UNL     1      35.783  -2.478  16.075  0.00  0.00    +0.000 A 
ATOM     29  C   UNL     1      34.430  -2.689  16.167  0.00  0.00    +0.000 A 
ATOM     30  C   UNL     1      33.884  -3.772  15.493  0.00  0.00    +0.000 A 
ATOM     31  C   UNL     1      34.678  -4.601  14.760  0.00  0.00    +0.000 A 
ATOM     32  C   UNL     1      36.048  -4.393  14.662  0.00  0.00    +0.000 A 
ATOM     33  C   UNL     1      36.570  -3.317  15.336  0.00  0.00    +0.000 A 
ENDBRANCH  20  28
ENDBRANCH  18  20
ENDBRANCH   1  18
TORSDOF 7
ENDMDL
MODEL 2
REMARK VINA RESULT:      -7.6      2.277      4.516
REMARK  Name = 
REMARK  7 active torsions:
REMARK  status: ('A' for Active; 'I' for Inactive)
REMARK    1  A    between atoms: C_9  and  O_10
REMARK    2  A    between atoms: O_10  and  C_11
REMARK    3  A    between atoms: C_11  and  C_13
REMARK    4  A    between atoms: C_13  and  C_15
REMARK    5  A    between atoms: C_13  and  C_21
REMARK    6  A    between atoms: C_27  and  C_28
REMARK    7  A    between atoms: C_28  and  N_29
REMARK                            x       y       z     vdW  Elec       q    Type
REMARK                         _______ _______ _______ _____ _____    ______ ____
ROOT
ATOM      1  O   UNL     1      38.471   0.374  13.733  0.00  0.00    +0.000 OA
ENDROOT
BRANCH   1  10
ATOM      2  C   UNL     1      41.112  -0.156  14.281  0.00  0.00    +0.000 C 
ATOM      3  C   UNL     1      40.929  -1.079  13.096  0.00  0.00    +0.000 C 
ATOM      4  C   UNL     1      42.166  -1.443  12.392  0.00  0.00    +0.000 C 
ATOM      5  C   UNL     1      40.441  -2.513  13.714  0.00  0.00    +0.000 C 
ATOM      6  C   UNL     1      39.568  -3.014  12.431  0.00  0.00    +0.000 C 
ATOM      7  C   UNL     1      39.849  -2.029  11.380  0.00  0.00    +0.000 C 
ATOM      8  C   UNL     1      39.845  -0.806  12.285  0.00  0.00    +0.000 C 
ATOM      9  C   UNL     1      39.662   0.395  11.480  0.00  0.00    +0.000 C 
ATOM     10  C   UNL     1      38.471  -1.070  13.137  0.00  0.00    +0.000 C 
ATOM     11  C   UNL     1      39.225  -1.682  14.531  0.00  0.00    +0.000 C 
BRANCH  11  12
ATOM     12  C   UNL     1      38.266  -2.958  14.633  0.00  0.00    +0.000 C 
BRANCH  12  13
ATOM     13  N   UNL     1      37.862  -2.914  16.049  0.00  0.00    +0.000 NA
ATOM     14  C   UNL     1      38.398  -4.133  16.663  0.00  0.00    +0.000 C 
ATOM     15  C   UNL     1      38.532  -3.797  18.146  0.00  0.00    +0.000 C 
ATOM     16  C   UNL     1      38.550  -2.305  18.184  0.00  0.00    +0.000 C 
ATOM     17  C   UNL     1      38.612  -1.876  16.724  0.00  0.00    +0.000 C 
ENDBRANCH  12  13
ENDBRANCH  11  12
ENDBRANCH   1  10
BRANCH   1  18
ATOM     18  C   UNL     1      37.245   0.935  13.931  0.00  0.00    +0.000 C 
ATOM     19  O   UNL     1      36.362   0.813  13.077  0.00  0.00    +0.000 OA
BRANCH  18  20
ATOM     20  C   UNL     1      37.003   1.685  15.187  0.00  0.00    +0.000 C 
ATOM     21  O   UNL     1      38.209   2.139  15.746  0.00  0.00    +0.000 OA
BRANCH  20  22
ATOM     22  C   UNL     1      36.160   2.874  14.890  0.00  0.00    +0.000 A 
ATOM     23  C   UNL     1      36.771   3.933  14.253  0.00  0.00    +0.000 A 
ATOM     24  C   UNL     1      36.053   5.063  13.949  0.00  0.00    +0.000 A 
ATOM     25  C   UNL     1      34.707   5.178  14.264  0.00  0.00    +0.000 A 
ATOM     26  C   UNL     1      34.103   4.099  14.908  0.00  0.00    +0.000 A 
ATOM     27  C   UNL     1      34.824   2.952  15.221  0.00  0.00    +0.000 A 
ENDBRANCH  20  22
BRANCH  20  28
ATOM     28  C   UNL     1      36.314   0.838  16.165  0.00  0.00    +0.000 A 
ATOM     29  C   UNL     1      35.568  -0.238  15.753  0.00  0.00    +0.000 A 
ATOM     30  C   UNL     1      34.939  -1.012  16.717  0.00  0.00    +0.000 A 
ATOM     31  C   UNL     1      35.064  -0.706  18.039  0.00  0.00    +0.000 A 
ATOM     32  C   UNL     1      35.818   0.381  18.463  0.00  0.00    +0.000 A 
ATOM     33  C   UNL     1      36.433   1.135  17.494  0.00  0.00    +0.000 A 
ENDBRANCH  20  28
ENDBRANCH  18  20
ENDBRANCH   1  18
TORSDOF 7
ENDMDL
MODEL 3
REMARK VINA RESULT:      -7.5      1.796      5.399
REMARK  Name = 
REMARK  7 active torsions:
REMARK  status: ('A' for Active; 'I' for Inactive)
REMARK    1  A    between atoms: C_9  and  O_10
REMARK    2  A    between atoms: O_10  and  C_11
REMARK    3  A    between atoms: C_11  and  C_13
REMARK    4  A    between atoms: C_13  and  C_15
REMARK    5  A    between atoms: C_13  and  C_21
REMARK    6  A    between atoms: C_27  and  C_28
REMARK    7  A    between atoms: C_28  and  N_29
REMARK                            x       y       z     vdW  Elec       q    Type
REMARK                         _______ _______ _______ _____ _____    ______ ____
ROOT
ATOM      1  O   UNL     1      37.590  -0.922  14.491  0.00  0.00    +0.000 OA
ENDROOT
BRANCH   1  10
ATOM      2  C   UNL     1      38.535  -2.248  16.706  0.00  0.00    +0.000 C 
ATOM      3  C   UNL     1      37.433  -3.207  16.311  0.00  0.00    +0.000 C 
ATOM      4  C   UNL     1      37.593  -4.581  16.807  0.00  0.00    +0.000 C 
ATOM      5  C   UNL     1      36.092  -2.702  17.100  0.00  0.00    +0.000 C 
ATOM      6  C   UNL     1      34.993  -3.227  16.016  0.00  0.00    +0.000 C 
ATOM      7  C   UNL     1      35.768  -4.016  15.051  0.00  0.00    +0.000 C 
ATOM      8  C   UNL     1      36.979  -3.098  15.011  0.00  0.00    +0.000 C 
ATOM      9  C   UNL     1      37.758  -3.371  13.809  0.00  0.00    +0.000 C 
ATOM     10  C   UNL     1      36.246  -1.644  14.830  0.00  0.00    +0.000 C 
ATOM     11  C   UNL     1      36.361  -1.169  16.457  0.00  0.00    +0.000 C 
BRANCH  11  12
ATOM     12  C   UNL     1      34.826  -0.732  16.561  0.00  0.00    +0.000 C 
BRANCH  12  13
ATOM     13  N   UNL     1      34.942   0.656  17.039  0.00  0.00    +0.000 NA
ATOM     14  C   UNL     1      36.312   0.800  17.541  0.00  0.00    +0.000 C 
ATOM     15  C   UNL     1      36.611   2.293  17.440  0.00  0.00    +0.000 C 
ATOM     16  C   UNL     1      35.619   2.799  16.445  0.00  0.00    +0.000 C 
ATOM     17  C   UNL     1      34.939   1.551  15.900  0.00  0.00    +0.000 C 
ENDBRANCH  12  13
ENDBRANCH  11  12
ENDBRANCH   1  10
BRANCH   1  18
ATOM     18  C   UNL     1      37.544  -0.041  13.453  0.00  0.00    +0.000 C 
ATOM     19  O   UNL     1      36.460   0.394  13.055  0.00  0.00    +0.000 OA
BRANCH  18  20
ATOM     20  C   UNL     1      38.820   0.377  12.822  0.00  0.00    +0.000 C 
ATOM     21  O   UNL     1      38.684   0.488  11.429  0.00  0.00    +0.000 OA
BRANCH  20  22
ATOM     22  C   UNL     1      39.211   1.711  13.352  0.00  0.00    +0.000 A 
ATOM     23  C   UNL     1      40.058   2.472  12.572  0.00  0.00    +0.000 A 
ATOM     24  C   UNL     1      40.460   3.714  12.999  0.00  0.00    +0.000 A 
ATOM     25  C   UNL     1      40.035   4.241  14.209  0.00  0.00    +0.000 A 
ATOM     26  C   UNL     1      39.181   3.460  14.987  0.00  0.00    +0.000 A 
ATOM     27  C   UNL     1      38.769   2.201  14.562  0.00  0.00    +0.000 A 
ENDBRANCH  20  22
BRANCH  20  28
ATOM     28  C   UNL     1      39.881  -0.589  13.122  0.00  0.00    +0.000 A 
ATOM     29  C   UNL     1      40.553  -0.539  14.318  0.00  0.00    +0.000 A 
ATOM     30  C   UNL     1      41.545  -1.479  14.556  0.00  0.00    +0.000 A 
ATOM     31  C   UNL     1      41.838  -2.426  13.622  0.00  0.00    +0.000 A 
ATOM     32  C   UNL     1      41.162  -2.483  12.410  0.00  0.00    +0.000 A 
ATOM     33  C   UNL     1      40.184  -1.545  12.193  0.00  0.00    +0.000 A 
ENDBRANCH  20  28
ENDBRANCH  18  20
ENDBRANCH   1  18
TORSDOF 7
ENDMDL
MODEL 4
REMARK VINA RESULT:      -7.4      2.772      6.527
REMARK  Name = 
REMARK  7 active torsions:
REMARK  status: ('A' for Active; 'I' for Inactive)
REMARK    1  A    between atoms: C_9  and  O_10
REMARK    2  A    between atoms: O_10  and  C_11
REMARK    3  A    between atoms: C_11  and  C_13
REMARK    4  A    between atoms: C_13  and  C_15
REMARK    5  A    between atoms: C_13  and  C_21
REMARK    6  A    between atoms: C_27  and  C_28
REMARK    7  A    between atoms: C_28  and  N_29
REMARK                            x       y       z     vdW  Elec       q    Type
REMARK                         _______ _______ _______ _____ _____    ______ ____
ROOT
ATOM      1  O   UNL     1      38.916   1.916  14.895  0.00  0.00    +0.000 OA
ENDROOT
BRANCH   1  10
ATOM      2  C   UNL     1      40.987   0.296  14.090  0.00  0.00    +0.000 C 
ATOM      3  C   UNL     1      39.889  -0.277  13.222  0.00  0.00    +0.000 C 
ATOM      4  C   UNL     1      40.350  -0.989  12.021  0.00  0.00    +0.000 C 
ATOM      5  C   UNL     1      39.201  -1.475  14.098  0.00  0.00    +0.000 C 
ATOM      6  C   UNL     1      37.704  -1.378  13.458  0.00  0.00    +0.000 C 
ATOM      7  C   UNL     1      37.835  -0.434  12.342  0.00  0.00    +0.000 C 
ATOM      8  C   UNL     1      38.782   0.529  13.041  0.00  0.00    +0.000 C 
ATOM      9  C   UNL     1      38.766   1.815  12.354  0.00  0.00    +0.000 C 
ATOM     10  C   UNL     1      38.020   0.706  14.481  0.00  0.00    +0.000 C 
ATOM     11  C   UNL     1      39.007  -0.369  15.352  0.00  0.00    +0.000 C 
BRANCH  11  12
ATOM     12  C   UNL     1      37.777  -1.154  16.006  0.00  0.00    +0.000 C 
BRANCH  12  13
ATOM     13  N   UNL     1      38.252  -1.357  17.386  0.00  0.00    +0.000 NA
ATOM     14  C   UNL     1      37.070  -1.244  18.245  0.00  0.00    +0.000 C 
ATOM     15  C   UNL     1      37.421  -2.037  19.500  0.00  0.00    +0.000 C 
ATOM     16  C   UNL     1      38.529  -2.938  19.067  0.00  0.00    +0.000 C 
ATOM     17  C   UNL     1      38.625  -2.745  17.559  0.00  0.00    +0.000 C 
ENDBRANCH  12  13
ENDBRANCH  11  12
ENDBRANCH   1  10
BRANCH   1  18
ATOM     18  C   UNL     1      38.270   2.955  15.493  0.00  0.00    +0.000 C 
ATOM     19  O   UNL     1      37.323   2.741  16.255  0.00  0.00    +0.000 OA
BRANCH  18  20
ATOM     20  C   UNL     1      38.732   4.335  15.208  0.00  0.00    +0.000 C 
ATOM     21  O   UNL     1      39.746   4.339  14.237  0.00  0.00    +0.000 OA
BRANCH  20  22
ATOM     22  C   UNL     1      37.592   5.133  14.683  0.00  0.00    +0.000 A 
ATOM     23  C   UNL     1      36.776   4.524  13.753  0.00  0.00    +0.000 A 
ATOM     24  C   UNL     1      35.704   5.202  13.225  0.00  0.00    +0.000 A 
ATOM     25  C   UNL     1      35.407   6.502  13.604  0.00  0.00    +0.000 A 
ATOM     26  C   UNL     1      36.241   7.105  14.545  0.00  0.00    +0.000 A 
ATOM     27  C   UNL     1      37.328   6.426  15.083  0.00  0.00    +0.000 A 
ENDBRANCH  20  22
BRANCH  20  28
ATOM     28  C   UNL     1      39.240   4.968  16.429  0.00  0.00    +0.000 A 
ATOM     29  C   UNL     1      38.582   4.808  17.624  0.00  0.00    +0.000 A 
ATOM     30  C   UNL     1      39.105   5.423  18.752  0.00  0.00    +0.000 A 
ATOM     31  C   UNL     1      40.244   6.165  18.669  0.00  0.00    +0.000 A 
ATOM     32  C   UNL     1      40.916   6.330  17.464  0.00  0.00    +0.000 A 
ATOM     33  C   UNL     1      40.383   5.714  16.359  0.00  0.00    +0.000 A 
ENDBRANCH  20  28
ENDBRANCH  18  20
ENDBRANCH   1  18
TORSDOF 7
ENDMDL
MODEL 5
REMARK VINA RESULT:      -7.3      1.512      3.714
REMARK  Name = 
REMARK  7 active torsions:
REMARK  status: ('A' for Active; 'I' for Inactive)
REMARK    1  A    between atoms: C_9  and  O_10
REMARK    2  A    between atoms: O_10  and  C_11
REMARK    3  A    between atoms: C_11  and  C_13
REMARK    4  A    between atoms: C_13  and  C_15
REMARK    5  A    between atoms: C_13  and  C_21
REMARK    6  A    between atoms: C_27  and  C_28
REMARK    7  A    between atoms: C_28  and  N_29
REMARK                            x       y       z     vdW  Elec       q    Type
REMARK                         _______ _______ _______ _____ _____    ______ ____
ROOT
ATOM      1  O   UNL     1      39.228  -1.240  14.322  0.00  0.00    +0.000 OA
ENDROOT
BRANCH   1  10
ATOM      2  C   UNL     1      40.146  -2.454  12.033  0.00  0.00    +0.000 C 
ATOM      3  C   UNL     1      41.474  -2.198  12.711  0.00  0.00    +0.000 C 
ATOM      4  C   UNL     1      42.578  -3.062  12.269  0.00  0.00    +0.000 C 
ATOM      5  C   UNL     1      41.960  -0.720  12.205  0.00  0.00    +0.000 C 
ATOM      6  C   UNL     1      42.818  -0.310  13.530  0.00  0.00    +0.000 C 
ATOM      7  C   UNL     1      42.851  -1.529  14.346  0.00  0.00    +0.000 C 
ATOM      8  C   UNL     1      41.418  -1.959  14.070  0.00  0.00    +0.000 C 
ATOM      9  C   UNL     1      40.992  -2.912  15.088  0.00  0.00    +0.000 C 
ATOM     10  C   UNL     1      40.628  -0.547  14.325  0.00  0.00    +0.000 C 
ATOM     11  C   UNL     1      40.461  -0.125  12.687  0.00  0.00    +0.000 C 
BRANCH  11  12
ATOM     12  C   UNL     1      40.994   1.369  12.895  0.00  0.00    +0.000 C 
BRANCH  12  13
ATOM     13  N   UNL     1      40.261   2.096  11.845  0.00  0.00    +0.000 NA
ATOM     14  C   UNL     1      38.961   1.430  11.719  0.00  0.00    +0.000 C 
ATOM     15  C   UNL     1      38.029   2.494  11.146  0.00  0.00    +0.000 C 
ATOM     16  C   UNL     1      38.710   3.785  11.458  0.00  0.00    +0.000 C 
ATOM     17  C   UNL     1      39.887   3.403  12.346  0.00  0.00    +0.000 C 
ENDBRANCH  12  13
ENDBRANCH  11  12
ENDBRANCH   1  10
BRANCH   1  18
ATOM     18  C   UNL     1      38.335  -0.776  15.240  0.00  0.00    +0.000 C 
ATOM     19  O   UNL     1      38.627  -0.766  16.440  0.00  0.00    +0.000 OA
BRANCH  18  20
ATOM     20  C   UNL     1      37.018  -0.287  14.764  0.00  0.00    +0.000 C 
ATOM     21  O   UNL     1      36.747  -0.748  13.465  0.00  0.00    +0.000 OA
BRANCH  20  22
ATOM     22  C   UNL     1      35.952  -0.803  15.665  0.00  0.00    +0.000 A 
ATOM     23  C   UNL     1      35.591  -2.125  15.516  0.00  0.00    +0.000 A 
ATOM     24  C   UNL     1      34.613  -2.668  16.314  0.00  0.00    +0.000 A 
ATOM     25  C   UNL     1      33.965  -1.918  17.284  0.00  0.00    +0.000 A 
ATOM     26  C   UNL     1      34.341  -0.582  17.422  0.00  0.00    +0.000 A 
ATOM     27  C   UNL     1      35.329  -0.026  16.618  0.00  0.00    +0.000 A 
ENDBRANCH  20  22
BRANCH  20  28
ATOM     28  C   UNL     1      36.984   1.178  14.768  0.00  0.00    +0.000 A 
ATOM     29  C   UNL     1      38.018   1.899  15.311  0.00  0.00    +0.000 A 
ATOM     30  C   UNL     1      37.941   3.284  15.285  0.00  0.00    +0.000 A 
ATOM     31  C   UNL     1      36.863   3.906  14.732  0.00  0.00    +0.000 A 
ATOM     32  C   UNL     1      35.813   3.183  14.180  0.00  0.00    +0.000 A 
ATOM     33  C   UNL     1      35.908   1.814  14.215  0.00  0.00    +0.000 A 
ENDBRANCH  20  28
ENDBRANCH  18  20
ENDBRANCH   1  18
TORSDOF 7
ENDMDL
MODEL 6
REMARK VINA RESULT:      -7.3      1.680      3.750
REMARK  Name = 
REMARK  7 active torsions:
REMARK  status: ('A' for Active; 'I' for Inactive)
REMARK    1  A    between atoms: C_9  and  O_10
REMARK    2  A    between atoms: O_10  and  C_11
REMARK    3  A    between atoms: C_11  and  C_13
REMARK    4  A    between atoms: C_13  and  C_15
REMARK    5  A    between atoms: C_13  and  C_21
REMARK    6  A    between atoms: C_27  and  C_28
REMARK    7  A    between atoms: C_28  and  N_29
REMARK                            x       y       z     vdW  Elec       q    Type
REMARK                         _______ _______ _______ _____ _____    ______ ____
ROOT
ATOM      1  O   UNL     1      38.791  -2.320  14.367  0.00  0.00    +0.000 OA
ENDROOT
BRANCH   1  10
ATOM      2  C   UNL     1      39.282  -1.509  11.787  0.00  0.00    +0.000 C 
ATOM      3  C   UNL     1      40.469  -0.862  12.466  0.00  0.00    +0.000 C 
ATOM      4  C   UNL     1      41.607  -0.565  11.585  0.00  0.00    +0.000 C 
ATOM      5  C   UNL     1      39.973   0.631  12.915  0.00  0.00    +0.000 C 
ATOM      6  C   UNL     1      40.943   0.799  14.216  0.00  0.00    +0.000 C 
ATOM      7  C   UNL     1      41.843  -0.359  14.161  0.00  0.00    +0.000 C 
ATOM      8  C   UNL     1      40.800  -1.368  13.708  0.00  0.00    +0.000 C 
ATOM      9  C   UNL     1      41.277  -2.718  13.980  0.00  0.00    +0.000 C 
ATOM     10  C   UNL     1      39.585  -1.031  14.755  0.00  0.00    +0.000 C 
ATOM     11  C   UNL     1      38.660  -0.097  13.678  0.00  0.00    +0.000 C 
BRANCH  11  12
ATOM     12  C   UNL     1      38.451   1.104  14.714  0.00  0.00    +0.000 C 
BRANCH  12  13
ATOM     13  N   UNL     1      36.986   1.112  14.869  0.00  0.00    +0.000 NA
ATOM     14  C   UNL     1      36.720   1.710  16.181  0.00  0.00    +0.000 C 
ATOM     15  C   UNL     1      35.306   2.274  16.073  0.00  0.00    +0.000 C 
ATOM     16  C   UNL     1      35.075   2.408  14.605  0.00  0.00    +0.000 C 
ATOM     17  C   UNL     1      36.420   2.093  13.966  0.00  0.00    +0.000 C 
ENDBRANCH  12  13
ENDBRANCH  11  12
ENDBRANCH   1  10
BRANCH   1  18
ATOM     18  C   UNL     1      38.091  -2.910  15.376  0.00  0.00    +0.000 C 
ATOM     19  O   UNL     1      38.668  -3.640  16.187  0.00  0.00    +0.000 OA
BRANCH  18  20
ATOM     20  C   UNL     1      36.633  -2.653  15.472  0.00  0.00    +0.000 C 
ATOM     21  O   UNL     1      36.180  -1.894  14.381  0.00  0.00    +0.000 OA
BRANCH  20  22
ATOM     22  C   UNL     1      35.907  -3.952  15.459  0.00  0.00    +0.000 A 
ATOM     23  C   UNL     1      36.325  -4.913  16.355  0.00  0.00    +0.000 A 
ATOM     24  C   UNL     1      35.700  -6.136  16.397  0.00  0.00    +0.000 A 
ATOM     25  C   UNL     1      34.641  -6.442  15.556  0.00  0.00    +0.000 A 
ATOM     26  C   UNL     1      34.229  -5.460  14.656  0.00  0.00    +0.000 A 
ATOM     27  C   UNL     1      34.858  -4.220  14.606  0.00  0.00    +0.000 A 
ENDBRANCH  20  22
BRANCH  20  28
ATOM     28  C   UNL     1      36.320  -1.939  16.713  0.00  0.00    +0.000 A 
ATOM     29  C   UNL     1      35.036  -1.529  16.977  0.00  0.00    +0.000 A 
ATOM     30  C   UNL     1      34.790  -0.861  18.168  0.00  0.00    +0.000 A 
ATOM     31  C   UNL     1      35.801  -0.622  19.049  0.00  0.00    +0.000 A 
ATOM     32  C   UNL     1      37.101  -1.035  18.789  0.00  0.00    +0.000 A 
ATOM     33  C   UNL     1      37.326  -1.695  17.605  0.00  0.00    +0.000 A 
ENDBRANCH  20  28
ENDBRANCH  18  20
ENDBRANCH   1  18
TORSDOF 7
ENDMDL
MODEL 7
REMARK VINA RESULT:      -7.2      4.246      8.331
REMARK  Name = 
REMARK  7 active torsions:
REMARK  status: ('A' for Active; 'I' for Inactive)
REMARK    1  A    between atoms: C_9  and  O_10
REMARK    2  A    between atoms: O_10  and  C_11
REMARK    3  A    between atoms: C_11  and  C_13
REMARK    4  A    between atoms: C_13  and  C_15
REMARK    5  A    between atoms: C_13  and  C_21
REMARK    6  A    between atoms: C_27  and  C_28
REMARK    7  A    between atoms: C_28  and  N_29
REMARK                            x       y       z     vdW  Elec       q    Type
REMARK                         _______ _______ _______ _____ _____    ______ ____
ROOT
ATOM      1  O   UNL     1      38.646   4.397  16.097  0.00  0.00    +0.000 OA
ENDROOT
BRANCH   1  10
ATOM      2  C   UNL     1      39.004   2.530  14.112  0.00  0.00    +0.000 C 
ATOM      3  C   UNL     1      37.655   3.067  13.687  0.00  0.00    +0.000 C 
ATOM      4  C   UNL     1      37.319   2.862  12.271  0.00  0.00    +0.000 C 
ATOM      5  C   UNL     1      36.542   2.143  14.451  0.00  0.00    +0.000 C 
ATOM      6  C   UNL     1      35.367   3.269  14.561  0.00  0.00    +0.000 C 
ATOM      7  C   UNL     1      35.858   4.400  13.766  0.00  0.00    +0.000 C 
ATOM      8  C   UNL     1      37.311   4.301  14.203  0.00  0.00    +0.000 C 
ATOM      9  C   UNL     1      37.990   5.561  13.928  0.00  0.00    +0.000 C 
ATOM     10  C   UNL     1      37.126   4.160  15.825  0.00  0.00    +0.000 C 
ATOM     11  C   UNL     1      37.340   2.476  15.895  0.00  0.00    +0.000 C 
BRANCH  11  12
ATOM     12  C   UNL     1      36.045   2.230  16.800  0.00  0.00    +0.000 C 
BRANCH  12  13
ATOM     13  N   UNL     1      36.222   0.823  17.200  0.00  0.00    +0.000 NA
ATOM     14  C   UNL     1      36.255   0.818  18.665  0.00  0.00    +0.000 C 
ATOM     15  C   UNL     1      35.816  -0.589  19.061  0.00  0.00    +0.000 C 
ATOM     16  C   UNL     1      35.097  -1.101  17.857  0.00  0.00    +0.000 C 
ATOM     17  C   UNL     1      35.003   0.094  16.919  0.00  0.00    +0.000 C 
ENDBRANCH  12  13
ENDBRANCH  11  12
ENDBRANCH   1  10
BRANCH   1  18
ATOM     18  C   UNL     1      38.951   4.979  17.290  0.00  0.00    +0.000 C 
ATOM     19  O   UNL     1      38.720   4.385  18.347  0.00  0.00    +0.000 OA
BRANCH  18  20
ATOM     20  C   UNL     1      39.564   6.330  17.284  0.00  0.00    +0.000 C 
ATOM     21  O   UNL     1      40.045   6.661  16.007  0.00  0.00    +0.000 OA
BRANCH  20  22
ATOM     22  C   UNL     1      38.534   7.334  17.660  0.00  0.00    +0.000 A 
ATOM     23  C   UNL     1      37.935   8.033  16.633  0.00  0.00    +0.000 A 
ATOM     24  C   UNL     1      36.975   8.977  16.907  0.00  0.00    +0.000 A 
ATOM     25  C   UNL     1      36.578   9.255  18.206  0.00  0.00    +0.000 A 
ATOM     26  C   UNL     1      37.192   8.541  19.234  0.00  0.00    +0.000 A 
ATOM     27  C   UNL     1      38.166   7.585  18.964  0.00  0.00    +0.000 A 
ENDBRANCH  20  22
BRANCH  20  28
ATOM     28  C   UNL     1      40.671   6.394  18.242  0.00  0.00    +0.000 A 
ATOM     29  C   UNL     1      41.956   6.618  17.810  0.00  0.00    +0.000 A 
ATOM     30  C   UNL     1      42.968   6.675  18.757  0.00  0.00    +0.000 A 
ATOM     31  C   UNL     1      42.688   6.514  20.080  0.00  0.00    +0.000 A 
ATOM     32  C   UNL     1      41.391   6.288  20.524  0.00  0.00    +0.000 A 
ATOM     33  C   UNL     1      40.402   6.234  19.572  0.00  0.00    +0.000 A 
ENDBRANCH  20  28
ENDBRANCH  18  20
ENDBRANCH   1  18
TORSDOF 7
ENDMDL
MODEL 8
REMARK VINA RESULT:      -7.1      2.004      3.952
REMARK  Name = 
REMARK  7 active torsions:
REMARK  status: ('A' for Active; 'I' for Inactive)
REMARK    1  A    between atoms: C_9  and  O_10
REMARK    2  A    between atoms: O_10  and  C_11
REMARK    3  A    between atoms: C_11  and  C_13
REMARK    4  A    between atoms: C_13  and  C_15
REMARK    5  A    between atoms: C_13  and  C_21
REMARK    6  A    between atoms: C_27  and  C_28
REMARK    7  A    between atoms: C_28  and  N_29
REMARK                            x       y       z     vdW  Elec       q    Type
REMARK                         _______ _______ _______ _____ _____    ______ ____
ROOT
ATOM      1  O   UNL     1      39.842  -1.023  13.843  0.00  0.00    +0.000 OA
ENDROOT
BRANCH   1  10
ATOM      2  C   UNL     1      40.596  -2.650  11.759  0.00  0.00    +0.000 C 
ATOM      3  C   UNL     1      41.942  -2.037  12.077  0.00  0.00    +0.000 C 
ATOM      4  C   UNL     1      43.104  -2.819  11.633  0.00  0.00    +0.000 C 
ATOM      5  C   UNL     1      42.052  -0.690  11.156  0.00  0.00    +0.000 C 
ATOM      6  C   UNL     1      43.017   0.172  12.149  0.00  0.00    +0.000 C 
ATOM      7  C   UNL     1      43.410  -0.773  13.201  0.00  0.00    +0.000 C 
ATOM      8  C   UNL     1      42.060  -1.462  13.327  0.00  0.00    +0.000 C 
ATOM      9  C   UNL     1      41.989  -2.166  14.601  0.00  0.00    +0.000 C 
ATOM     10  C   UNL     1      41.067  -0.160  13.403  0.00  0.00    +0.000 C 
ATOM     11  C   UNL     1      40.564  -0.211  11.780  0.00  0.00    +0.000 C 
BRANCH  11  12
ATOM     12  C   UNL     1      40.830   1.346  11.526  0.00  0.00    +0.000 C 
BRANCH  12  13
ATOM     13  N   UNL     1      39.511   1.801  11.053  0.00  0.00    +0.000 NA
ATOM     14  C   UNL     1      38.664   0.606  10.999  0.00  0.00    +0.000 C 
ATOM     15  C   UNL     1      37.237   1.132  11.129  0.00  0.00    +0.000 C 
ATOM     16  C   UNL     1      37.399   2.484  11.742  0.00  0.00    +0.000 C 
ATOM     17  C   UNL     1      38.876   2.579  12.097  0.00  0.00    +0.000 C 
ENDBRANCH  12  13
ENDBRANCH  11  12
ENDBRANCH   1  10
BRANCH   1  18
ATOM     18  C   UNL     1      38.924  -0.393  14.628  0.00  0.00    +0.000 C 
ATOM     19  O   UNL     1      39.185   0.704  15.129  0.00  0.00    +0.000 OA
BRANCH  18  20
ATOM     20  C   UNL     1      37.617  -1.054  14.861  0.00  0.00    +0.000 C 
ATOM     21  O   UNL     1      37.042  -1.478  13.651  0.00  0.00    +0.000 OA
BRANCH  20  22
ATOM     22  C   UNL     1      37.822  -2.255  15.715  0.00  0.00    +0.000 A 
ATOM     23  C   UNL     1      37.042  -3.359  15.444  0.00  0.00    +0.000 A 
ATOM     24  C   UNL     1      37.179  -4.502  16.193  0.00  0.00    +0.000 A 
ATOM     25  C   UNL     1      38.093  -4.586  17.232  0.00  0.00    +0.000 A 
ATOM     26  C   UNL     1      38.874  -3.462  17.495  0.00  0.00    +0.000 A 
ATOM     27  C   UNL     1      38.741  -2.301  16.741  0.00  0.00    +0.000 A 
ENDBRANCH  20  22
BRANCH  20  28
ATOM     28  C   UNL     1      36.691  -0.138  15.533  0.00  0.00    +0.000 A 
ATOM     29  C   UNL     1      36.406  -0.288  16.868  0.00  0.00    +0.000 A 
ATOM     30  C   UNL     1      35.528   0.608  17.459  0.00  0.00    +0.000 A 
ATOM     31  C   UNL     1      34.967   1.610  16.728  0.00  0.00    +0.000 A 
ATOM     32  C   UNL     1      35.251   1.769  15.377  0.00  0.00    +0.000 A 
ATOM     33  C   UNL     1      36.123   0.873  14.810  0.00  0.00    +0.000 A 
ENDBRANCH  20  28
ENDBRANCH  18  20
ENDBRANCH   1  18
TORSDOF 7
ENDMDL
MODEL 9
REMARK VINA RESULT:      -7.1      2.429      5.849
REMARK  Name = 
REMARK  7 active torsions:
REMARK  status: ('A' for Active; 'I' for Inactive)
REMARK    1  A    between atoms: C_9  and  O_10
REMARK    2  A    between atoms: O_10  and  C_11
REMARK    3  A    between atoms: C_11  and  C_13
REMARK    4  A    between atoms: C_13  and  C_15
REMARK    5  A    between atoms: C_13  and  C_21
REMARK    6  A    between atoms: C_27  and  C_28
REMARK    7  A    between atoms: C_28  and  N_29
REMARK                            x       y       z     vdW  Elec       q    Type
REMARK                         _______ _______ _______ _____ _____    ______ ____
ROOT
ATOM      1  O   UNL     1      38.585   0.741  13.337  0.00  0.00    +0.000 OA
ENDROOT
BRANCH   1  10
ATOM      2  C   UNL     1      40.835  -0.329  14.499  0.00  0.00    +0.000 C 
ATOM      3  C   UNL     1      40.195  -1.608  14.005  0.00  0.00    +0.000 C 
ATOM      4  C   UNL     1      41.118  -2.737  13.824  0.00  0.00    +0.000 C 
ATOM      5  C   UNL     1      39.234  -2.130  15.221  0.00  0.00    +0.000 C 
ATOM      6  C   UNL     1      38.124  -2.897  14.305  0.00  0.00    +0.000 C 
ATOM      7  C   UNL     1      38.679  -2.871  12.947  0.00  0.00    +0.000 C 
ATOM      8  C   UNL     1      39.242  -1.460  13.017  0.00  0.00    +0.000 C 
ATOM      9  C   UNL     1      39.481  -0.963  11.667  0.00  0.00    +0.000 C 
ATOM     10  C   UNL     1      37.957  -0.657  13.641  0.00  0.00    +0.000 C 
ATOM     11  C   UNL     1      38.526  -0.603  15.241  0.00  0.00    +0.000 C 
BRANCH  11  12
ATOM     12  C   UNL     1      37.152  -1.123  15.872  0.00  0.00    +0.000 C 
BRANCH  12  13
ATOM     13  N   UNL     1      37.256  -0.635  17.258  0.00  0.00    +0.000 NA
ATOM     14  C   UNL     1      36.011   0.090  17.529  0.00  0.00    +0.000 C 
ATOM     15  C   UNL     1      35.850   0.037  19.046  0.00  0.00    +0.000 C 
ATOM     16  C   UNL     1      36.708  -1.110  19.466  0.00  0.00    +0.000 C 
ATOM     17  C   UNL     1      37.159  -1.760  18.165  0.00  0.00    +0.000 C 
ENDBRANCH  12  13
ENDBRANCH  11  12
ENDBRANCH   1  10
BRANCH   1  18
ATOM     18  C   UNL     1      37.711   1.786  13.291  0.00  0.00    +0.000 C 
ATOM     19  O   UNL     1      36.500   1.577  13.176  0.00  0.00    +0.000 OA
BRANCH  18  20
ATOM     20  C   UNL     1      38.250   3.164  13.383  0.00  0.00    +0.000 C 
ATOM     21  O   UNL     1      39.562   3.230  12.884  0.00  0.00    +0.000 OA
BRANCH  20  22
ATOM     22  C   UNL     1      37.403   4.075  12.566  0.00  0.00    +0.000 A 
ATOM     23  C   UNL     1      37.592   4.049  11.200  0.00  0.00    +0.000 A 
ATOM     24  C   UNL     1      36.845   4.864  10.385  0.00  0.00    +0.000 A 
ATOM     25  C   UNL     1      35.887   5.726  10.897  0.00  0.00    +0.000 A 
ATOM     26  C   UNL     1      35.708   5.741  12.280  0.00  0.00    +0.000 A 
ATOM     27  C   UNL     1      36.461   4.920  13.112  0.00  0.00    +0.000 A 
ENDBRANCH  20  22
BRANCH  20  28
ATOM     28  C   UNL     1      38.247   3.624  14.775  0.00  0.00    +0.000 A 
ATOM     29  C   UNL     1      39.168   4.545  15.208  0.00  0.00    +0.000 A 
ATOM     30  C   UNL     1      39.120   4.952  16.534  0.00  0.00    +0.000 A 
ATOM     31  C   UNL     1      38.179   4.445  17.378  0.00  0.00    +0.000 A 
ATOM     32  C   UNL     1      37.243   3.513  16.947  0.00  0.00    +0.000 A 
ATOM     33  C   UNL     1      37.307   3.123  15.632  0.00  0.00    +0.000 A 
ENDBRANCH  20  28
ENDBRANCH  18  20
ENDBRANCH   1  18
TORSDOF 7
ENDMDL
MODEL 10
REMARK VINA RESULT:      -7.1      1.723      5.406
REMARK  Name = 
REMARK  7 active torsions:
REMARK  status: ('A' for Active; 'I' for Inactive)
REMARK    1  A    between atoms: C_9  and  O_10
REMARK    2  A    between atoms: O_10  and  C_11
REMARK    3  A    between atoms: C_11  and  C_13
REMARK    4  A    between atoms: C_13  and  C_15
REMARK    5  A    between atoms: C_13  and  C_21
REMARK    6  A    between atoms: C_27  and  C_28
REMARK    7  A    between atoms: C_28  and  N_29
REMARK                            x       y       z     vdW  Elec       q    Type
REMARK                         _______ _______ _______ _____ _____    ______ ____
ROOT
ATOM      1  O   UNL     1      38.142   0.463  14.540  0.00  0.00    +0.000 OA
ENDROOT
BRANCH   1  10
ATOM      2  C   UNL     1      36.469   1.920  12.917  0.00  0.00    +0.000 C 
ATOM      3  C   UNL     1      37.234   3.061  13.549  0.00  0.00    +0.000 C 
ATOM      4  C   UNL     1      37.233   4.315  12.782  0.00  0.00    +0.000 C 
ATOM      5  C   UNL     1      36.400   3.472  14.895  0.00  0.00    +0.000 C 
ATOM      6  C   UNL     1      37.662   4.017  15.773  0.00  0.00    +0.000 C 
ATOM      7  C   UNL     1      38.792   4.026  14.837  0.00  0.00    +0.000 C 
ATOM      8  C   UNL     1      38.441   2.726  14.130  0.00  0.00    +0.000 C 
ATOM      9  C   UNL     1      39.615   2.220  13.429  0.00  0.00    +0.000 C 
ATOM     10  C   UNL     1      38.154   1.755  15.419  0.00  0.00    +0.000 C 
ATOM     11  C   UNL     1      36.458   1.854  15.356  0.00  0.00    +0.000 C 
BRANCH  11  12
ATOM     12  C   UNL     1      36.302   2.175  16.915  0.00  0.00    +0.000 C 
BRANCH  12  13
ATOM     13  N   UNL     1      35.349   1.135  17.340  0.00  0.00    +0.000 NA
ATOM     14  C   UNL     1      35.231   0.206  16.212  0.00  0.00    +0.000 C 
ATOM     15  C   UNL     1      34.790  -1.115  16.837  0.00  0.00    +0.000 C 
ATOM     16  C   UNL     1      35.173  -0.986  18.274  0.00  0.00    +0.000 C 
ATOM     17  C   UNL     1      35.971   0.308  18.353  0.00  0.00    +0.000 C 
ENDBRANCH  12  13
ENDBRANCH  11  12
ENDBRANCH   1  10
BRANCH   1  18
ATOM     18  C   UNL     1      38.418  -0.700  15.193  0.00  0.00    +0.000 C 
ATOM     19  O   UNL     1      38.607  -0.697  16.413  0.00  0.00    +0.000 OA
BRANCH  18  20
ATOM     20  C   UNL     1      38.482  -1.956  14.407  0.00  0.00    +0.000 C 
ATOM     21  O   UNL     1      37.689  -1.870  13.250  0.00  0.00    +0.000 OA
BRANCH  20  22
ATOM     22  C   UNL     1      39.887  -2.195  13.982  0.00  0.00    +0.000 A 
ATOM     23  C   UNL     1      40.873  -1.517  14.668  0.00  0.00    +0.000 A 
ATOM     24  C   UNL     1      42.193  -1.690  14.329  0.00  0.00    +0.000 A 
ATOM     25  C   UNL     1      42.576  -2.539  13.302  0.00  0.00    +0.000 A 
ATOM     26  C   UNL     1      41.568  -3.217  12.617  0.00  0.00    +0.000 A 
ATOM     27  C   UNL     1      40.230  -3.047  12.954  0.00  0.00    +0.000 A 
ENDBRANCH  20  22
BRANCH  20  28
ATOM     28  C   UNL     1      38.024  -3.090  15.215  0.00  0.00    +0.000 A 
ATOM     29  C   UNL     1      36.824  -3.701  14.944  0.00  0.00    +0.000 A 
ATOM     30  C   UNL     1      36.438  -4.774  15.735  0.00  0.00    +0.000 A 
ATOM     31  C   UNL     1      37.235  -5.205  16.752  0.00  0.00    +0.000 A 
ATOM     32  C   UNL     1      38.450  -4.592  17.031  0.00  0.00    +0.000 A 
ATOM     33  C   UNL     1      38.815  -3.533  16.238  0.00  0.00    +0.000 A 
ENDBRANCH  20  28
ENDBRANCH  18  20
ENDBRANCH   1  18
TORSDOF 7
ENDMDL
