MODEL 1
REMARK VINA RESULT:      -6.1      0.000      0.000
REMARK  Name = 
REMARK  4 active torsions:
REMARK  status: ('A' for Active; 'I' for Inactive)
REMARK    1  A    between atoms: O_2  and  C_3
REMARK    2  A    between atoms: C_3  and  C_5
REMARK    3  A    between atoms: C_10  and  O_11
REMARK    4  A    between atoms: O_11  and  C_12
REMARK                            x       y       z     vdW  Elec       q    Type
REMARK                         _______ _______ _______ _____ _____    ______ ____
ROOT
ATOM      1  C   UNL     1      18.281   9.204  39.910  0.00  0.00    +0.000 A 
ATOM      2  C   UNL     1      19.304   9.270  39.008  0.00  0.00    +0.000 A 
ATOM      3  C   UNL     1      19.123   9.836  37.772  0.00  0.00    +0.000 A 
ATOM      4  C   UNL     1      20.287   9.865  36.855  0.00  0.00    +0.000 C 
ATOM      5  C   UNL     1      17.902  10.327  37.471  0.00  0.00    +0.000 A 
ATOM      6  C   UNL     1      16.785  10.289  38.371  0.00  0.00    +0.000 A 
ATOM      7  C   UNL     1      17.057   9.700  39.599  0.00  0.00    +0.000 A 
ATOM      8  C   UNL     1      15.969   9.595  40.643  0.00  0.00    +0.000 C 
ENDROOT
BRANCH   1   9
ATOM      9  C   UNL     1      18.492   8.590  41.247  0.00  0.00    +0.000 C 
ATOM     10  O   UNL     1      18.321   7.376  41.454  0.00  0.00    +0.000 OA
BRANCH   9  12
ATOM     11  C   UNL     1      18.343   9.299  43.598  0.00  0.00    +0.000 C 
ATOM     12  O   UNL     1      18.891   9.376  42.317  0.00  0.00    +0.000 OA
ENDBRANCH   9  12
ENDBRANCH   1   9
BRANCH   6  13
ATOM     13  O   UNL     1      15.658  10.786  37.987  0.00  0.00    +0.000 OA
BRANCH  13  14
ATOM     14  C   UNL     1      14.534  11.283  37.605  0.00  0.00    +0.000 A 
ATOM     15  C   UNL     1      13.366  10.725  38.210  0.00  0.00    +0.000 A 
ATOM     16  C   UNL     1      12.111  11.134  37.919  0.00  0.00    +0.000 A 
ATOM     17  C   UNL     1      11.979  12.140  36.990  0.00  0.00    +0.000 A 
ATOM     18  C   UNL     1      13.064  12.704  36.384  0.00  0.00    +0.000 A 
ATOM     19  C   UNL     1      14.334  12.285  36.683  0.00  0.00    +0.000 A 
ATOM     20  N   UNL     1      15.452  12.918  36.012  0.00  0.00    +0.000 NA
ENDBRANCH  13  14
ENDBRANCH   6  13
TORSDOF 4
ENDMDL
MODEL 2
REMARK VINA RESULT:      -5.9     21.599     23.583
REMARK  Name = 
REMARK  4 active torsions:
REMARK  status: ('A' for Active; 'I' for Inactive)
REMARK    1  A    between atoms: O_2  and  C_3
REMARK    2  A    between atoms: C_3  and  C_5
REMARK    3  A    between atoms: C_10  and  O_11
REMARK    4  A    between atoms: O_11  and  C_12
REMARK                            x       y       z     vdW  Elec       q    Type
REMARK                         _______ _______ _______ _____ _____    ______ ____
ROOT
ATOM      1  C   UNL     1      18.981  -8.042  26.958  0.00  0.00    +0.000 A 
ATOM      2  C   UNL     1      18.530  -6.754  27.026  0.00  0.00    +0.000 A 
ATOM      3  C   UNL     1      19.192  -5.738  26.386  0.00  0.00    +0.000 A 
ATOM      4  C   UNL     1      18.635  -4.371  26.513  0.00  0.00    +0.000 C 
ATOM      5  C   UNL     1      20.305  -6.046  25.686  0.00  0.00    +0.000 A 
ATOM      6  C   UNL     1      20.831  -7.377  25.574  0.00  0.00    +0.000 A 
ATOM      7  C   UNL     1      20.099  -8.343  26.251  0.00  0.00    +0.000 A 
ATOM      8  C   UNL     1      20.543  -9.788  26.217  0.00  0.00    +0.000 C 
ENDROOT
BRANCH   1   9
ATOM      9  C   UNL     1      18.252  -9.135  27.654  0.00  0.00    +0.000 C 
ATOM     10  O   UNL     1      17.241  -9.672  27.171  0.00  0.00    +0.000 OA
BRANCH   9  12
ATOM     11  C   UNL     1      17.873  -9.757  30.004  0.00  0.00    +0.000 C 
ATOM     12  O   UNL     1      18.694  -9.587  28.888  0.00  0.00    +0.000 OA
ENDBRANCH   9  12
ENDBRANCH   1   9
BRANCH   6  13
ATOM     13  O   UNL     1      21.903  -7.566  24.880  0.00  0.00    +0.000 OA
BRANCH  13  14
ATOM     14  C   UNL     1      22.971  -7.757  24.189  0.00  0.00    +0.000 A 
ATOM     15  C   UNL     1      23.962  -6.731  24.275  0.00  0.00    +0.000 A 
ATOM     16  C   UNL     1      25.139  -6.777  23.612  0.00  0.00    +0.000 A 
ATOM     17  C   UNL     1      25.370  -7.880  22.822  0.00  0.00    +0.000 A 
ATOM     18  C   UNL     1      24.455  -8.886  22.708  0.00  0.00    +0.000 A 
ATOM     19  C   UNL     1      23.264  -8.833  23.382  0.00  0.00    +0.000 A 
ATOM     20  N   UNL     1      22.327  -9.928  23.227  0.00  0.00    +0.000 NA
ENDBRANCH  13  14
ENDBRANCH   6  13
TORSDOF 4
ENDMDL
MODEL 3
REMARK VINA RESULT:      -5.8     19.195     21.473
REMARK  Name = 
REMARK  4 active torsions:
REMARK  status: ('A' for Active; 'I' for Inactive)
REMARK    1  A    between atoms: O_2  and  C_3
REMARK    2  A    between atoms: C_3  and  C_5
REMARK    3  A    between atoms: C_10  and  O_11
REMARK    4  A    between atoms: O_11  and  C_12
REMARK                            x       y       z     vdW  Elec       q    Type
REMARK                         _______ _______ _______ _____ _____    ______ ____
ROOT
ATOM      1  C   UNL     1      26.641  23.252  28.975  0.00  0.00    +0.000 A 
ATOM      2  C   UNL     1      25.736  24.226  29.289  0.00  0.00    +0.000 A 
ATOM      3  C   UNL     1      25.354  25.163  28.364  0.00  0.00    +0.000 A 
ATOM      4  C   UNL     1      24.367  26.182  28.789  0.00  0.00    +0.000 C 
ATOM      5  C   UNL     1      25.899  25.096  27.130  0.00  0.00    +0.000 A 
ATOM      6  C   UNL     1      26.855  24.101  26.736  0.00  0.00    +0.000 A 
ATOM      7  C   UNL     1      27.184  23.193  27.733  0.00  0.00    +0.000 A 
ATOM      8  C   UNL     1      28.180  22.091  27.452  0.00  0.00    +0.000 C 
ENDROOT
BRANCH   1   9
ATOM      9  C   UNL     1      27.045  22.242  29.988  0.00  0.00    +0.000 C 
ATOM     10  O   UNL     1      26.287  21.327  30.351  0.00  0.00    +0.000 OA
BRANCH   9  12
ATOM     11  C   UNL     1      28.897  23.471  31.044  0.00  0.00    +0.000 C 
ATOM     12  O   UNL     1      28.305  22.301  30.564  0.00  0.00    +0.000 OA
ENDBRANCH   9  12
ENDBRANCH   1   9
BRANCH   6  13
ATOM     13  O   UNL     1      27.317  24.124  25.531  0.00  0.00    +0.000 OA
BRANCH  13  14
ATOM     14  C   UNL     1      27.779  24.147  24.331  0.00  0.00    +0.000 A 
ATOM     15  C   UNL     1      29.075  24.728  24.170  0.00  0.00    +0.000 A 
ATOM     16  C   UNL     1      29.702  24.829  22.977  0.00  0.00    +0.000 A 
ATOM     17  C   UNL     1      29.037  24.339  21.877  0.00  0.00    +0.000 A 
ATOM     18  C   UNL     1      27.798  23.775  21.978  0.00  0.00    +0.000 A 
ATOM     19  C   UNL     1      27.168  23.676  23.190  0.00  0.00    +0.000 A 
ATOM     20  N   UNL     1      25.853  23.068  23.244  0.00  0.00    +0.000 NA
ENDBRANCH  13  14
ENDBRANCH   6  13
TORSDOF 4
ENDMDL
MODEL 4
REMARK VINA RESULT:      -5.8     19.045     21.322
REMARK  Name = 
REMARK  4 active torsions:
REMARK  status: ('A' for Active; 'I' for Inactive)
REMARK    1  A    between atoms: O_2  and  C_3
REMARK    2  A    between atoms: C_3  and  C_5
REMARK    3  A    between atoms: C_10  and  O_11
REMARK    4  A    between atoms: O_11  and  C_12
REMARK                            x       y       z     vdW  Elec       q    Type
REMARK                         _______ _______ _______ _____ _____    ______ ____
ROOT
ATOM      1  C   UNL     1      27.611  22.974  29.492  0.00  0.00    +0.000 A 
ATOM      2  C   UNL     1      28.863  22.752  29.991  0.00  0.00    +0.000 A 
ATOM      3  C   UNL     1      29.962  22.744  29.171  0.00  0.00    +0.000 A 
ATOM      4  C   UNL     1      31.282  22.496  29.796  0.00  0.00    +0.000 C 
ATOM      5  C   UNL     1      29.771  22.961  27.852  0.00  0.00    +0.000 A 
ATOM      6  C   UNL     1      28.484  23.199  27.263  0.00  0.00    +0.000 A 
ATOM      7  C   UNL     1      27.429  23.191  28.166  0.00  0.00    +0.000 A 
ATOM      8  C   UNL     1      26.017  23.429  27.679  0.00  0.00    +0.000 C 
ENDROOT
BRANCH   1   9
ATOM      9  C   UNL     1      26.430  22.982  30.394  0.00  0.00    +0.000 C 
ATOM     10  O   UNL     1      25.882  21.936  30.780  0.00  0.00    +0.000 OA
BRANCH   9  12
ATOM     11  C   UNL     1      26.595  25.114  31.612  0.00  0.00    +0.000 C 
ATOM     12  O   UNL     1      25.901  24.186  30.834  0.00  0.00    +0.000 OA
ENDBRANCH   9  12
ENDBRANCH   1   9
BRANCH   6  13
ATOM     13  O   UNL     1      28.408  23.395  25.990  0.00  0.00    +0.000 OA
BRANCH  13  14
ATOM     14  C   UNL     1      28.333  23.590  24.720  0.00  0.00    +0.000 A 
ATOM     15  C   UNL     1      27.014  23.657  24.175  0.00  0.00    +0.000 A 
ATOM     16  C   UNL     1      26.762  23.856  22.862  0.00  0.00    +0.000 A 
ATOM     17  C   UNL     1      27.848  23.999  22.030  0.00  0.00    +0.000 A 
ATOM     18  C   UNL     1      29.127  23.943  22.503  0.00  0.00    +0.000 A 
ATOM     19  C   UNL     1      29.376  23.741  23.834  0.00  0.00    +0.000 A 
ATOM     20  N   UNL     1      30.753  23.690  24.286  0.00  0.00    +0.000 NA
ENDBRANCH  13  14
ENDBRANCH   6  13
TORSDOF 4
ENDMDL
MODEL 5
REMARK VINA RESULT:      -5.7      2.310      3.880
REMARK  Name = 
REMARK  4 active torsions:
REMARK  status: ('A' for Active; 'I' for Inactive)
REMARK    1  A    between atoms: O_2  and  C_3
REMARK    2  A    between atoms: C_3  and  C_5
REMARK    3  A    between atoms: C_10  and  O_11
REMARK    4  A    between atoms: O_11  and  C_12
REMARK                            x       y       z     vdW  Elec       q    Type
REMARK                         _______ _______ _______ _____ _____    ______ ____
ROOT
ATOM      1  C   UNL     1      19.306   9.709  39.883  0.00  0.00    +0.000 A 
ATOM      2  C   UNL     1      18.360   9.490  40.843  0.00  0.00    +0.000 A 
ATOM      3  C   UNL     1      17.023   9.589  40.556  0.00  0.00    +0.000 A 
ATOM      4  C   UNL     1      16.065   9.335  41.656  0.00  0.00    +0.000 C 
ATOM      5  C   UNL     1      16.667   9.912  39.294  0.00  0.00    +0.000 A 
ATOM      6  C   UNL     1      17.609  10.156  38.239  0.00  0.00    +0.000 A 
ATOM      7  C   UNL     1      18.939  10.033  38.617  0.00  0.00    +0.000 A 
ATOM      8  C   UNL     1      20.037  10.263  37.604  0.00  0.00    +0.000 C 
ENDROOT
BRANCH   1   9
ATOM      9  C   UNL     1      20.753   9.596  40.208  0.00  0.00    +0.000 C 
ATOM     10  O   UNL     1      21.411  10.553  40.649  0.00  0.00    +0.000 OA
BRANCH   9  12
ATOM     11  C   UNL     1      22.794   8.267  39.861  0.00  0.00    +0.000 C 
ATOM     12  O   UNL     1      21.413   8.391  40.021  0.00  0.00    +0.000 OA
ENDBRANCH   9  12
ENDBRANCH   1   9
BRANCH   6  13
ATOM     13  O   UNL     1      17.166  10.459  37.065  0.00  0.00    +0.000 OA
BRANCH  13  14
ATOM     14  C   UNL     1      16.726  10.762  35.895  0.00  0.00    +0.000 A 
ATOM     15  C   UNL     1      17.429  10.183  34.793  0.00  0.00    +0.000 A 
ATOM     16  C   UNL     1      17.095  10.401  33.502  0.00  0.00    +0.000 A 
ATOM     17  C   UNL     1      16.019  11.223  33.263  0.00  0.00    +0.000 A 
ATOM     18  C   UNL     1      15.315  11.799  34.281  0.00  0.00    +0.000 A 
ATOM     19  C   UNL     1      15.659  11.576  35.588  0.00  0.00    +0.000 A 
ATOM     20  N   UNL     1      14.879  12.211  36.632  0.00  0.00    +0.000 NA
ENDBRANCH  13  14
ENDBRANCH   6  13
TORSDOF 4
ENDMDL
MODEL 6
REMARK VINA RESULT:      -5.7      2.930      6.446
REMARK  Name = 
REMARK  4 active torsions:
REMARK  status: ('A' for Active; 'I' for Inactive)
REMARK    1  A    between atoms: O_2  and  C_3
REMARK    2  A    between atoms: C_3  and  C_5
REMARK    3  A    between atoms: C_10  and  O_11
REMARK    4  A    between atoms: O_11  and  C_12
REMARK                            x       y       z     vdW  Elec       q    Type
REMARK                         _______ _______ _______ _____ _____    ______ ____
ROOT
ATOM      1  C   UNL     1      17.927   9.279  39.691  0.00  0.00    +0.000 A 
ATOM      2  C   UNL     1      16.955   9.939  38.993  0.00  0.00    +0.000 A 
ATOM      3  C   UNL     1      17.267  10.719  37.909  0.00  0.00    +0.000 A 
ATOM      4  C   UNL     1      16.151  11.398  37.211  0.00  0.00    +0.000 C 
ATOM      5  C   UNL     1      18.564  10.817  37.550  0.00  0.00    +0.000 A 
ATOM      6  C   UNL     1      19.633  10.151  38.239  0.00  0.00    +0.000 A 
ATOM      7  C   UNL     1      19.228   9.383  39.322  0.00  0.00    +0.000 A 
ATOM      8  C   UNL     1      20.253   8.628  40.137  0.00  0.00    +0.000 C 
ENDROOT
BRANCH   1   9
ATOM      9  C   UNL     1      17.574   8.436  40.863  0.00  0.00    +0.000 C 
ATOM     10  O   UNL     1      17.674   8.848  42.031  0.00  0.00    +0.000 OA
BRANCH   9  12
ATOM     11  C   UNL     1      17.817   5.995  41.049  0.00  0.00    +0.000 C 
ATOM     12  O   UNL     1      17.116   7.141  40.673  0.00  0.00    +0.000 OA
ENDBRANCH   9  12
ENDBRANCH   1   9
BRANCH   6  13
ATOM     13  O   UNL     1      20.842  10.310  37.815  0.00  0.00    +0.000 OA
BRANCH  13  14
ATOM     14  C   UNL     1      22.047  10.467  37.394  0.00  0.00    +0.000 A 
ATOM     15  C   UNL     1      22.532   9.466  36.496  0.00  0.00    +0.000 A 
ATOM     16  C   UNL     1      23.774   9.485  35.963  0.00  0.00    +0.000 A 
ATOM     17  C   UNL     1      24.593  10.530  36.319  0.00  0.00    +0.000 A 
ATOM     18  C   UNL     1      24.177  11.510  37.173  0.00  0.00    +0.000 A 
ATOM     19  C   UNL     1      22.917  11.486  37.710  0.00  0.00    +0.000 A 
ATOM     20  N   UNL     1      22.524  12.552  38.612  0.00  0.00    +0.000 NA
ENDBRANCH  13  14
ENDBRANCH   6  13
TORSDOF 4
ENDMDL
MODEL 7
REMARK VINA RESULT:      -5.6     21.535     23.038
REMARK  Name = 
REMARK  4 active torsions:
REMARK  status: ('A' for Active; 'I' for Inactive)
REMARK    1  A    between atoms: O_2  and  C_3
REMARK    2  A    between atoms: C_3  and  C_5
REMARK    3  A    between atoms: C_10  and  O_11
REMARK    4  A    between atoms: O_11  and  C_12
REMARK                            x       y       z     vdW  Elec       q    Type
REMARK                         _______ _______ _______ _____ _____    ______ ____
ROOT
ATOM      1  C   UNL     1      20.603  -7.549  25.697  0.00  0.00    +0.000 A 
ATOM      2  C   UNL     1      20.194  -6.246  25.709  0.00  0.00    +0.000 A 
ATOM      3  C   UNL     1      19.119  -5.847  26.462  0.00  0.00    +0.000 A 
ATOM      4  C   UNL     1      18.744  -4.415  26.416  0.00  0.00    +0.000 C 
ATOM      5  C   UNL     1      18.475  -6.782  27.192  0.00  0.00    +0.000 A 
ATOM      6  C   UNL     1      18.851  -8.167  27.224  0.00  0.00    +0.000 A 
ATOM      7  C   UNL     1      19.949  -8.481  26.434  0.00  0.00    +0.000 A 
ATOM      8  C   UNL     1      20.454  -9.905  26.375  0.00  0.00    +0.000 C 
ENDROOT
BRANCH   1   9
ATOM      9  C   UNL     1      21.771  -7.966  24.877  0.00  0.00    +0.000 C 
ATOM     10  O   UNL     1      22.937  -7.903  25.303  0.00  0.00    +0.000 OA
BRANCH   9  12
ATOM     11  C   UNL     1      22.387  -8.111  22.499  0.00  0.00    +0.000 C 
ATOM     12  O   UNL     1      21.581  -8.442  23.589  0.00  0.00    +0.000 OA
ENDBRANCH   9  12
ENDBRANCH   1   9
BRANCH   6  13
ATOM     13  O   UNL     1      18.169  -8.982  27.955  0.00  0.00    +0.000 OA
BRANCH  13  14
ATOM     14  C   UNL     1      17.489  -9.796  28.683  0.00  0.00    +0.000 A 
ATOM     15  C   UNL     1      16.427 -10.488  28.022  0.00  0.00    +0.000 A 
ATOM     16  C   UNL     1      15.620 -11.376  28.644  0.00  0.00    +0.000 A 
ATOM     17  C   UNL     1      15.852 -11.607  29.980  0.00  0.00    +0.000 A 
ATOM     18  C   UNL     1      16.853 -10.971  30.655  0.00  0.00    +0.000 A 
ATOM     19  C   UNL     1      17.668 -10.071  30.020  0.00  0.00    +0.000 A 
ATOM     20  N   UNL     1      18.717  -9.423  30.783  0.00  0.00    +0.000 NA
ENDBRANCH  13  14
ENDBRANCH   6  13
TORSDOF 4
ENDMDL
MODEL 8
REMARK VINA RESULT:      -5.6     23.067     24.814
REMARK  Name = 
REMARK  4 active torsions:
REMARK  status: ('A' for Active; 'I' for Inactive)
REMARK    1  A    between atoms: O_2  and  C_3
REMARK    2  A    between atoms: C_3  and  C_5
REMARK    3  A    between atoms: C_10  and  O_11
REMARK    4  A    between atoms: O_11  and  C_12
REMARK                            x       y       z     vdW  Elec       q    Type
REMARK                         _______ _______ _______ _____ _____    ______ ____
ROOT
ATOM      1  C   UNL     1      22.387   2.368  16.554  0.00  0.00    +0.000 A 
ATOM      2  C   UNL     1      22.169   2.336  15.205  0.00  0.00    +0.000 A 
ATOM      3  C   UNL     1      22.937   3.079  14.346  0.00  0.00    +0.000 A 
ATOM      4  C   UNL     1      22.632   2.986  12.900  0.00  0.00    +0.000 C 
ATOM      5  C   UNL     1      23.917   3.846  14.871  0.00  0.00    +0.000 A 
ATOM      6  C   UNL     1      24.198   3.925  16.276  0.00  0.00    +0.000 A 
ATOM      7  C   UNL     1      23.374   3.141  17.072  0.00  0.00    +0.000 A 
ATOM      8  C   UNL     1      23.561   3.130  18.573  0.00  0.00    +0.000 C 
ENDROOT
BRANCH   1   9
ATOM      9  C   UNL     1      21.548   1.555  17.473  0.00  0.00    +0.000 C 
ATOM     10  O   UNL     1      21.906   0.439  17.886  0.00  0.00    +0.000 OA
BRANCH   9  12
ATOM     11  C   UNL     1      19.103   1.746  17.278  0.00  0.00    +0.000 C 
ATOM     12  O   UNL     1      20.319   2.036  17.898  0.00  0.00    +0.000 OA
ENDBRANCH   9  12
ENDBRANCH   1   9
BRANCH   6  13
ATOM     13  O   UNL     1      25.158   4.689  16.678  0.00  0.00    +0.000 OA
BRANCH  13  14
ATOM     14  C   UNL     1      26.114   5.451  17.079  0.00  0.00    +0.000 A 
ATOM     15  C   UNL     1      26.594   5.206  18.403  0.00  0.00    +0.000 A 
ATOM     16  C   UNL     1      27.592   5.916  18.974  0.00  0.00    +0.000 A 
ATOM     17  C   UNL     1      28.158   6.919  18.221  0.00  0.00    +0.000 A 
ATOM     18  C   UNL     1      27.735   7.191  16.953  0.00  0.00    +0.000 A 
ATOM     19  C   UNL     1      26.722   6.468  16.379  0.00  0.00    +0.000 A 
ATOM     20  N   UNL     1      26.310   6.797  15.029  0.00  0.00    +0.000 NA
ENDBRANCH  13  14
ENDBRANCH   6  13
TORSDOF 4
ENDMDL
MODEL 9
REMARK VINA RESULT:      -5.5     19.258     21.607
REMARK  Name = 
REMARK  4 active torsions:
REMARK  status: ('A' for Active; 'I' for Inactive)
REMARK    1  A    between atoms: O_2  and  C_3
REMARK    2  A    between atoms: C_3  and  C_5
REMARK    3  A    between atoms: C_10  and  O_11
REMARK    4  A    between atoms: O_11  and  C_12
REMARK                            x       y       z     vdW  Elec       q    Type
REMARK                         _______ _______ _______ _____ _____    ______ ____
ROOT
ATOM      1  C   UNL     1      29.910  22.713  29.381  0.00  0.00    +0.000 A 
ATOM      2  C   UNL     1      28.798  22.462  30.134  0.00  0.00    +0.000 A 
ATOM      3  C   UNL     1      27.550  22.438  29.567  0.00  0.00    +0.000 A 
ATOM      4  C   UNL     1      26.399  22.158  30.456  0.00  0.00    +0.000 C 
ATOM      5  C   UNL     1      27.451  22.669  28.240  0.00  0.00    +0.000 A 
ATOM      6  C   UNL     1      28.577  22.940  27.393  0.00  0.00    +0.000 A 
ATOM      7  C   UNL     1      29.801  22.945  28.049  0.00  0.00    +0.000 A 
ATOM      8  C   UNL     1      31.071  23.217  27.275  0.00  0.00    +0.000 C 
ENDROOT
BRANCH   1   9
ATOM      9  C   UNL     1      31.258  22.735  30.009  0.00  0.00    +0.000 C 
ATOM     10  O   UNL     1      31.732  23.760  30.527  0.00  0.00    +0.000 OA
BRANCH   9  12
ATOM     11  C   UNL     1      33.427  21.574  29.966  0.00  0.00    +0.000 C 
ATOM     12  O   UNL     1      32.033  21.585  30.029  0.00  0.00    +0.000 OA
ENDBRANCH   9  12
ENDBRANCH   1   9
BRANCH   6  13
ATOM     13  O   UNL     1      28.375  23.149  26.136  0.00  0.00    +0.000 OA
BRANCH  13  14
ATOM     14  C   UNL     1      28.173  23.356  24.882  0.00  0.00    +0.000 A 
ATOM     15  C   UNL     1      29.331  23.675  24.107  0.00  0.00    +0.000 A 
ATOM     16  C   UNL     1      29.290  23.921  22.778  0.00  0.00    +0.000 A 
ATOM     17  C   UNL     1      28.060  23.854  22.166  0.00  0.00    +0.000 A 
ATOM     18  C   UNL     1      26.926  23.553  22.863  0.00  0.00    +0.000 A 
ATOM     19  C   UNL     1      26.973  23.306  24.209  0.00  0.00    +0.000 A 
ATOM     20  N   UNL     1      25.740  22.991  24.903  0.00  0.00    +0.000 NA
ENDBRANCH  13  14
ENDBRANCH   6  13
TORSDOF 4
ENDMDL
MODEL 10
REMARK VINA RESULT:      -5.4     19.171     21.906
REMARK  Name = 
REMARK  4 active torsions:
REMARK  status: ('A' for Active; 'I' for Inactive)
REMARK    1  A    between atoms: O_2  and  C_3
REMARK    2  A    between atoms: C_3  and  C_5
REMARK    3  A    between atoms: C_10  and  O_11
REMARK    4  A    between atoms: O_11  and  C_12
REMARK                            x       y       z     vdW  Elec       q    Type
REMARK                         _______ _______ _______ _____ _____    ______ ____
ROOT
ATOM      1  C   UNL     1      26.087  24.221  24.677  0.00  0.00    +0.000 A 
ATOM      2  C   UNL     1      25.030  25.033  24.974  0.00  0.00    +0.000 A 
ATOM      3  C   UNL     1      24.743  25.377  26.270  0.00  0.00    +0.000 A 
ATOM      4  C   UNL     1      23.578  26.262  26.502  0.00  0.00    +0.000 C 
ATOM      5  C   UNL     1      25.536  24.888  27.247  0.00  0.00    +0.000 A 
ATOM      6  C   UNL     1      26.661  24.030  27.004  0.00  0.00    +0.000 A 
ATOM      7  C   UNL     1      26.879  23.735  25.665  0.00  0.00    +0.000 A 
ATOM      8  C   UNL     1      28.032  22.841  25.267  0.00  0.00    +0.000 C 
ENDROOT
BRANCH   1   9
ATOM      9  C   UNL     1      26.388  23.859  23.267  0.00  0.00    +0.000 C 
ATOM     10  O   UNL     1      25.841  22.900  22.697  0.00  0.00    +0.000 OA
BRANCH   9  12
ATOM     11  C   UNL     1      28.429  24.060  21.907  0.00  0.00    +0.000 C 
ATOM     12  O   UNL     1      27.309  24.599  22.541  0.00  0.00    +0.000 OA
ENDBRANCH   9  12
ENDBRANCH   1   9
BRANCH   6  13
ATOM     13  O   UNL     1      27.357  23.616  28.009  0.00  0.00    +0.000 OA
BRANCH  13  14
ATOM     14  C   UNL     1      28.052  23.203  29.010  0.00  0.00    +0.000 A 
ATOM     15  C   UNL     1      29.470  23.213  28.832  0.00  0.00    +0.000 A 
ATOM     16  C   UNL     1      30.340  22.812  29.785  0.00  0.00    +0.000 A 
ATOM     17  C   UNL     1      29.809  22.377  30.977  0.00  0.00    +0.000 A 
ATOM     18  C   UNL     1      28.462  22.349  31.195  0.00  0.00    +0.000 A 
ATOM     19  C   UNL     1      27.584  22.756  30.225  0.00  0.00    +0.000 A 
ATOM     20  N   UNL     1      26.163  22.707  30.507  0.00  0.00    +0.000 NA
ENDBRANCH  13  14
ENDBRANCH   6  13
TORSDOF 4
ENDMDL
