MODEL 1
REMARK VINA RESULT:      -7.4      0.000      0.000
REMARK  Name = 
REMARK  1 active torsions:
REMARK  status: ('A' for Active; 'I' for Inactive)
REMARK    1  A    between atoms: C_5  and  N_6
REMARK                            x       y       z     vdW  Elec       q    Type
REMARK                         _______ _______ _______ _____ _____    ______ ____
ROOT
ATOM      1  N   UNL     1      33.507   0.707  34.924  0.00  0.00    +0.000 NA
ATOM      2  C   UNL     1      33.815   1.149  36.256  0.00  0.00    +0.000 A 
ATOM      3  N   UNL     1      33.826   0.273  37.271  0.00  0.00    +0.000 NA
ATOM      4  C   UNL     1      34.094   0.574  38.524  0.00  0.00    +0.000 A 
ATOM      5  N   UNL     1      34.379   1.873  38.786  0.00  0.00    +0.000 NA
ATOM      6  C   UNL     1      34.381   2.804  37.789  0.00  0.00    +0.000 A 
ATOM      7  S   UNL     1      34.684   4.481  37.744  0.00  0.00    +0.000 S 
ATOM      8  C   UNL     1      34.454   4.763  36.082  0.00  0.00    +0.000 A 
ATOM      9  C   UNL     1      34.142   3.523  35.599  0.00  0.00    +0.000 A 
ATOM     10  C   UNL     1      34.105   2.503  36.486  0.00  0.00    +0.000 A 
ATOM     11  C   UNL     1      33.892   3.544  34.098  0.00  0.00    +0.000 C 
ATOM     12  C   UNL     1      32.811   4.576  33.841  0.00  0.00    +0.000 C 
ATOM     13  C   UNL     1      33.158   5.924  34.413  0.00  0.00    +0.000 C 
ATOM     14  C   UNL     1      34.504   5.922  35.120  0.00  0.00    +0.000 C 
ENDROOT
BRANCH   1  19
ATOM     15  O   UNL     1      32.291  -4.661  33.917  0.00  0.00    +0.000 OA
ATOM     16  C   UNL     1      32.612  -3.325  34.151  0.00  0.00    +0.000 A 
ATOM     17  C   UNL     1      31.886  -2.603  35.083  0.00  0.00    +0.000 A 
ATOM     18  C   UNL     1      32.187  -1.284  35.328  0.00  0.00    +0.000 A 
ATOM     19  C   UNL     1      33.209  -0.660  34.657  0.00  0.00    +0.000 A 
ATOM     20  C   UNL     1      33.934  -1.368  33.733  0.00  0.00    +0.000 A 
ATOM     21  C   UNL     1      33.635  -2.683  33.488  0.00  0.00    +0.000 A 
ENDBRANCH   1  19
TORSDOF 1
ENDMDL
MODEL 2
REMARK VINA RESULT:      -7.2      3.576      6.618
REMARK  Name = 
REMARK  1 active torsions:
REMARK  status: ('A' for Active; 'I' for Inactive)
REMARK    1  A    between atoms: C_5  and  N_6
REMARK                            x       y       z     vdW  Elec       q    Type
REMARK                         _______ _______ _______ _____ _____    ______ ____
ROOT
ATOM      1  N   UNL     1      34.271   3.439  35.532  0.00  0.00    +0.000 NA
ATOM      2  C   UNL     1      34.261   2.637  36.724  0.00  0.00    +0.000 A 
ATOM      3  N   UNL     1      34.634   3.169  37.897  0.00  0.00    +0.000 NA
ATOM      4  C   UNL     1      34.659   2.521  39.043  0.00  0.00    +0.000 A 
ATOM      5  N   UNL     1      34.276   1.222  39.013  0.00  0.00    +0.000 NA
ATOM      6  C   UNL     1      33.888   0.634  37.846  0.00  0.00    +0.000 A 
ATOM      7  S   UNL     1      33.356  -0.933  37.435  0.00  0.00    +0.000 S 
ATOM      8  C   UNL     1      33.107  -0.718  35.767  0.00  0.00    +0.000 A 
ATOM      9  C   UNL     1      33.451   0.591  35.570  0.00  0.00    +0.000 A 
ATOM     10  C   UNL     1      33.857   1.295  36.651  0.00  0.00    +0.000 A 
ATOM     11  C   UNL     1      33.299   1.005  34.113  0.00  0.00    +0.000 C 
ATOM     12  C   UNL     1      34.123   0.039  33.287  0.00  0.00    +0.000 C 
ATOM     13  C   UNL     1      33.755  -1.397  33.546  0.00  0.00    +0.000 C 
ATOM     14  C   UNL     1      32.651  -1.531  34.583  0.00  0.00    +0.000 C 
ENDROOT
BRANCH   1  19
ATOM     15  O   UNL     1      35.915   8.785  35.679  0.00  0.00    +0.000 OA
ATOM     16  C   UNL     1      35.483   7.460  35.647  0.00  0.00    +0.000 A 
ATOM     17  C   UNL     1      36.399   6.450  35.405  0.00  0.00    +0.000 A 
ATOM     18  C   UNL     1      35.991   5.138  35.369  0.00  0.00    +0.000 A 
ATOM     19  C   UNL     1      34.675   4.804  35.572  0.00  0.00    +0.000 A 
ATOM     20  C   UNL     1      33.762   5.799  35.813  0.00  0.00    +0.000 A 
ATOM     21  C   UNL     1      34.167   7.107  35.849  0.00  0.00    +0.000 A 
ENDBRANCH   1  19
TORSDOF 1
ENDMDL
MODEL 3
REMARK VINA RESULT:      -7.0     17.472     19.000
REMARK  Name = 
REMARK  1 active torsions:
REMARK  status: ('A' for Active; 'I' for Inactive)
REMARK    1  A    between atoms: C_5  and  N_6
REMARK                            x       y       z     vdW  Elec       q    Type
REMARK                         _______ _______ _______ _____ _____    ______ ____
ROOT
ATOM      1  N   UNL     1      17.121   9.997  38.144  0.00  0.00    +0.000 NA
ATOM      2  C   UNL     1      18.386  10.086  38.819  0.00  0.00    +0.000 A 
ATOM      3  N   UNL     1      19.501  10.362  38.127  0.00  0.00    +0.000 NA
ATOM      4  C   UNL     1      20.705  10.466  38.648  0.00  0.00    +0.000 A 
ATOM      5  N   UNL     1      20.803  10.275  39.987  0.00  0.00    +0.000 NA
ATOM      6  C   UNL     1      19.700   9.992  40.736  0.00  0.00    +0.000 A 
ATOM      7  S   UNL     1      19.447   9.699  42.396  0.00  0.00    +0.000 S 
ATOM      8  C   UNL     1      17.765   9.445  42.383  0.00  0.00    +0.000 A 
ATOM      9  C   UNL     1      17.440   9.598  41.064  0.00  0.00    +0.000 A 
ATOM     10  C   UNL     1      18.446   9.882  40.206  0.00  0.00    +0.000 A 
ATOM     11  C   UNL     1      15.950   9.408  40.821  0.00  0.00    +0.000 C 
ATOM     12  C   UNL     1      15.576   8.048  41.375  0.00  0.00    +0.000 C 
ATOM     13  C   UNL     1      15.976   7.888  42.817  0.00  0.00    +0.000 C 
ATOM     14  C   UNL     1      16.668   9.126  43.365  0.00  0.00    +0.000 C 
ENDROOT
BRANCH   1  19
ATOM     15  O   UNL     1      16.718  10.839  32.628  0.00  0.00    +0.000 OA
ATOM     16  C   UNL     1      16.830  10.609  33.997  0.00  0.00    +0.000 A 
ATOM     17  C   UNL     1      16.278  11.514  34.889  0.00  0.00    +0.000 A 
ATOM     18  C   UNL     1      16.379  11.304  36.243  0.00  0.00    +0.000 A 
ATOM     19  C   UNL     1      17.026  10.198  36.737  0.00  0.00    +0.000 A 
ATOM     20  C   UNL     1      17.575   9.297  35.862  0.00  0.00    +0.000 A 
ATOM     21  C   UNL     1      17.475   9.505  34.511  0.00  0.00    +0.000 A 
ENDBRANCH   1  19
TORSDOF 1
ENDMDL
MODEL 4
REMARK VINA RESULT:      -6.9     15.910     17.904
REMARK  Name = 
REMARK  1 active torsions:
REMARK  status: ('A' for Active; 'I' for Inactive)
REMARK    1  A    between atoms: C_5  and  N_6
REMARK                            x       y       z     vdW  Elec       q    Type
REMARK                         _______ _______ _______ _____ _____    ______ ____
ROOT
ATOM      1  N   UNL     1      19.547  11.480  37.662  0.00  0.00    +0.000 NA
ATOM      2  C   UNL     1      20.301  12.573  38.212  0.00  0.00    +0.000 A 
ATOM      3  N   UNL     1      19.670  13.662  38.674  0.00  0.00    +0.000 NA
ATOM      4  C   UNL     1      20.265  14.714  39.196  0.00  0.00    +0.000 A 
ATOM      5  N   UNL     1      21.618  14.672  39.262  0.00  0.00    +0.000 NA
ATOM      6  C   UNL     1      22.308  13.588  38.806  0.00  0.00    +0.000 A 
ATOM      7  S   UNL     1      23.964  13.192  38.730  0.00  0.00    +0.000 S 
ATOM      8  C   UNL     1      23.853  11.653  38.015  0.00  0.00    +0.000 A 
ATOM      9  C   UNL     1      22.506  11.485  37.852  0.00  0.00    +0.000 A 
ATOM     10  C   UNL     1      21.701  12.491  38.264  0.00  0.00    +0.000 A 
ATOM     11  C   UNL     1      22.173  10.144  37.214  0.00  0.00    +0.000 C 
ATOM     12  C   UNL     1      22.948  10.064  35.914  0.00  0.00    +0.000 C 
ATOM     13  C   UNL     1      24.423  10.288  36.110  0.00  0.00    +0.000 C 
ATOM     14  C   UNL     1      24.777  10.551  37.565  0.00  0.00    +0.000 C 
ENDROOT
BRANCH   1  19
ATOM     15  O   UNL     1      13.966  11.734  37.366  0.00  0.00    +0.000 OA
ATOM     16  C   UNL     1      15.354  11.651  37.454  0.00  0.00    +0.000 A 
ATOM     17  C   UNL     1      16.136  12.590  36.802  0.00  0.00    +0.000 A 
ATOM     18  C   UNL     1      17.507  12.525  36.877  0.00  0.00    +0.000 A 
ATOM     19  C   UNL     1      18.126  11.532  37.596  0.00  0.00    +0.000 A 
ATOM     20  C   UNL     1      17.359  10.599  38.245  0.00  0.00    +0.000 A 
ATOM     21  C   UNL     1      15.992  10.662  38.171  0.00  0.00    +0.000 A 
ENDBRANCH   1  19
TORSDOF 1
ENDMDL
MODEL 5
REMARK VINA RESULT:      -6.8     21.214     23.408
REMARK  Name = 
REMARK  1 active torsions:
REMARK  status: ('A' for Active; 'I' for Inactive)
REMARK    1  A    between atoms: C_5  and  N_6
REMARK                            x       y       z     vdW  Elec       q    Type
REMARK                         _______ _______ _______ _____ _____    ______ ____
ROOT
ATOM      1  N   UNL     1      31.262  22.709  27.497  0.00  0.00    +0.000 NA
ATOM      2  C   UNL     1      30.331  22.805  28.588  0.00  0.00    +0.000 A 
ATOM      3  N   UNL     1      29.100  23.295  28.382  0.00  0.00    +0.000 NA
ATOM      4  C   UNL     1      28.175  23.424  29.311  0.00  0.00    +0.000 A 
ATOM      5  N   UNL     1      28.514  23.025  30.561  0.00  0.00    +0.000 NA
ATOM      6  C   UNL     1      29.753  22.519  30.823  0.00  0.00    +0.000 A 
ATOM      7  S   UNL     1      30.513  21.933  32.231  0.00  0.00    +0.000 S 
ATOM      8  C   UNL     1      32.032  21.527  31.583  0.00  0.00    +0.000 A 
ATOM      9  C   UNL     1      31.905  21.864  30.265  0.00  0.00    +0.000 A 
ATOM     10  C   UNL     1      30.720  22.381  29.868  0.00  0.00    +0.000 A 
ATOM     11  C   UNL     1      33.177  21.578  29.480  0.00  0.00    +0.000 C 
ATOM     12  C   UNL     1      34.307  22.308  30.179  0.00  0.00    +0.000 C 
ATOM     13  C   UNL     1      34.405  21.950  31.637  0.00  0.00    +0.000 C 
ATOM     14  C   UNL     1      33.341  20.950  32.059  0.00  0.00    +0.000 C 
ENDROOT
BRANCH   1  19
ATOM     15  O   UNL     1      29.805  24.312  22.338  0.00  0.00    +0.000 OA
ATOM     16  C   UNL     1      30.179  23.933  23.626  0.00  0.00    +0.000 A 
ATOM     17  C   UNL     1      29.796  22.694  24.112  0.00  0.00    +0.000 A 
ATOM     18  C   UNL     1      30.156  22.304  25.379  0.00  0.00    +0.000 A 
ATOM     19  C   UNL     1      30.898  23.130  26.186  0.00  0.00    +0.000 A 
ATOM     20  C   UNL     1      31.282  24.359  25.713  0.00  0.00    +0.000 A 
ATOM     21  C   UNL     1      30.924  24.750  24.449  0.00  0.00    +0.000 A 
ENDBRANCH   1  19
TORSDOF 1
ENDMDL
MODEL 6
REMARK VINA RESULT:      -6.7     23.622     26.406
REMARK  Name = 
REMARK  1 active torsions:
REMARK  status: ('A' for Active; 'I' for Inactive)
REMARK    1  A    between atoms: C_5  and  N_6
REMARK                            x       y       z     vdW  Elec       q    Type
REMARK                         _______ _______ _______ _____ _____    ______ ____
ROOT
ATOM      1  N   UNL     1      27.150  25.083  25.547  0.00  0.00    +0.000 NA
ATOM      2  C   UNL     1      27.353  24.123  26.598  0.00  0.00    +0.000 A 
ATOM      3  N   UNL     1      28.150  23.063  26.397  0.00  0.00    +0.000 NA
ATOM      4  C   UNL     1      28.401  22.130  27.291  0.00  0.00    +0.000 A 
ATOM      5  N   UNL     1      27.800  22.271  28.498  0.00  0.00    +0.000 NA
ATOM      6  C   UNL     1      26.981  23.330  28.753  0.00  0.00    +0.000 A 
ATOM      7  S   UNL     1      26.080  23.822  30.113  0.00  0.00    +0.000 S 
ATOM      8  C   UNL     1      25.386  25.245  29.491  0.00  0.00    +0.000 A 
ATOM      9  C   UNL     1      25.883  25.300  28.219  0.00  0.00    +0.000 A 
ATOM     10  C   UNL     1      26.713  24.304  27.834  0.00  0.00    +0.000 A 
ATOM     11  C   UNL     1      25.379  26.522  27.464  0.00  0.00    +0.000 C 
ATOM     12  C   UNL     1      23.865  26.484  27.515  0.00  0.00    +0.000 C 
ATOM     13  C   UNL     1      23.340  26.386  28.921  0.00  0.00    +0.000 C 
ATOM     14  C   UNL     1      24.457  26.339  29.952  0.00  0.00    +0.000 C 
ENDROOT
BRANCH   1  19
ATOM     15  O   UNL     1      29.691  24.508  20.596  0.00  0.00    +0.000 OA
ATOM     16  C   UNL     1      29.039  24.638  21.821  0.00  0.00    +0.000 A 
ATOM     17  C   UNL     1      29.640  25.358  22.840  0.00  0.00    +0.000 A 
ATOM     18  C   UNL     1      29.013  25.497  24.055  0.00  0.00    +0.000 A 
ATOM     19  C   UNL     1      27.785  24.928  24.282  0.00  0.00    +0.000 A 
ATOM     20  C   UNL     1      27.183  24.214  23.278  0.00  0.00    +0.000 A 
ATOM     21  C   UNL     1      27.806  24.074  22.066  0.00  0.00    +0.000 A 
ENDBRANCH   1  19
TORSDOF 1
ENDMDL
MODEL 7
REMARK VINA RESULT:      -6.6     22.048     24.394
REMARK  Name = 
REMARK  1 active torsions:
REMARK  status: ('A' for Active; 'I' for Inactive)
REMARK    1  A    between atoms: C_5  and  N_6
REMARK                            x       y       z     vdW  Elec       q    Type
REMARK                         _______ _______ _______ _____ _____    ______ ____
ROOT
ATOM      1  N   UNL     1      30.431  22.849  27.742  0.00  0.00    +0.000 NA
ATOM      2  C   UNL     1      30.607  23.149  26.348  0.00  0.00    +0.000 A 
ATOM      3  N   UNL     1      31.835  23.360  25.854  0.00  0.00    +0.000 NA
ATOM      4  C   UNL     1      32.104  23.641  24.596  0.00  0.00    +0.000 A 
ATOM      5  N   UNL     1      31.044  23.717  23.754  0.00  0.00    +0.000 NA
ATOM      6  C   UNL     1      29.775  23.511  24.206  0.00  0.00    +0.000 A 
ATOM      7  S   UNL     1      28.242  23.525  23.461  0.00  0.00    +0.000 S 
ATOM      8  C   UNL     1      27.270  23.162  24.809  0.00  0.00    +0.000 A 
ATOM      9  C   UNL     1      28.181  23.038  25.821  0.00  0.00    +0.000 A 
ATOM     10  C   UNL     1      29.484  23.219  25.508  0.00  0.00    +0.000 A 
ATOM     11  C   UNL     1      27.514  22.707  27.148  0.00  0.00    +0.000 C 
ATOM     12  C   UNL     1      26.476  23.780  27.406  0.00  0.00    +0.000 C 
ATOM     13  C   UNL     1      25.506  23.926  26.264  0.00  0.00    +0.000 C 
ATOM     14  C   UNL     1      25.809  22.967  25.124  0.00  0.00    +0.000 C 
ENDROOT
BRANCH   1  19
ATOM     15  O   UNL     1      34.829  22.482  31.181  0.00  0.00    +0.000 OA
ATOM     16  C   UNL     1      33.732  22.597  30.330  0.00  0.00    +0.000 A 
ATOM     17  C   UNL     1      33.265  21.476  29.664  0.00  0.00    +0.000 A 
ATOM     18  C   UNL     1      32.184  21.570  28.820  0.00  0.00    +0.000 A 
ATOM     19  C   UNL     1      31.549  22.770  28.620  0.00  0.00    +0.000 A 
ATOM     20  C   UNL     1      32.005  23.885  29.276  0.00  0.00    +0.000 A 
ATOM     21  C   UNL     1      33.082  23.793  30.118  0.00  0.00    +0.000 A 
ENDBRANCH   1  19
TORSDOF 1
ENDMDL
MODEL 8
REMARK VINA RESULT:      -6.6     23.919     26.382
REMARK  Name = 
REMARK  1 active torsions:
REMARK  status: ('A' for Active; 'I' for Inactive)
REMARK    1  A    between atoms: C_5  and  N_6
REMARK                            x       y       z     vdW  Elec       q    Type
REMARK                         _______ _______ _______ _____ _____    ______ ____
ROOT
ATOM      1  N   UNL     1      27.825  24.085  25.522  0.00  0.00    +0.000 NA
ATOM      2  C   UNL     1      26.909  25.019  26.116  0.00  0.00    +0.000 A 
ATOM      3  N   UNL     1      26.488  26.086  25.422  0.00  0.00    +0.000 NA
ATOM      4  C   UNL     1      25.652  26.997  25.873  0.00  0.00    +0.000 A 
ATOM      5  N   UNL     1      25.194  26.824  27.136  0.00  0.00    +0.000 NA
ATOM      6  C   UNL     1      25.590  25.756  27.885  0.00  0.00    +0.000 A 
ATOM      7  S   UNL     1      25.232  25.227  29.466  0.00  0.00    +0.000 S 
ATOM      8  C   UNL     1      26.184  23.818  29.513  0.00  0.00    +0.000 A 
ATOM      9  C   UNL     1      26.765  23.797  28.275  0.00  0.00    +0.000 A 
ATOM     10  C   UNL     1      26.456  24.804  27.428  0.00  0.00    +0.000 A 
ATOM     11  C   UNL     1      27.679  22.592  28.097  0.00  0.00    +0.000 C 
ATOM     12  C   UNL     1      28.685  22.624  29.230  0.00  0.00    +0.000 C 
ATOM     13  C   UNL     1      28.025  22.685  30.581  0.00  0.00    +0.000 C 
ATOM     14  C   UNL     1      26.508  22.710  30.482  0.00  0.00    +0.000 C 
ENDROOT
BRANCH   1  19
ATOM     15  O   UNL     1      29.740  24.866  20.324  0.00  0.00    +0.000 OA
ATOM     16  C   UNL     1      29.247  24.656  21.610  0.00  0.00    +0.000 A 
ATOM     17  C   UNL     1      29.792  25.357  22.672  0.00  0.00    +0.000 A 
ATOM     18  C   UNL     1      29.320  25.163  23.948  0.00  0.00    +0.000 A 
ATOM     19  C   UNL     1      28.303  24.274  24.193  0.00  0.00    +0.000 A 
ATOM     20  C   UNL     1      27.757  23.576  23.147  0.00  0.00    +0.000 A 
ATOM     21  C   UNL     1      28.227  23.768  21.874  0.00  0.00    +0.000 A 
ENDBRANCH   1  19
TORSDOF 1
ENDMDL
MODEL 9
REMARK VINA RESULT:      -6.6      5.555      9.194
REMARK  Name = 
REMARK  1 active torsions:
REMARK  status: ('A' for Active; 'I' for Inactive)
REMARK    1  A    between atoms: C_5  and  N_6
REMARK                            x       y       z     vdW  Elec       q    Type
REMARK                         _______ _______ _______ _____ _____    ______ ____
ROOT
ATOM      1  N   UNL     1      33.459  -4.218  32.693  0.00  0.00    +0.000 NA
ATOM      2  C   UNL     1      34.342  -5.297  33.040  0.00  0.00    +0.000 A 
ATOM      3  N   UNL     1      34.989  -5.287  34.214  0.00  0.00    +0.000 NA
ATOM      4  C   UNL     1      35.818  -6.224  34.626  0.00  0.00    +0.000 A 
ATOM      5  N   UNL     1      36.017  -7.267  33.785  0.00  0.00    +0.000 NA
ATOM      6  C   UNL     1      35.383  -7.325  32.579  0.00  0.00    +0.000 A 
ATOM      7  S   UNL     1      35.388  -8.450  31.298  0.00  0.00    +0.000 S 
ATOM      8  C   UNL     1      34.305  -7.676  30.240  0.00  0.00    +0.000 A 
ATOM      9  C   UNL     1      33.961  -6.543  30.924  0.00  0.00    +0.000 A 
ATOM     10  C   UNL     1      34.522  -6.360  32.141  0.00  0.00    +0.000 A 
ATOM     11  C   UNL     1      32.977  -5.684  30.143  0.00  0.00    +0.000 C 
ATOM     12  C   UNL     1      33.605  -5.401  28.794  0.00  0.00    +0.000 C 
ATOM     13  C   UNL     1      34.009  -6.660  28.074  0.00  0.00    +0.000 C 
ATOM     14  C   UNL     1      33.698  -7.910  28.880  0.00  0.00    +0.000 C 
ENDROOT
BRANCH   1  19
ATOM     15  O   UNL     1      32.698   0.110  36.156  0.00  0.00    +0.000 OA
ATOM     16  C   UNL     1      32.872  -0.981  35.306  0.00  0.00    +0.000 A 
ATOM     17  C   UNL     1      33.764  -0.888  34.251  0.00  0.00    +0.000 A 
ATOM     18  C   UNL     1      33.948  -1.953  33.402  0.00  0.00    +0.000 A 
ATOM     19  C   UNL     1      33.255  -3.124  33.582  0.00  0.00    +0.000 A 
ATOM     20  C   UNL     1      32.369  -3.224  34.624  0.00  0.00    +0.000 A 
ATOM     21  C   UNL     1      32.184  -2.163  35.472  0.00  0.00    +0.000 A 
ENDBRANCH   1  19
TORSDOF 1
ENDMDL
MODEL 10
REMARK VINA RESULT:      -6.3      4.643      6.506
REMARK  Name = 
REMARK  1 active torsions:
REMARK  status: ('A' for Active; 'I' for Inactive)
REMARK    1  A    between atoms: C_5  and  N_6
REMARK                            x       y       z     vdW  Elec       q    Type
REMARK                         _______ _______ _______ _____ _____    ______ ____
ROOT
ATOM      1  N   UNL     1      33.769  -4.319  32.517  0.00  0.00    +0.000 NA
ATOM      2  C   UNL     1      34.232  -4.833  33.776  0.00  0.00    +0.000 A 
ATOM      3  N   UNL     1      34.455  -6.146  33.927  0.00  0.00    +0.000 NA
ATOM      4  C   UNL     1      34.878  -6.716  35.036  0.00  0.00    +0.000 A 
ATOM      5  N   UNL     1      35.099  -5.895  36.092  0.00  0.00    +0.000 NA
ATOM      6  C   UNL     1      34.887  -4.552  35.991  0.00  0.00    +0.000 A 
ATOM      7  S   UNL     1      35.052  -3.248  37.076  0.00  0.00    +0.000 S 
ATOM      8  C   UNL     1      34.563  -1.974  36.061  0.00  0.00    +0.000 A 
ATOM      9  C   UNL     1      34.280  -2.608  34.884  0.00  0.00    +0.000 A 
ATOM     10  C   UNL     1      34.448  -3.950  34.846  0.00  0.00    +0.000 A 
ATOM     11  C   UNL     1      33.815  -1.634  33.811  0.00  0.00    +0.000 C 
ATOM     12  C   UNL     1      32.633  -0.875  34.381  0.00  0.00    +0.000 C 
ATOM     13  C   UNL     1      32.956  -0.215  35.694  0.00  0.00    +0.000 C 
ATOM     14  C   UNL     1      34.386  -0.479  36.137  0.00  0.00    +0.000 C 
ENDROOT
BRANCH   1  19
ATOM     15  O   UNL     1      32.814  -7.745  28.199  0.00  0.00    +0.000 OA
ATOM     16  C   UNL     1      33.074  -6.887  29.265  0.00  0.00    +0.000 A 
ATOM     17  C   UNL     1      32.110  -6.703  30.243  0.00  0.00    +0.000 A 
ATOM     18  C   UNL     1      32.348  -5.860  31.302  0.00  0.00    +0.000 A 
ATOM     19  C   UNL     1      33.540  -5.188  31.412  0.00  0.00    +0.000 A 
ATOM     20  C   UNL     1      34.499  -5.365  30.449  0.00  0.00    +0.000 A 
ATOM     21  C   UNL     1      34.264  -6.204  29.392  0.00  0.00    +0.000 A 
ENDBRANCH   1  19
TORSDOF 1
ENDMDL
