MODEL 1
REMARK VINA RESULT:      -8.1      0.000      0.000
REMARK  Name = 
REMARK  2 active torsions:
REMARK  status: ('A' for Active; 'I' for Inactive)
REMARK    1  A    between atoms: C_2  and  C_5
REMARK    2  A    between atoms: N_9  and  C_10
REMARK                            x       y       z     vdW  Elec       q    Type
REMARK                         _______ _______ _______ _____ _____    ______ ____
ROOT
ATOM      1  C   UNL     1      14.288  12.257  35.568  0.00  0.00    +0.000 A 
ATOM      2  C   UNL     1      13.633  13.474  35.421  0.00  0.00    +0.000 A 
ATOM      3  C   UNL     1      13.548  14.123  34.202  0.00  0.00    +0.000 A 
ATOM      4  C   UNL     1      14.124  13.556  33.081  0.00  0.00    +0.000 A 
ATOM      5  C   UNL     1      14.090  14.188  31.843  0.00  0.00    +0.000 A 
ATOM      6  C   UNL     1      14.691  13.633  30.728  0.00  0.00    +0.000 A 
ATOM      7  C   UNL     1      15.350  12.415  30.859  0.00  0.00    +0.000 A 
ATOM      8  C   UNL     1      15.358  11.832  32.112  0.00  0.00    +0.000 A 
ATOM      9  O   UNL     1      16.033  10.605  32.207  0.00  0.00    +0.000 OA
ATOM     10  C   UNL     1      14.764  12.353  33.243  0.00  0.00    +0.000 A 
ATOM     11  N   UNL     1      14.833  11.734  34.454  0.00  0.00    +0.000 NA
ENDROOT
BRANCH   1  16
ATOM     12  C   UNL     1      17.566  10.445  38.329  0.00  0.00    +0.000 A 
ATOM     13  C   UNL     1      18.359  10.832  37.260  0.00  0.00    +0.000 A 
ATOM     14  S   UNL     1      17.210  11.575  36.221  0.00  0.00    +0.000 S 
ATOM     15  C   UNL     1      15.803  11.336  37.220  0.00  0.00    +0.000 A 
ATOM     16  N   UNL     1      14.430  11.661  36.879  0.00  0.00    +0.000 NA
ATOM     17  N   UNL     1      16.302  10.726  38.253  0.00  0.00    +0.000 NA
BRANCH  12  19
ATOM     18  C   UNL     1      17.165   9.516  40.519  0.00  0.00    +0.000 C 
ATOM     19  C   UNL     1      18.233   9.679  39.462  0.00  0.00    +0.000 C 
ATOM     20  C   UNL     1      18.610   8.315  38.966  0.00  0.00    +0.000 C 
ATOM     21  C   UNL     1      19.435  10.404  39.988  0.00  0.00    +0.000 C 
ENDBRANCH  12  19
ENDBRANCH   1  16
TORSDOF 2
ENDMDL
MODEL 2
REMARK VINA RESULT:      -7.9      2.295      7.443
REMARK  Name = 
REMARK  2 active torsions:
REMARK  status: ('A' for Active; 'I' for Inactive)
REMARK    1  A    between atoms: C_2  and  C_5
REMARK    2  A    between atoms: N_9  and  C_10
REMARK                            x       y       z     vdW  Elec       q    Type
REMARK                         _______ _______ _______ _____ _____    ______ ____
ROOT
ATOM      1  C   UNL     1      16.562  11.919  37.069  0.00  0.00    +0.000 A 
ATOM      2  C   UNL     1      16.355  10.640  37.572  0.00  0.00    +0.000 A 
ATOM      3  C   UNL     1      17.311   9.980  38.324  0.00  0.00    +0.000 A 
ATOM      4  C   UNL     1      18.516  10.599  38.598  0.00  0.00    +0.000 A 
ATOM      5  C   UNL     1      19.517   9.961  39.323  0.00  0.00    +0.000 A 
ATOM      6  C   UNL     1      20.732  10.570  39.573  0.00  0.00    +0.000 A 
ATOM      7  C   UNL     1      20.955  11.851  39.078  0.00  0.00    +0.000 A 
ATOM      8  C   UNL     1      19.929  12.437  38.360  0.00  0.00    +0.000 A 
ATOM      9  O   UNL     1      20.189  13.729  37.874  0.00  0.00    +0.000 OA
ATOM     10  C   UNL     1      18.702  11.862  38.098  0.00  0.00    +0.000 A 
ATOM     11  N   UNL     1      17.745  12.491  37.360  0.00  0.00    +0.000 NA
ENDROOT
BRANCH   1  16
ATOM     12  C   UNL     1      15.395  12.168  32.572  0.00  0.00    +0.000 A 
ATOM     13  C   UNL     1      16.463  11.289  32.480  0.00  0.00    +0.000 A 
ATOM     14  S   UNL     1      16.905  11.101  34.130  0.00  0.00    +0.000 S 
ATOM     15  C   UNL     1      15.703  12.158  34.817  0.00  0.00    +0.000 A 
ATOM     16  N   UNL     1      15.571  12.533  36.212  0.00  0.00    +0.000 NA
ATOM     17  N   UNL     1      15.061  12.563  33.761  0.00  0.00    +0.000 NA
BRANCH  12  19
ATOM     18  C   UNL     1      15.856  13.329  30.508  0.00  0.00    +0.000 C 
ATOM     19  C   UNL     1      14.752  12.635  31.274  0.00  0.00    +0.000 C 
ATOM     20  C   UNL     1      14.323  11.433  30.488  0.00  0.00    +0.000 C 
ATOM     21  C   UNL     1      13.590  13.547  31.529  0.00  0.00    +0.000 C 
ENDBRANCH  12  19
ENDBRANCH   1  16
TORSDOF 2
ENDMDL
MODEL 3
REMARK VINA RESULT:      -7.8      2.269      7.647
REMARK  Name = 
REMARK  2 active torsions:
REMARK  status: ('A' for Active; 'I' for Inactive)
REMARK    1  A    between atoms: C_2  and  C_5
REMARK    2  A    between atoms: N_9  and  C_10
REMARK                            x       y       z     vdW  Elec       q    Type
REMARK                         _______ _______ _______ _____ _____    ______ ____
ROOT
ATOM      1  C   UNL     1      16.333  11.520  37.214  0.00  0.00    +0.000 A 
ATOM      2  C   UNL     1      17.710  11.495  37.025  0.00  0.00    +0.000 A 
ATOM      3  C   UNL     1      18.562  10.834  37.893  0.00  0.00    +0.000 A 
ATOM      4  C   UNL     1      18.044  10.169  38.988  0.00  0.00    +0.000 A 
ATOM      5  C   UNL     1      18.864   9.520  39.904  0.00  0.00    +0.000 A 
ATOM      6  C   UNL     1      18.348   8.878  41.014  0.00  0.00    +0.000 A 
ATOM      7  C   UNL     1      16.972   8.893  41.217  0.00  0.00    +0.000 A 
ATOM      8  C   UNL     1      16.203   9.557  40.280  0.00  0.00    +0.000 A 
ATOM      9  O   UNL     1      14.819   9.553  40.517  0.00  0.00    +0.000 OA
ATOM     10  C   UNL     1      16.683  10.201  39.158  0.00  0.00    +0.000 A 
ATOM     11  N   UNL     1      15.866  10.858  38.288  0.00  0.00    +0.000 NA
ENDROOT
BRANCH   1  16
ATOM     12  C   UNL     1      15.365  11.976  32.686  0.00  0.00    +0.000 A 
ATOM     13  C   UNL     1      16.265  10.923  32.620  0.00  0.00    +0.000 A 
ATOM     14  S   UNL     1      16.616  10.657  34.281  0.00  0.00    +0.000 S 
ATOM     15  C   UNL     1      15.597  11.908  34.939  0.00  0.00    +0.000 A 
ATOM     16  N   UNL     1      15.492  12.299  36.332  0.00  0.00    +0.000 NA
ATOM     17  N   UNL     1      15.069  12.422  33.867  0.00  0.00    +0.000 NA
BRANCH  12  19
ATOM     18  C   UNL     1      16.064  13.166  30.708  0.00  0.00    +0.000 C 
ATOM     19  C   UNL     1      14.854  12.550  31.373  0.00  0.00    +0.000 C 
ATOM     20  C   UNL     1      14.369  11.424  30.509  0.00  0.00    +0.000 C 
ATOM     21  C   UNL     1      13.765  13.556  31.596  0.00  0.00    +0.000 C 
ENDBRANCH  12  19
ENDBRANCH   1  16
TORSDOF 2
ENDMDL
MODEL 4
REMARK VINA RESULT:      -7.7      1.495      2.284
REMARK  Name = 
REMARK  2 active torsions:
REMARK  status: ('A' for Active; 'I' for Inactive)
REMARK    1  A    between atoms: C_2  and  C_5
REMARK    2  A    between atoms: N_9  and  C_10
REMARK                            x       y       z     vdW  Elec       q    Type
REMARK                         _______ _______ _______ _____ _____    ______ ____
ROOT
ATOM      1  C   UNL     1      15.349  11.577  35.161  0.00  0.00    +0.000 A 
ATOM      2  C   UNL     1      16.080  10.724  34.342  0.00  0.00    +0.000 A 
ATOM      3  C   UNL     1      16.132  10.886  32.968  0.00  0.00    +0.000 A 
ATOM      4  C   UNL     1      15.443  11.926  32.374  0.00  0.00    +0.000 A 
ATOM      5  C   UNL     1      15.440  12.107  30.996  0.00  0.00    +0.000 A 
ATOM      6  C   UNL     1      14.728  13.131  30.399  0.00  0.00    +0.000 A 
ATOM      7  C   UNL     1      13.992  13.993  31.205  0.00  0.00    +0.000 A 
ATOM      8  C   UNL     1      14.024  13.765  32.568  0.00  0.00    +0.000 A 
ATOM      9  O   UNL     1      13.269  14.654  33.350  0.00  0.00    +0.000 OA
ATOM     10  C   UNL     1      14.729  12.759  33.197  0.00  0.00    +0.000 A 
ATOM     11  N   UNL     1      14.695  12.579  34.547  0.00  0.00    +0.000 NA
ENDROOT
BRANCH   1  16
ATOM     12  C   UNL     1      17.882   9.834  38.653  0.00  0.00    +0.000 A 
ATOM     13  C   UNL     1      18.817   9.751  37.633  0.00  0.00    +0.000 A 
ATOM     14  S   UNL     1      17.960  10.446  36.315  0.00  0.00    +0.000 S 
ATOM     15  C   UNL     1      16.473  10.787  37.157  0.00  0.00    +0.000 A 
ATOM     16  N   UNL     1      15.250  11.315  36.581  0.00  0.00    +0.000 NA
ATOM     17  N   UNL     1      16.735  10.362  38.357  0.00  0.00    +0.000 NA
BRANCH  12  19
ATOM     18  C   UNL     1      18.706   7.833  39.718  0.00  0.00    +0.000 C 
ATOM     19  C   UNL     1      18.261   9.249  40.006  0.00  0.00    +0.000 C 
ATOM     20  C   UNL     1      19.436  10.006  40.549  0.00  0.00    +0.000 C 
ATOM     21  C   UNL     1      17.112   9.289  40.967  0.00  0.00    +0.000 C 
ENDBRANCH  12  19
ENDBRANCH   1  16
TORSDOF 2
ENDMDL
MODEL 5
REMARK VINA RESULT:      -7.7     21.399     24.265
REMARK  Name = 
REMARK  2 active torsions:
REMARK  status: ('A' for Active; 'I' for Inactive)
REMARK    1  A    between atoms: C_2  and  C_5
REMARK    2  A    between atoms: N_9  and  C_10
REMARK                            x       y       z     vdW  Elec       q    Type
REMARK                         _______ _______ _______ _____ _____    ______ ____
ROOT
ATOM      1  C   UNL     1      28.945  23.907  22.250  0.00  0.00    +0.000 A 
ATOM      2  C   UNL     1      27.568  23.841  22.432  0.00  0.00    +0.000 A 
ATOM      3  C   UNL     1      27.001  23.436  23.628  0.00  0.00    +0.000 A 
ATOM      4  C   UNL     1      27.814  23.084  24.688  0.00  0.00    +0.000 A 
ATOM      5  C   UNL     1      27.288  22.640  25.897  0.00  0.00    +0.000 A 
ATOM      6  C   UNL     1      28.102  22.261  26.948  0.00  0.00    +0.000 A 
ATOM      7  C   UNL     1      29.481  22.322  26.782  0.00  0.00    +0.000 A 
ATOM      8  C   UNL     1      29.952  22.764  25.560  0.00  0.00    +0.000 A 
ATOM      9  O   UNL     1      31.349  22.811  25.427  0.00  0.00    +0.000 OA
ATOM     10  C   UNL     1      29.170  23.157  24.493  0.00  0.00    +0.000 A 
ATOM     11  N   UNL     1      29.703  23.560  23.306  0.00  0.00    +0.000 NA
ENDROOT
BRANCH   1  16
ATOM     12  C   UNL     1      29.850  27.644  19.631  0.00  0.00    +0.000 A 
ATOM     13  C   UNL     1      29.376  28.276  20.770  0.00  0.00    +0.000 A 
ATOM     14  S   UNL     1      29.082  26.943  21.814  0.00  0.00    +0.000 S 
ATOM     15  C   UNL     1      29.578  25.678  20.723  0.00  0.00    +0.000 A 
ATOM     16  N   UNL     1      29.492  24.248  20.955  0.00  0.00    +0.000 NA
ATOM     17  N   UNL     1      29.931  26.350  19.668  0.00  0.00    +0.000 NA
BRANCH  12  19
ATOM     18  C   UNL     1      31.310  27.809  17.718  0.00  0.00    +0.000 C 
ATOM     19  C   UNL     1      30.174  28.514  18.425  0.00  0.00    +0.000 C 
ATOM     20  C   UNL     1      28.989  28.527  17.507  0.00  0.00    +0.000 C 
ATOM     21  C   UNL     1      30.548  29.907  18.832  0.00  0.00    +0.000 C 
ENDBRANCH  12  19
ENDBRANCH   1  16
TORSDOF 2
ENDMDL
MODEL 6
REMARK VINA RESULT:      -7.2      3.583      5.682
REMARK  Name = 
REMARK  2 active torsions:
REMARK  status: ('A' for Active; 'I' for Inactive)
REMARK    1  A    between atoms: C_2  and  C_5
REMARK    2  A    between atoms: N_9  and  C_10
REMARK                            x       y       z     vdW  Elec       q    Type
REMARK                         _______ _______ _______ _____ _____    ______ ____
ROOT
ATOM      1  C   UNL     1      18.435   9.975  37.071  0.00  0.00    +0.000 A 
ATOM      2  C   UNL     1      17.922   9.781  38.349  0.00  0.00    +0.000 A 
ATOM      3  C   UNL     1      16.654  10.206  38.706  0.00  0.00    +0.000 A 
ATOM      4  C   UNL     1      15.856  10.842  37.775  0.00  0.00    +0.000 A 
ATOM      5  C   UNL     1      14.588  11.313  38.099  0.00  0.00    +0.000 A 
ATOM      6  C   UNL     1      13.801  11.974  37.175  0.00  0.00    +0.000 A 
ATOM      7  C   UNL     1      14.300  12.175  35.892  0.00  0.00    +0.000 A 
ATOM      8  C   UNL     1      15.567  11.691  35.624  0.00  0.00    +0.000 A 
ATOM      9  O   UNL     1      16.038  11.913  34.320  0.00  0.00    +0.000 OA
ATOM     10  C   UNL     1      16.376  11.021  36.519  0.00  0.00    +0.000 A 
ATOM     11  N   UNL     1      17.627  10.593  36.191  0.00  0.00    +0.000 NA
ENDROOT
BRANCH   1  16
ATOM     12  C   UNL     1      22.788  11.472  37.747  0.00  0.00    +0.000 A 
ATOM     13  C   UNL     1      22.101  12.450  38.449  0.00  0.00    +0.000 A 
ATOM     14  S   UNL     1      20.475  11.916  38.294  0.00  0.00    +0.000 S 
ATOM     15  C   UNL     1      20.787  10.491  37.343  0.00  0.00    +0.000 A 
ATOM     16  N   UNL     1      19.799   9.596  36.770  0.00  0.00    +0.000 NA
ATOM     17  N   UNL     1      22.080  10.521  37.221  0.00  0.00    +0.000 NA
BRANCH  12  19
ATOM     18  C   UNL     1      24.616  11.169  36.203  0.00  0.00    +0.000 C 
ATOM     19  C   UNL     1      24.295  11.632  37.606  0.00  0.00    +0.000 C 
ATOM     20  C   UNL     1      24.638  13.088  37.706  0.00  0.00    +0.000 C 
ATOM     21  C   UNL     1      25.035  10.838  38.639  0.00  0.00    +0.000 C 
ENDBRANCH  12  19
ENDBRANCH   1  16
TORSDOF 2
ENDMDL
MODEL 7
REMARK VINA RESULT:      -6.9     20.649     23.525
REMARK  Name = 
REMARK  2 active torsions:
REMARK  status: ('A' for Active; 'I' for Inactive)
REMARK    1  A    between atoms: C_2  and  C_5
REMARK    2  A    between atoms: N_9  and  C_10
REMARK                            x       y       z     vdW  Elec       q    Type
REMARK                         _______ _______ _______ _____ _____    ______ ____
ROOT
ATOM      1  C   UNL     1      28.806  23.511  22.974  0.00  0.00    +0.000 A 
ATOM      2  C   UNL     1      29.747  22.997  23.859  0.00  0.00    +0.000 A 
ATOM      3  C   UNL     1      29.473  22.818  25.204  0.00  0.00    +0.000 A 
ATOM      4  C   UNL     1      28.227  23.152  25.701  0.00  0.00    +0.000 A 
ATOM      5  C   UNL     1      27.919  23.018  27.050  0.00  0.00    +0.000 A 
ATOM      6  C   UNL     1      26.683  23.379  27.551  0.00  0.00    +0.000 A 
ATOM      7  C   UNL     1      25.730  23.894  26.678  0.00  0.00    +0.000 A 
ATOM      8  C   UNL     1      26.089  24.011  25.349  0.00  0.00    +0.000 A 
ATOM      9  O   UNL     1      25.104  24.536  24.497  0.00  0.00    +0.000 OA
ATOM     10  C   UNL     1      27.310  23.655  24.813  0.00  0.00    +0.000 A 
ATOM     11  N   UNL     1      27.604  23.821  23.494  0.00  0.00    +0.000 NA
ENDROOT
BRANCH   1  16
ATOM     12  C   UNL     1      29.621  27.077  20.098  0.00  0.00    +0.000 A 
ATOM     13  C   UNL     1      29.397  27.780  21.272  0.00  0.00    +0.000 A 
ATOM     14  S   UNL     1      29.152  26.508  22.401  0.00  0.00    +0.000 S 
ATOM     15  C   UNL     1      29.346  25.174  21.297  0.00  0.00    +0.000 A 
ATOM     16  N   UNL     1      29.167  23.766  21.596  0.00  0.00    +0.000 NA
ATOM     17  N   UNL     1      29.585  25.783  20.173  0.00  0.00    +0.000 NA
BRANCH  12  19
ATOM     18  C   UNL     1      28.483  28.509  18.526  0.00  0.00    +0.000 C 
ATOM     19  C   UNL     1      29.826  27.881  18.823  0.00  0.00    +0.000 C 
ATOM     20  C   UNL     1      30.805  28.983  19.098  0.00  0.00    +0.000 C 
ATOM     21  C   UNL     1      30.301  27.017  17.694  0.00  0.00    +0.000 C 
ENDBRANCH  12  19
ENDBRANCH   1  16
TORSDOF 2
ENDMDL
MODEL 8
REMARK VINA RESULT:      -6.9      2.729      7.916
REMARK  Name = 
REMARK  2 active torsions:
REMARK  status: ('A' for Active; 'I' for Inactive)
REMARK    1  A    between atoms: C_2  and  C_5
REMARK    2  A    between atoms: N_9  and  C_10
REMARK                            x       y       z     vdW  Elec       q    Type
REMARK                         _______ _______ _______ _____ _____    ______ ____
ROOT
ATOM      1  C   UNL     1      18.868   9.758  36.875  0.00  0.00    +0.000 A 
ATOM      2  C   UNL     1      18.088   9.206  37.884  0.00  0.00    +0.000 A 
ATOM      3  C   UNL     1      18.400   9.358  39.224  0.00  0.00    +0.000 A 
ATOM      4  C   UNL     1      19.519  10.082  39.590  0.00  0.00    +0.000 A 
ATOM      5  C   UNL     1      19.888  10.233  40.922  0.00  0.00    +0.000 A 
ATOM      6  C   UNL     1      21.022  10.933  41.286  0.00  0.00    +0.000 A 
ATOM      7  C   UNL     1      21.814  11.492  40.288  0.00  0.00    +0.000 A 
ATOM      8  C   UNL     1      21.405  11.308  38.980  0.00  0.00    +0.000 A 
ATOM      9  O   UNL     1      22.228  11.885  38.000  0.00  0.00    +0.000 OA
ATOM     10  C   UNL     1      20.276  10.622  38.582  0.00  0.00    +0.000 A 
ATOM     11  N   UNL     1      19.947  10.459  37.270  0.00  0.00    +0.000 NA
ENDROOT
BRANCH   1  16
ATOM     12  C   UNL     1      15.960  11.198  33.541  0.00  0.00    +0.000 A 
ATOM     13  C   UNL     1      15.584  12.063  34.557  0.00  0.00    +0.000 A 
ATOM     14  S   UNL     1      16.675  11.625  35.811  0.00  0.00    +0.000 S 
ATOM     15  C   UNL     1      17.526  10.370  34.953  0.00  0.00    +0.000 A 
ATOM     16  N   UNL     1      18.554   9.497  35.487  0.00  0.00    +0.000 NA
ATOM     17  N   UNL     1      16.934  10.381  33.796  0.00  0.00    +0.000 NA
BRANCH  12  19
ATOM     18  C   UNL     1      14.344  12.512  32.324  0.00  0.00    +0.000 C 
ATOM     19  C   UNL     1      15.162  11.242  32.246  0.00  0.00    +0.000 C 
ATOM     20  C   UNL     1      16.114  11.370  31.095  0.00  0.00    +0.000 C 
ATOM     21  C   UNL     1      14.296  10.029  32.088  0.00  0.00    +0.000 C 
ENDBRANCH  12  19
ENDBRANCH   1  16
TORSDOF 2
ENDMDL
MODEL 9
REMARK VINA RESULT:      -6.6      2.388      3.897
REMARK  Name = 
REMARK  2 active torsions:
REMARK  status: ('A' for Active; 'I' for Inactive)
REMARK    1  A    between atoms: C_2  and  C_5
REMARK    2  A    between atoms: N_9  and  C_10
REMARK                            x       y       z     vdW  Elec       q    Type
REMARK                         _______ _______ _______ _____ _____    ______ ____
ROOT
ATOM      1  C   UNL     1      17.483   9.988  36.506  0.00  0.00    +0.000 A 
ATOM      2  C   UNL     1      18.148   9.528  35.375  0.00  0.00    +0.000 A 
ATOM      3  C   UNL     1      17.796   9.929  34.098  0.00  0.00    +0.000 A 
ATOM      4  C   UNL     1      16.754  10.819  33.922  0.00  0.00    +0.000 A 
ATOM      5  C   UNL     1      16.345  11.225  32.656  0.00  0.00    +0.000 A 
ATOM      6  C   UNL     1      15.285  12.093  32.479  0.00  0.00    +0.000 A 
ATOM      7  C   UNL     1      14.609  12.563  33.601  0.00  0.00    +0.000 A 
ATOM      8  C   UNL     1      15.052  12.125  34.835  0.00  0.00    +0.000 A 
ATOM      9  O   UNL     1      14.347  12.618  35.944  0.00  0.00    +0.000 OA
ATOM     10  C   UNL     1      16.111  11.265  35.048  0.00  0.00    +0.000 A 
ATOM     11  N   UNL     1      16.477  10.856  36.294  0.00  0.00    +0.000 NA
ENDROOT
BRANCH   1  16
ATOM     12  C   UNL     1      20.223  10.985  40.132  0.00  0.00    +0.000 A 
ATOM     13  C   UNL     1      20.499  12.082  39.332  0.00  0.00    +0.000 A 
ATOM     14  S   UNL     1      19.461  11.809  37.990  0.00  0.00    +0.000 S 
ATOM     15  C   UNL     1      18.754  10.315  38.542  0.00  0.00    +0.000 A 
ATOM     16  N   UNL     1      17.827   9.470  37.813  0.00  0.00    +0.000 NA
ATOM     17  N   UNL     1      19.344  10.141  39.688  0.00  0.00    +0.000 NA
BRANCH  12  19
ATOM     18  C   UNL     1      22.071   9.797  41.128  0.00  0.00    +0.000 C 
ATOM     19  C   UNL     1      21.013  10.837  41.423  0.00  0.00    +0.000 C 
ATOM     20  C   UNL     1      21.705  12.134  41.719  0.00  0.00    +0.000 C 
ATOM     21  C   UNL     1      20.134  10.430  42.567  0.00  0.00    +0.000 C 
ENDBRANCH  12  19
ENDBRANCH   1  16
TORSDOF 2
ENDMDL
MODEL 10
REMARK VINA RESULT:      -6.6      2.614      4.045
REMARK  Name = 
REMARK  2 active torsions:
REMARK  status: ('A' for Active; 'I' for Inactive)
REMARK    1  A    between atoms: C_2  and  C_5
REMARK    2  A    between atoms: N_9  and  C_10
REMARK                            x       y       z     vdW  Elec       q    Type
REMARK                         _______ _______ _______ _____ _____    ______ ____
ROOT
ATOM      1  C   UNL     1      17.102  10.116  36.959  0.00  0.00    +0.000 A 
ATOM      2  C   UNL     1      16.273  10.650  37.940  0.00  0.00    +0.000 A 
ATOM      3  C   UNL     1      15.267  11.553  37.644  0.00  0.00    +0.000 A 
ATOM      4  C   UNL     1      15.062  11.947  36.335  0.00  0.00    +0.000 A 
ATOM      5  C   UNL     1      14.085  12.875  35.996  0.00  0.00    +0.000 A 
ATOM      6  C   UNL     1      13.899  13.290  34.690  0.00  0.00    +0.000 A 
ATOM      7  C   UNL     1      14.719  12.765  33.697  0.00  0.00    +0.000 A 
ATOM      8  C   UNL     1      15.678  11.849  34.089  0.00  0.00    +0.000 A 
ATOM      9  O   UNL     1      16.489  11.341  33.061  0.00  0.00    +0.000 OA
ATOM     10  C   UNL     1      15.887  11.408  35.380  0.00  0.00    +0.000 A 
ATOM     11  N   UNL     1      16.869  10.520  35.697  0.00  0.00    +0.000 NA
ENDROOT
BRANCH   1  16
ATOM     12  C   UNL     1      21.511  10.355  38.426  0.00  0.00    +0.000 A 
ATOM     13  C   UNL     1      21.212  11.708  38.387  0.00  0.00    +0.000 A 
ATOM     14  S   UNL     1      19.561  11.689  37.911  0.00  0.00    +0.000 S 
ATOM     15  C   UNL     1      19.372   9.961  37.791  0.00  0.00    +0.000 A 
ATOM     16  N   UNL     1      18.198   9.246  37.328  0.00  0.00    +0.000 NA
ATOM     17  N   UNL     1      20.554   9.534  38.121  0.00  0.00    +0.000 NA
BRANCH  12  19
ATOM     18  C   UNL     1      23.433   9.184  37.557  0.00  0.00    +0.000 C 
ATOM     19  C   UNL     1      22.941   9.958  38.760  0.00  0.00    +0.000 C 
ATOM     20  C   UNL     1      23.771  11.201  38.886  0.00  0.00    +0.000 C 
ATOM     21  C   UNL     1      23.010   9.142  40.016  0.00  0.00    +0.000 C 
ENDBRANCH  12  19
ENDBRANCH   1  16
TORSDOF 2
ENDMDL
