MODEL 1
REMARK VINA RESULT:      -6.2      0.000      0.000
REMARK  Name = 
REMARK  2 active torsions:
REMARK  status: ('A' for Active; 'I' for Inactive)
REMARK    1  A    between atoms: C_11  and  C_12
REMARK    2  A    between atoms: C_12  and  C_14
REMARK                            x       y       z     vdW  Elec       q    Type
REMARK                         _______ _______ _______ _____ _____    ______ ____
ROOT
ATOM      1  C   UNL     1      26.439  26.446  24.260  0.00  0.00    +0.000 C 
ATOM      2  C   UNL     1      26.786  25.009  23.998  0.00  0.00    +0.000 C 
ATOM      3  C   UNL     1      25.661  24.049  24.325  0.00  0.00    +0.000 C 
ATOM      4  C   UNL     1      25.821  23.396  25.651  0.00  0.00    +0.000 C 
ATOM      5  C   UNL     1      27.092  22.655  25.871  0.00  0.00    +0.000 C 
ATOM      6  C   UNL     1      28.161  23.158  24.966  0.00  0.00    +0.000 C 
ATOM      7  C   UNL     1      28.047  24.649  24.707  0.00  0.00    +0.000 C 
ATOM      8  O   UNL     1      28.198  25.383  25.882  0.00  0.00    +0.000 OA
ATOM      9  N   UNL     1      29.088  25.031  23.783  0.00  0.00    +0.000 N 
ATOM     10  O   UNL     1      30.367  25.252  24.233  0.00  0.00    +0.000 OA
ATOM     11  C   UNL     1      28.629  25.110  22.602  0.00  0.00    +0.000 C 
ATOM     12  N   UNL     1      27.203  24.793  22.617  0.00  0.00    +0.000 NA
ENDROOT
BRANCH  11  13
ATOM     13  C   UNL     1      29.274  25.451  21.346  0.00  0.00    +0.000 C 
ATOM     14  O   UNL     1      29.738  24.446  20.656  0.00  0.00    +0.000 OA
BRANCH  13  15
ATOM     15  C   UNL     1      29.447  26.770  20.800  0.00  0.00    +0.000 A 
ATOM     16  C   UNL     1      29.126  27.876  21.628  0.00  0.00    +0.000 A 
ATOM     17  C   UNL     1      29.292  29.121  21.103  0.00  0.00    +0.000 A 
ATOM     18  C   UNL     1      29.747  29.381  19.833  0.00  0.00    +0.000 A 
ATOM     19  C   UNL     1      30.049  28.276  19.051  0.00  0.00    +0.000 A 
ATOM     20  C   UNL     1      29.894  27.012  19.548  0.00  0.00    +0.000 A 
ENDBRANCH  13  15
ENDBRANCH  11  13
TORSDOF 2
ENDMDL
MODEL 2
REMARK VINA RESULT:      -6.2     32.978     34.632
REMARK  Name = 
REMARK  2 active torsions:
REMARK  status: ('A' for Active; 'I' for Inactive)
REMARK    1  A    between atoms: C_11  and  C_12
REMARK    2  A    between atoms: C_12  and  C_14
REMARK                            x       y       z     vdW  Elec       q    Type
REMARK                         _______ _______ _______ _____ _____    ______ ____
ROOT
ATOM      1  C   UNL     1      22.616  -6.209  23.042  0.00  0.00    +0.000 C 
ATOM      2  C   UNL     1      23.492  -7.096  23.878  0.00  0.00    +0.000 C 
ATOM      3  C   UNL     1      24.901  -6.563  24.048  0.00  0.00    +0.000 C 
ATOM      4  C   UNL     1      25.877  -7.198  23.122  0.00  0.00    +0.000 C 
ATOM      5  C   UNL     1      25.971  -8.682  23.182  0.00  0.00    +0.000 C 
ATOM      6  C   UNL     1      24.719  -9.270  23.732  0.00  0.00    +0.000 C 
ATOM      7  C   UNL     1      23.485  -8.483  23.332  0.00  0.00    +0.000 C 
ATOM      8  O   UNL     1      23.304  -8.486  21.951  0.00  0.00    +0.000 OA
ATOM      9  N   UNL     1      22.335  -9.096  23.953  0.00  0.00    +0.000 N 
ATOM     10  O   UNL     1      21.755 -10.207  23.392  0.00  0.00    +0.000 OA
ATOM     11  C   UNL     1      22.009  -8.467  25.007  0.00  0.00    +0.000 C 
ATOM     12  N   UNL     1      22.919  -7.341  25.197  0.00  0.00    +0.000 NA
ENDROOT
BRANCH  11  13
ATOM     13  C   UNL     1      20.940  -8.693  25.964  0.00  0.00    +0.000 C 
ATOM     14  O   UNL     1      20.942  -9.858  26.551  0.00  0.00    +0.000 OA
BRANCH  13  15
ATOM     15  C   UNL     1      19.896  -7.769  26.320  0.00  0.00    +0.000 A 
ATOM     16  C   UNL     1      18.848  -8.245  27.149  0.00  0.00    +0.000 A 
ATOM     17  C   UNL     1      17.864  -7.364  27.481  0.00  0.00    +0.000 A 
ATOM     18  C   UNL     1      17.816  -6.054  27.073  0.00  0.00    +0.000 A 
ATOM     19  C   UNL     1      18.857  -5.623  26.263  0.00  0.00    +0.000 A 
ATOM     20  C   UNL     1      19.861  -6.483  25.911  0.00  0.00    +0.000 A 
ENDBRANCH  13  15
ENDBRANCH  11  13
TORSDOF 2
ENDMDL
MODEL 3
REMARK VINA RESULT:      -6.0     22.791     25.338
REMARK  Name = 
REMARK  2 active torsions:
REMARK  status: ('A' for Active; 'I' for Inactive)
REMARK    1  A    between atoms: C_11  and  C_12
REMARK    2  A    between atoms: C_12  and  C_14
REMARK                            x       y       z     vdW  Elec       q    Type
REMARK                         _______ _______ _______ _____ _____    ______ ____
ROOT
ATOM      1  C   UNL     1      17.597   9.572  42.129  0.00  0.00    +0.000 C 
ATOM      2  C   UNL     1      17.519   8.569  41.014  0.00  0.00    +0.000 C 
ATOM      3  C   UNL     1      16.494   7.480  41.258  0.00  0.00    +0.000 C 
ATOM      4  C   UNL     1      17.095   6.220  41.771  0.00  0.00    +0.000 C 
ATOM      5  C   UNL     1      18.171   5.618  40.938  0.00  0.00    +0.000 C 
ATOM      6  C   UNL     1      18.807   6.645  40.070  0.00  0.00    +0.000 C 
ATOM      7  C   UNL     1      18.871   8.007  40.736  0.00  0.00    +0.000 C 
ATOM      8  O   UNL     1      19.656   7.975  41.886  0.00  0.00    +0.000 OA
ATOM      9  N   UNL     1      19.451   8.943  39.802  0.00  0.00    +0.000 N 
ATOM     10  O   UNL     1      20.814   9.006  39.642  0.00  0.00    +0.000 OA
ATOM     11  C   UNL     1      18.544   9.617  39.225  0.00  0.00    +0.000 C 
ATOM     12  N   UNL     1      17.238   9.201  39.730  0.00  0.00    +0.000 NA
ENDROOT
BRANCH  11  13
ATOM     13  C   UNL     1      18.623  10.663  38.220  0.00  0.00    +0.000 C 
ATOM     14  O   UNL     1      19.259  11.744  38.576  0.00  0.00    +0.000 OA
BRANCH  13  15
ATOM     15  C   UNL     1      18.076  10.619  36.890  0.00  0.00    +0.000 A 
ATOM     16  C   UNL     1      18.545   9.606  36.014  0.00  0.00    +0.000 A 
ATOM     17  C   UNL     1      18.022   9.573  34.758  0.00  0.00    +0.000 A 
ATOM     18  C   UNL     1      17.076  10.446  34.280  0.00  0.00    +0.000 A 
ATOM     19  C   UNL     1      16.640  11.424  35.163  0.00  0.00    +0.000 A 
ATOM     20  C   UNL     1      17.145  11.485  36.433  0.00  0.00    +0.000 A 
ENDBRANCH  13  15
ENDBRANCH  11  13
TORSDOF 2
ENDMDL
MODEL 4
REMARK VINA RESULT:      -6.0     20.934     23.777
REMARK  Name = 
REMARK  2 active torsions:
REMARK  status: ('A' for Active; 'I' for Inactive)
REMARK    1  A    between atoms: C_11  and  C_12
REMARK    2  A    between atoms: C_12  and  C_14
REMARK                            x       y       z     vdW  Elec       q    Type
REMARK                         _______ _______ _______ _____ _____    ______ ____
ROOT
ATOM      1  C   UNL     1      37.313   8.953  37.285  0.00  0.00    +0.000 C 
ATOM      2  C   UNL     1      36.175   9.215  36.342  0.00  0.00    +0.000 C 
ATOM      3  C   UNL     1      36.539  10.151  35.207  0.00  0.00    +0.000 C 
ATOM      4  C   UNL     1      36.097  11.551  35.446  0.00  0.00    +0.000 C 
ATOM      5  C   UNL     1      34.646  11.747  35.714  0.00  0.00    +0.000 C 
ATOM      6  C   UNL     1      34.030  10.494  36.230  0.00  0.00    +0.000 C 
ATOM      7  C   UNL     1      34.984   9.694  37.098  0.00  0.00    +0.000 C 
ATOM      8  O   UNL     1      35.355  10.406  38.237  0.00  0.00    +0.000 OA
ATOM      9  N   UNL     1      34.318   8.480  37.505  0.00  0.00    +0.000 N 
ATOM     10  O   UNL     1      33.438   8.493  38.560  0.00  0.00    +0.000 OA
ATOM     11  C   UNL     1      34.672   7.508  36.768  0.00  0.00    +0.000 C 
ATOM     12  N   UNL     1      35.638   7.981  35.780  0.00  0.00    +0.000 NA
ENDROOT
BRANCH  11  13
ATOM     13  C   UNL     1      34.284   6.109  36.779  0.00  0.00    +0.000 C 
ATOM     14  O   UNL     1      34.299   5.526  37.945  0.00  0.00    +0.000 OA
BRANCH  13  15
ATOM     15  C   UNL     1      33.890   5.318  35.643  0.00  0.00    +0.000 A 
ATOM     16  C   UNL     1      32.943   5.875  34.746  0.00  0.00    +0.000 A 
ATOM     17  C   UNL     1      32.576   5.119  33.675  0.00  0.00    +0.000 A 
ATOM     18  C   UNL     1      33.056   3.862  33.403  0.00  0.00    +0.000 A 
ATOM     19  C   UNL     1      33.980   3.348  34.302  0.00  0.00    +0.000 A 
ATOM     20  C   UNL     1      34.370   4.081  35.388  0.00  0.00    +0.000 A 
ENDBRANCH  13  15
ENDBRANCH  11  13
TORSDOF 2
ENDMDL
MODEL 5
REMARK VINA RESULT:      -5.9      2.876      5.742
REMARK  Name = 
REMARK  2 active torsions:
REMARK  status: ('A' for Active; 'I' for Inactive)
REMARK    1  A    between atoms: C_11  and  C_12
REMARK    2  A    between atoms: C_12  and  C_14
REMARK                            x       y       z     vdW  Elec       q    Type
REMARK                         _______ _______ _______ _____ _____    ______ ____
ROOT
ATOM      1  C   UNL     1      29.317  26.412  24.087  0.00  0.00    +0.000 C 
ATOM      2  C   UNL     1      29.606  25.134  24.822  0.00  0.00    +0.000 C 
ATOM      3  C   UNL     1      30.881  25.186  25.639  0.00  0.00    +0.000 C 
ATOM      4  C   UNL     1      32.036  24.548  24.954  0.00  0.00    +0.000 C 
ATOM      5  C   UNL     1      31.853  23.132  24.535  0.00  0.00    +0.000 C 
ATOM      6  C   UNL     1      30.409  22.807  24.383  0.00  0.00    +0.000 C 
ATOM      7  C   UNL     1      29.601  23.986  23.872  0.00  0.00    +0.000 C 
ATOM      8  O   UNL     1      30.016  24.374  22.600  0.00  0.00    +0.000 OA
ATOM      9  N   UNL     1      28.214  23.592  23.808  0.00  0.00    +0.000 N 
ATOM     10  O   UNL     1      27.748  22.865  22.740  0.00  0.00    +0.000 OA
ATOM     11  C   UNL     1      27.585  24.008  24.830  0.00  0.00    +0.000 C 
ATOM     12  N   UNL     1      28.503  24.746  25.693  0.00  0.00    +0.000 NA
ENDROOT
BRANCH  11  13
ATOM     13  C   UNL     1      26.193  23.867  25.219  0.00  0.00    +0.000 C 
ATOM     14  O   UNL     1      25.659  22.697  25.002  0.00  0.00    +0.000 OA
BRANCH  13  15
ATOM     15  C   UNL     1      25.359  24.879  25.811  0.00  0.00    +0.000 A 
ATOM     16  C   UNL     1      24.945  25.959  24.989  0.00  0.00    +0.000 A 
ATOM     17  C   UNL     1      24.157  26.912  25.558  0.00  0.00    +0.000 A 
ATOM     18  C   UNL     1      23.736  26.902  26.865  0.00  0.00    +0.000 A 
ATOM     19  C   UNL     1      24.160  25.832  27.640  0.00  0.00    +0.000 A 
ATOM     20  C   UNL     1      24.953  24.857  27.099  0.00  0.00    +0.000 A 
ENDBRANCH  13  15
ENDBRANCH  11  13
TORSDOF 2
ENDMDL
MODEL 6
REMARK VINA RESULT:      -5.9     15.835     17.378
REMARK  Name = 
REMARK  2 active torsions:
REMARK  status: ('A' for Active; 'I' for Inactive)
REMARK    1  A    between atoms: C_11  and  C_12
REMARK    2  A    between atoms: C_12  and  C_14
REMARK                            x       y       z     vdW  Elec       q    Type
REMARK                         _______ _______ _______ _____ _____    ______ ____
ROOT
ATOM      1  C   UNL     1      19.680  21.742  39.812  0.00  0.00    +0.000 C 
ATOM      2  C   UNL     1      19.947  20.628  38.842  0.00  0.00    +0.000 C 
ATOM      3  C   UNL     1      19.797  19.250  39.455  0.00  0.00    +0.000 C 
ATOM      4  C   UNL     1      21.097  18.642  39.845  0.00  0.00    +0.000 C 
ATOM      5  C   UNL     1      22.117  18.523  38.767  0.00  0.00    +0.000 C 
ATOM      6  C   UNL     1      21.857  19.508  37.682  0.00  0.00    +0.000 C 
ATOM      7  C   UNL     1      21.282  20.811  38.207  0.00  0.00    +0.000 C 
ATOM      8  O   UNL     1      22.172  21.451  39.066  0.00  0.00    +0.000 OA
ATOM      9  N   UNL     1      21.017  21.675  37.082  0.00  0.00    +0.000 N 
ATOM     10  O   UNL     1      22.033  22.404  36.514  0.00  0.00    +0.000 OA
ATOM     11  C   UNL     1      19.789  21.627  36.761  0.00  0.00    +0.000 C 
ATOM     12  N   UNL     1      19.091  20.715  37.664  0.00  0.00    +0.000 NA
ENDROOT
BRANCH  11  13
ATOM     13  C   UNL     1      19.047  22.304  35.713  0.00  0.00    +0.000 C 
ATOM     14  O   UNL     1      19.139  23.605  35.703  0.00  0.00    +0.000 OA
BRANCH  13  15
ATOM     15  C   UNL     1      18.234  21.686  34.700  0.00  0.00    +0.000 A 
ATOM     16  C   UNL     1      16.869  22.067  34.625  0.00  0.00    +0.000 A 
ATOM     17  C   UNL     1      16.107  21.477  33.662  0.00  0.00    +0.000 A 
ATOM     18  C   UNL     1      16.564  20.545  32.764  0.00  0.00    +0.000 A 
ATOM     19  C   UNL     1      17.903  20.196  32.867  0.00  0.00    +0.000 A 
ATOM     20  C   UNL     1      18.696  20.770  33.822  0.00  0.00    +0.000 A 
ENDBRANCH  13  15
ENDBRANCH  11  13
TORSDOF 2
ENDMDL
MODEL 7
REMARK VINA RESULT:      -5.9      2.003      6.408
REMARK  Name = 
REMARK  2 active torsions:
REMARK  status: ('A' for Active; 'I' for Inactive)
REMARK    1  A    between atoms: C_11  and  C_12
REMARK    2  A    between atoms: C_12  and  C_14
REMARK                            x       y       z     vdW  Elec       q    Type
REMARK                         _______ _______ _______ _____ _____    ______ ____
ROOT
ATOM      1  C   UNL     1      30.249  24.551  23.687  0.00  0.00    +0.000 C 
ATOM      2  C   UNL     1      28.996  24.769  22.889  0.00  0.00    +0.000 C 
ATOM      3  C   UNL     1      29.224  24.738  21.391  0.00  0.00    +0.000 C 
ATOM      4  C   UNL     1      29.327  26.095  20.791  0.00  0.00    +0.000 C 
ATOM      5  C   UNL     1      28.177  27.009  21.030  0.00  0.00    +0.000 C 
ATOM      6  C   UNL     1      27.422  26.603  22.247  0.00  0.00    +0.000 C 
ATOM      7  C   UNL     1      28.325  26.026  23.323  0.00  0.00    +0.000 C 
ATOM      8  O   UNL     1      29.248  26.969  23.772  0.00  0.00    +0.000 OA
ATOM      9  N   UNL     1      27.501  25.616  24.435  0.00  0.00    +0.000 N 
ATOM     10  O   UNL     1      27.068  26.540  25.354  0.00  0.00    +0.000 OA
ATOM     11  C   UNL     1      27.282  24.366  24.390  0.00  0.00    +0.000 C 
ATOM     12  N   UNL     1      27.960  23.799  23.227  0.00  0.00    +0.000 NA
ENDROOT
BRANCH  11  13
ATOM     13  C   UNL     1      26.521  23.496  25.269  0.00  0.00    +0.000 C 
ATOM     14  O   UNL     1      25.555  22.825  24.705  0.00  0.00    +0.000 OA
BRANCH  13  15
ATOM     15  C   UNL     1      26.727  23.308  26.681  0.00  0.00    +0.000 A 
ATOM     16  C   UNL     1      25.860  23.991  27.572  0.00  0.00    +0.000 A 
ATOM     17  C   UNL     1      26.063  23.806  28.906  0.00  0.00    +0.000 A 
ATOM     18  C   UNL     1      27.041  23.010  29.447  0.00  0.00    +0.000 A 
ATOM     19  C   UNL     1      27.872  22.358  28.546  0.00  0.00    +0.000 A 
ATOM     20  C   UNL     1      27.695  22.521  27.199  0.00  0.00    +0.000 A 
ENDBRANCH  13  15
ENDBRANCH  11  13
TORSDOF 2
ENDMDL
MODEL 8
REMARK VINA RESULT:      -5.8      2.794      6.328
REMARK  Name = 
REMARK  2 active torsions:
REMARK  status: ('A' for Active; 'I' for Inactive)
REMARK    1  A    between atoms: C_11  and  C_12
REMARK    2  A    between atoms: C_12  and  C_14
REMARK                            x       y       z     vdW  Elec       q    Type
REMARK                         _______ _______ _______ _____ _____    ______ ____
ROOT
ATOM      1  C   UNL     1      29.597  26.362  23.430  0.00  0.00    +0.000 C 
ATOM      2  C   UNL     1      29.773  25.286  24.463  0.00  0.00    +0.000 C 
ATOM      3  C   UNL     1      31.150  25.280  25.095  0.00  0.00    +0.000 C 
ATOM      4  C   UNL     1      32.057  24.261  24.503  0.00  0.00    +0.000 C 
ATOM      5  C   UNL     1      31.570  22.855  24.525  0.00  0.00    +0.000 C 
ATOM      6  C   UNL     1      30.085  22.811  24.622  0.00  0.00    +0.000 C 
ATOM      7  C   UNL     1      29.422  23.959  23.884  0.00  0.00    +0.000 C 
ATOM      8  O   UNL     1      29.693  23.910  22.518  0.00  0.00    +0.000 OA
ATOM      9  N   UNL     1      27.995  23.860  24.079  0.00  0.00    +0.000 N 
ATOM     10  O   UNL     1      27.250  22.996  23.315  0.00  0.00    +0.000 OA
ATOM     11  C   UNL     1      27.615  24.647  25.000  0.00  0.00    +0.000 C 
ATOM     12  N   UNL     1      28.771  25.375  25.518  0.00  0.00    +0.000 NA
ENDROOT
BRANCH  11  13
ATOM     13  C   UNL     1      26.299  24.904  25.555  0.00  0.00    +0.000 C 
ATOM     14  O   UNL     1      25.343  25.088  24.687  0.00  0.00    +0.000 OA
BRANCH  13  15
ATOM     15  C   UNL     1      25.953  24.974  26.950  0.00  0.00    +0.000 A 
ATOM     16  C   UNL     1      26.305  23.874  27.774  0.00  0.00    +0.000 A 
ATOM     17  C   UNL     1      25.974  23.948  29.093  0.00  0.00    +0.000 A 
ATOM     18  C   UNL     1      25.326  25.008  29.679  0.00  0.00    +0.000 A 
ATOM     19  C   UNL     1      24.997  26.065  28.843  0.00  0.00    +0.000 A 
ATOM     20  C   UNL     1      25.315  26.023  27.514  0.00  0.00    +0.000 A 
ENDBRANCH  13  15
ENDBRANCH  11  13
TORSDOF 2
ENDMDL
MODEL 9
REMARK VINA RESULT:      -5.8      1.984      5.982
REMARK  Name = 
REMARK  2 active torsions:
REMARK  status: ('A' for Active; 'I' for Inactive)
REMARK    1  A    between atoms: C_11  and  C_12
REMARK    2  A    between atoms: C_12  and  C_14
REMARK                            x       y       z     vdW  Elec       q    Type
REMARK                         _______ _______ _______ _____ _____    ______ ____
ROOT
ATOM      1  C   UNL     1      26.682  27.317  23.208  0.00  0.00    +0.000 C 
ATOM      2  C   UNL     1      27.984  26.645  22.878  0.00  0.00    +0.000 C 
ATOM      3  C   UNL     1      29.113  27.621  22.616  0.00  0.00    +0.000 C 
ATOM      4  C   UNL     1      29.360  27.849  21.167  0.00  0.00    +0.000 C 
ATOM      5  C   UNL     1      29.641  26.638  20.349  0.00  0.00    +0.000 C 
ATOM      6  C   UNL     1      29.090  25.419  21.001  0.00  0.00    +0.000 C 
ATOM      7  C   UNL     1      27.797  25.695  21.746  0.00  0.00    +0.000 C 
ATOM      8  O   UNL     1      26.792  26.123  20.881  0.00  0.00    +0.000 OA
ATOM      9  N   UNL     1      27.371  24.472  22.384  0.00  0.00    +0.000 N 
ATOM     10  O   UNL     1      26.701  23.512  21.665  0.00  0.00    +0.000 OA
ATOM     11  C   UNL     1      27.708  24.467  23.609  0.00  0.00    +0.000 C 
ATOM     12  N   UNL     1      28.398  25.716  23.923  0.00  0.00    +0.000 NA
ENDROOT
BRANCH  11  13
ATOM     13  C   UNL     1      27.510  23.476  24.651  0.00  0.00    +0.000 C 
ATOM     14  O   UNL     1      26.311  22.969  24.731  0.00  0.00    +0.000 OA
BRANCH  13  15
ATOM     15  C   UNL     1      28.496  23.006  25.588  0.00  0.00    +0.000 A 
ATOM     16  C   UNL     1      28.090  22.817  26.934  0.00  0.00    +0.000 A 
ATOM     17  C   UNL     1      29.029  22.372  27.814  0.00  0.00    +0.000 A 
ATOM     18  C   UNL     1      30.334  22.095  27.493  0.00  0.00    +0.000 A 
ATOM     19  C   UNL     1      30.697  22.293  26.168  0.00  0.00    +0.000 A 
ATOM     20  C   UNL     1      29.777  22.738  25.258  0.00  0.00    +0.000 A 
ENDBRANCH  13  15
ENDBRANCH  11  13
TORSDOF 2
ENDMDL
MODEL 10
REMARK VINA RESULT:      -5.8      2.672      6.822
REMARK  Name = 
REMARK  2 active torsions:
REMARK  status: ('A' for Active; 'I' for Inactive)
REMARK    1  A    between atoms: C_11  and  C_12
REMARK    2  A    between atoms: C_12  and  C_14
REMARK                            x       y       z     vdW  Elec       q    Type
REMARK                         _______ _______ _______ _____ _____    ______ ____
ROOT
ATOM      1  C   UNL     1      27.993  26.502  25.049  0.00  0.00    +0.000 C 
ATOM      2  C   UNL     1      28.784  25.400  24.406  0.00  0.00    +0.000 C 
ATOM      3  C   UNL     1      29.843  25.902  23.445  0.00  0.00    +0.000 C 
ATOM      4  C   UNL     1      29.413  25.838  22.022  0.00  0.00    +0.000 C 
ATOM      5  C   UNL     1      28.982  24.503  21.526  0.00  0.00    +0.000 C 
ATOM      6  C   UNL     1      28.544  23.635  22.652  0.00  0.00    +0.000 C 
ATOM      7  C   UNL     1      27.866  24.421  23.760  0.00  0.00    +0.000 C 
ATOM      8  O   UNL     1      26.701  25.036  23.307  0.00  0.00    +0.000 OA
ATOM      9  N   UNL     1      27.527  23.506  24.823  0.00  0.00    +0.000 N 
ATOM     10  O   UNL     1      26.395  22.733  24.738  0.00  0.00    +0.000 OA
ATOM     11  C   UNL     1      28.396  23.556  25.748  0.00  0.00    +0.000 C 
ATOM     12  N   UNL     1      29.419  24.537  25.396  0.00  0.00    +0.000 NA
ENDROOT
BRANCH  11  13
ATOM     13  C   UNL     1      28.496  22.837  27.006  0.00  0.00    +0.000 C 
ATOM     14  O   UNL     1      29.427  21.926  27.065  0.00  0.00    +0.000 OA
BRANCH  13  15
ATOM     15  C   UNL     1      27.679  23.031  28.174  0.00  0.00    +0.000 A 
ATOM     16  C   UNL     1      26.939  24.238  28.271  0.00  0.00    +0.000 A 
ATOM     17  C   UNL     1      26.169  24.413  29.380  0.00  0.00    +0.000 A 
ATOM     18  C   UNL     1      26.057  23.508  30.406  0.00  0.00    +0.000 A 
ATOM     19  C   UNL     1      26.795  22.339  30.279  0.00  0.00    +0.000 A 
ATOM     20  C   UNL     1      27.578  22.132  29.177  0.00  0.00    +0.000 A 
ENDBRANCH  13  15
ENDBRANCH  11  13
TORSDOF 2
ENDMDL
