MODEL 1
REMARK VINA RESULT:      -8.7      0.000      0.000
REMARK  Name = 
REMARK  7 active torsions:
REMARK  status: ('A' for Active; 'I' for Inactive)
REMARK    1  A    between atoms: C_2  and  C_5
REMARK    2  A    between atoms: C_8  and  C_9
REMARK    3  A    between atoms: C_9  and  C_11
REMARK    4  A    between atoms: C_11  and  C_12
REMARK    5  A    between atoms: N_16  and  C_17
REMARK    6  A    between atoms: C_17  and  C_18
REMARK    7  A    between atoms: C_18  and  C_19
REMARK                            x       y       z     vdW  Elec       q    Type
REMARK                         _______ _______ _______ _____ _____    ______ ____
ROOT
ATOM      1  C   UNL     1      37.683   1.711  14.253  0.00  0.00    +0.000 C 
ATOM      2  O   UNL     1      37.087   2.442  13.217  0.00  0.00    +0.000 OA
ATOM      3  C   UNL     1      38.080   0.395  13.694  0.00  0.00    +0.000 C 
ATOM      4  O   UNL     1      38.948   0.223  12.803  0.00  0.00    +0.000 OA
ATOM      5  N   UNL     1      37.338  -0.650  14.312  0.00  0.00    +0.000 N 
ATOM      6  C   UNL     1      36.472  -0.034  15.247  0.00  0.00    +0.000 A 
ATOM      7  C   UNL     1      35.543  -0.568  16.104  0.00  0.00    +0.000 A 
ATOM      8  C   UNL     1      34.790   0.229  16.944  0.00  0.00    +0.000 A 
ATOM      9  C   UNL     1      34.994   1.608  16.904  0.00  0.00    +0.000 A 
ATOM     10  C   UNL     1      35.911   2.175  16.062  0.00  0.00    +0.000 A 
ATOM     11  C   UNL     1      36.643   1.337  15.239  0.00  0.00    +0.000 A 
ENDROOT
BRANCH   1  12
ATOM     12  C   UNL     1      38.847   2.449  14.835  0.00  0.00    +0.000 C 
BRANCH  12  13
ATOM     13  C   UNL     1      38.512   3.886  14.950  0.00  0.00    +0.000 C 
ATOM     14  O   UNL     1      37.806   4.400  14.051  0.00  0.00    +0.000 OA
BRANCH  13  18
ATOM     15  C   UNL     1      39.916   6.137  18.305  0.00  0.00    +0.000 A 
ATOM     16  C   UNL     1      38.901   5.222  18.434  0.00  0.00    +0.000 A 
ATOM     17  C   UNL     1      38.460   4.500  17.342  0.00  0.00    +0.000 A 
ATOM     18  C   UNL     1      39.005   4.655  16.085  0.00  0.00    +0.000 A 
ATOM     19  C   UNL     1      40.024   5.574  15.952  0.00  0.00    +0.000 A 
ATOM     20  C   UNL     1      40.462   6.295  17.052  0.00  0.00    +0.000 A 
BRANCH  15  22
ATOM     21  C   UNL     1      39.323   7.426  20.346  0.00  0.00    +0.000 C 
ATOM     22  C   UNL     1      40.429   6.945  19.444  0.00  0.00    +0.000 C 
ATOM     23  C   UNL     1      41.412   6.150  20.281  0.00  0.00    +0.000 C 
ATOM     24  C   UNL     1      41.159   8.134  18.805  0.00  0.00    +0.000 C 
ENDBRANCH  15  22
ENDBRANCH  13  18
ENDBRANCH  12  13
ENDBRANCH   1  12
BRANCH   5  25
ATOM     25  C   UNL     1      37.451  -2.071  14.041  0.00  0.00    +0.000 C 
BRANCH  25  26
ATOM     26  C   UNL     1      38.687  -2.651  14.629  0.00  0.00    +0.000 C 
BRANCH  26  27
ATOM     27  C   UNL     1      38.622  -2.971  16.062  0.00  0.00    +0.000 A 
ATOM     28  C   UNL     1      38.448  -4.289  16.409  0.00  0.00    +0.000 A 
ATOM     29  C   UNL     1      38.373  -4.740  17.708  0.00  0.00    +0.000 A 
ATOM     30  C   UNL     1      38.485  -3.785  18.703  0.00  0.00    +0.000 A 
ATOM     31  C   UNL     1      38.660  -2.459  18.378  0.00  0.00    +0.000 A 
ATOM     32  C   UNL     1      38.729  -2.043  17.065  0.00  0.00    +0.000 A 
ENDBRANCH  26  27
ENDBRANCH  25  26
ENDBRANCH   5  25
TORSDOF 7
ENDMDL
MODEL 2
REMARK VINA RESULT:      -8.4      2.096      5.920
REMARK  Name = 
REMARK  7 active torsions:
REMARK  status: ('A' for Active; 'I' for Inactive)
REMARK    1  A    between atoms: C_2  and  C_5
REMARK    2  A    between atoms: C_8  and  C_9
REMARK    3  A    between atoms: C_9  and  C_11
REMARK    4  A    between atoms: C_11  and  C_12
REMARK    5  A    between atoms: N_16  and  C_17
REMARK    6  A    between atoms: C_17  and  C_18
REMARK    7  A    between atoms: C_18  and  C_19
REMARK                            x       y       z     vdW  Elec       q    Type
REMARK                         _______ _______ _______ _____ _____    ______ ____
ROOT
ATOM      1  C   UNL     1      36.326   4.058  14.436  0.00  0.00    +0.000 C 
ATOM      2  O   UNL     1      35.234   4.927  14.309  0.00  0.00    +0.000 OA
ATOM      3  C   UNL     1      35.803   2.762  14.935  0.00  0.00    +0.000 C 
ATOM      4  O   UNL     1      35.021   2.010  14.303  0.00  0.00    +0.000 OA
ATOM      5  N   UNL     1      36.314   2.489  16.234  0.00  0.00    +0.000 N 
ATOM      6  C   UNL     1      37.146   3.581  16.580  0.00  0.00    +0.000 A 
ATOM      7  C   UNL     1      37.879   3.833  17.712  0.00  0.00    +0.000 A 
ATOM      8  C   UNL     1      38.632   4.983  17.847  0.00  0.00    +0.000 A 
ATOM      9  C   UNL     1      38.633   5.897  16.795  0.00  0.00    +0.000 A 
ATOM     10  C   UNL     1      37.914   5.680  15.651  0.00  0.00    +0.000 A 
ATOM     11  C   UNL     1      37.175   4.512  15.561  0.00  0.00    +0.000 A 
ENDROOT
BRANCH   1  12
ATOM     12  C   UNL     1      37.052   3.909  13.137  0.00  0.00    +0.000 C 
BRANCH  12  13
ATOM     13  C   UNL     1      38.407   3.370  13.387  0.00  0.00    +0.000 C 
ATOM     14  O   UNL     1      39.334   4.186  13.603  0.00  0.00    +0.000 OA
BRANCH  13  18
ATOM     15  C   UNL     1      39.011  -0.863  13.328  0.00  0.00    +0.000 A 
ATOM     16  C   UNL     1      38.148  -0.253  12.452  0.00  0.00    +0.000 A 
ATOM     17  C   UNL     1      37.965   1.116  12.481  0.00  0.00    +0.000 A 
ATOM     18  C   UNL     1      38.628   1.931  13.374  0.00  0.00    +0.000 A 
ATOM     19  C   UNL     1      39.494   1.320  14.256  0.00  0.00    +0.000 A 
ATOM     20  C   UNL     1      39.673  -0.054  14.222  0.00  0.00    +0.000 A 
BRANCH  15  22
ATOM     21  C   UNL     1      40.261  -2.737  14.381  0.00  0.00    +0.000 C 
ATOM     22  C   UNL     1      39.244  -2.333  13.346  0.00  0.00    +0.000 C 
ATOM     23  C   UNL     1      37.959  -3.088  13.623  0.00  0.00    +0.000 C 
ATOM     24  C   UNL     1      39.741  -2.684  11.937  0.00  0.00    +0.000 C 
ENDBRANCH  15  22
ENDBRANCH  13  18
ENDBRANCH  12  13
ENDBRANCH   1  12
BRANCH   5  25
ATOM     25  C   UNL     1      36.043   1.315  17.044  0.00  0.00    +0.000 C 
BRANCH  25  26
ATOM     26  C   UNL     1      36.648   0.088  16.463  0.00  0.00    +0.000 C 
BRANCH  26  27
ATOM     27  C   UNL     1      37.157  -0.892  17.433  0.00  0.00    +0.000 A 
ATOM     28  C   UNL     1      38.070  -1.814  16.981  0.00  0.00    +0.000 A 
ATOM     29  C   UNL     1      38.637  -2.788  17.773  0.00  0.00    +0.000 A 
ATOM     30  C   UNL     1      38.245  -2.814  19.100  0.00  0.00    +0.000 A 
ATOM     31  C   UNL     1      37.331  -1.900  19.573  0.00  0.00    +0.000 A 
ATOM     32  C   UNL     1      36.782  -0.938  18.751  0.00  0.00    +0.000 A 
ENDBRANCH  26  27
ENDBRANCH  25  26
ENDBRANCH   5  25
TORSDOF 7
ENDMDL
MODEL 3
REMARK VINA RESULT:      -8.4      1.551      2.390
REMARK  Name = 
REMARK  7 active torsions:
REMARK  status: ('A' for Active; 'I' for Inactive)
REMARK    1  A    between atoms: C_2  and  C_5
REMARK    2  A    between atoms: C_8  and  C_9
REMARK    3  A    between atoms: C_9  and  C_11
REMARK    4  A    between atoms: C_11  and  C_12
REMARK    5  A    between atoms: N_16  and  C_17
REMARK    6  A    between atoms: C_17  and  C_18
REMARK    7  A    between atoms: C_18  and  C_19
REMARK                            x       y       z     vdW  Elec       q    Type
REMARK                         _______ _______ _______ _____ _____    ______ ____
ROOT
ATOM      1  C   UNL     1      37.629   2.417  12.874  0.00  0.00    +0.000 C 
ATOM      2  O   UNL     1      37.204   2.598  11.551  0.00  0.00    +0.000 OA
ATOM      3  C   UNL     1      37.763   0.956  13.098  0.00  0.00    +0.000 C 
ATOM      4  O   UNL     1      38.590   0.212  12.518  0.00  0.00    +0.000 OA
ATOM      5  N   UNL     1      36.819   0.517  14.068  0.00  0.00    +0.000 N 
ATOM      6  C   UNL     1      36.082   1.659  14.464  0.00  0.00    +0.000 A 
ATOM      7  C   UNL     1      35.055   1.802  15.362  0.00  0.00    +0.000 A 
ATOM      8  C   UNL     1      34.465   3.029  15.598  0.00  0.00    +0.000 A 
ATOM      9  C   UNL     1      34.940   4.135  14.896  0.00  0.00    +0.000 A 
ATOM     10  C   UNL     1      35.962   4.030  13.993  0.00  0.00    +0.000 A 
ATOM     11  C   UNL     1      36.523   2.780  13.790  0.00  0.00    +0.000 A 
ENDROOT
BRANCH   1  12
ATOM     12  C   UNL     1      38.909   3.146  13.134  0.00  0.00    +0.000 C 
BRANCH  12  13
ATOM     13  C   UNL     1      39.317   2.941  14.541  0.00  0.00    +0.000 C 
ATOM     14  O   UNL     1      39.713   1.800  14.880  0.00  0.00    +0.000 OA
BRANCH  13  18
ATOM     15  C   UNL     1      39.160   6.211  17.293  0.00  0.00    +0.000 A 
ATOM     16  C   UNL     1      39.940   6.265  16.164  0.00  0.00    +0.000 A 
ATOM     17  C   UNL     1      39.979   5.202  15.284  0.00  0.00    +0.000 A 
ATOM     18  C   UNL     1      39.248   4.050  15.484  0.00  0.00    +0.000 A 
ATOM     19  C   UNL     1      38.465   3.993  16.616  0.00  0.00    +0.000 A 
ATOM     20  C   UNL     1      38.430   5.063  17.497  0.00  0.00    +0.000 A 
BRANCH  15  22
ATOM     21  C   UNL     1      40.056   8.430  17.969  0.00  0.00    +0.000 C 
ATOM     22  C   UNL     1      39.082   7.324  18.278  0.00  0.00    +0.000 C 
ATOM     23  C   UNL     1      37.687   7.918  18.324  0.00  0.00    +0.000 C 
ATOM     24  C   UNL     1      39.402   6.688  19.638  0.00  0.00    +0.000 C 
ENDBRANCH  15  22
ENDBRANCH  13  18
ENDBRANCH  12  13
ENDBRANCH   1  12
BRANCH   5  25
ATOM     25  C   UNL     1      36.650  -0.838  14.562  0.00  0.00    +0.000 C 
BRANCH  25  26
ATOM     26  C   UNL     1      37.856  -1.319  15.284  0.00  0.00    +0.000 C 
BRANCH  26  27
ATOM     27  C   UNL     1      37.698  -1.508  16.734  0.00  0.00    +0.000 A 
ATOM     28  C   UNL     1      36.679  -0.827  17.353  0.00  0.00    +0.000 A 
ATOM     29  C   UNL     1      36.406  -0.908  18.701  0.00  0.00    +0.000 A 
ATOM     30  C   UNL     1      37.225  -1.734  19.450  0.00  0.00    +0.000 A 
ATOM     31  C   UNL     1      38.252  -2.425  18.850  0.00  0.00    +0.000 A 
ATOM     32  C   UNL     1      38.498  -2.319  17.497  0.00  0.00    +0.000 A 
ENDBRANCH  26  27
ENDBRANCH  25  26
ENDBRANCH   5  25
TORSDOF 7
ENDMDL
MODEL 4
REMARK VINA RESULT:      -8.4      1.385      2.346
REMARK  Name = 
REMARK  7 active torsions:
REMARK  status: ('A' for Active; 'I' for Inactive)
REMARK    1  A    between atoms: C_2  and  C_5
REMARK    2  A    between atoms: C_8  and  C_9
REMARK    3  A    between atoms: C_9  and  C_11
REMARK    4  A    between atoms: C_11  and  C_12
REMARK    5  A    between atoms: N_16  and  C_17
REMARK    6  A    between atoms: C_17  and  C_18
REMARK    7  A    between atoms: C_18  and  C_19
REMARK                            x       y       z     vdW  Elec       q    Type
REMARK                         _______ _______ _______ _____ _____    ______ ____
ROOT
ATOM      1  C   UNL     1      37.452   1.667  14.338  0.00  0.00    +0.000 C 
ATOM      2  O   UNL     1      36.759   2.444  13.400  0.00  0.00    +0.000 OA
ATOM      3  C   UNL     1      37.890   0.428  13.649  0.00  0.00    +0.000 C 
ATOM      4  O   UNL     1      38.715   0.384  12.704  0.00  0.00    +0.000 OA
ATOM      5  N   UNL     1      37.242  -0.707  14.212  0.00  0.00    +0.000 N 
ATOM      6  C   UNL     1      36.397  -0.223  15.239  0.00  0.00    +0.000 A 
ATOM      7  C   UNL     1      35.548  -0.882  16.092  0.00  0.00    +0.000 A 
ATOM      8  C   UNL     1      34.799  -0.204  17.035  0.00  0.00    +0.000 A 
ATOM      9  C   UNL     1      34.923   1.183  17.103  0.00  0.00    +0.000 A 
ATOM     10  C   UNL     1      35.759   1.873  16.268  0.00  0.00    +0.000 A 
ATOM     11  C   UNL     1      36.490   1.151  15.340  0.00  0.00    +0.000 A 
ENDROOT
BRANCH   1  12
ATOM     12  C   UNL     1      38.602   2.424  14.921  0.00  0.00    +0.000 C 
BRANCH  12  13
ATOM     13  C   UNL     1      38.238   3.852  15.055  0.00  0.00    +0.000 C 
ATOM     14  O   UNL     1      37.458   4.342  14.205  0.00  0.00    +0.000 OA
BRANCH  13  18
ATOM     15  C   UNL     1      39.891   6.167  18.248  0.00  0.00    +0.000 A 
ATOM     16  C   UNL     1      40.408   6.232  16.978  0.00  0.00    +0.000 A 
ATOM     17  C   UNL     1      39.862   5.480  15.956  0.00  0.00    +0.000 A 
ATOM     18  C   UNL     1      38.786   4.639  16.151  0.00  0.00    +0.000 A 
ATOM     19  C   UNL     1      38.267   4.571  17.425  0.00  0.00    +0.000 A 
ATOM     20  C   UNL     1      38.819   5.328  18.447  0.00  0.00    +0.000 A 
BRANCH  15  22
ATOM     21  C   UNL     1      39.369   7.377  20.356  0.00  0.00    +0.000 C 
ATOM     22  C   UNL     1      40.441   6.950  19.388  0.00  0.00    +0.000 C 
ATOM     23  C   UNL     1      41.479   6.151  20.151  0.00  0.00    +0.000 C 
ATOM     24  C   UNL     1      41.114   8.175  18.755  0.00  0.00    +0.000 C 
ENDBRANCH  15  22
ENDBRANCH  13  18
ENDBRANCH  12  13
ENDBRANCH   1  12
BRANCH   5  25
ATOM     25  C   UNL     1      37.420  -2.092  13.815  0.00  0.00    +0.000 C 
BRANCH  25  26
ATOM     26  C   UNL     1      38.471  -2.768  14.619  0.00  0.00    +0.000 C 
BRANCH  26  27
ATOM     27  C   UNL     1      39.851  -2.592  14.142  0.00  0.00    +0.000 A 
ATOM     28  C   UNL     1      40.109  -2.892  12.827  0.00  0.00    +0.000 A 
ATOM     29  C   UNL     1      41.349  -2.772  12.239  0.00  0.00    +0.000 A 
ATOM     30  C   UNL     1      42.376  -2.318  13.047  0.00  0.00    +0.000 A 
ATOM     31  C   UNL     1      42.139  -2.012  14.367  0.00  0.00    +0.000 A 
ATOM     32  C   UNL     1      40.884  -2.145  14.924  0.00  0.00    +0.000 A 
ENDBRANCH  26  27
ENDBRANCH  25  26
ENDBRANCH   5  25
TORSDOF 7
ENDMDL
MODEL 5
REMARK VINA RESULT:      -8.4     28.685     30.890
REMARK  Name = 
REMARK  7 active torsions:
REMARK  status: ('A' for Active; 'I' for Inactive)
REMARK    1  A    between atoms: C_2  and  C_5
REMARK    2  A    between atoms: C_8  and  C_9
REMARK    3  A    between atoms: C_9  and  C_11
REMARK    4  A    between atoms: C_11  and  C_12
REMARK    5  A    between atoms: N_16  and  C_17
REMARK    6  A    between atoms: C_17  and  C_18
REMARK    7  A    between atoms: C_18  and  C_19
REMARK                            x       y       z     vdW  Elec       q    Type
REMARK                         _______ _______ _______ _____ _____    ______ ____
ROOT
ATOM      1  C   UNL     1      24.330  -9.425  40.019  0.00  0.00    +0.000 C 
ATOM      2  O   UNL     1      23.299  -8.501  39.799  0.00  0.00    +0.000 OA
ATOM      3  C   UNL     1      23.773 -10.776  39.764  0.00  0.00    +0.000 C 
ATOM      4  O   UNL     1      23.367 -11.190  38.651  0.00  0.00    +0.000 OA
ATOM      5  N   UNL     1      23.765 -11.542  40.964  0.00  0.00    +0.000 N 
ATOM      6  C   UNL     1      24.297 -10.711  41.979  0.00  0.00    +0.000 A 
ATOM      7  C   UNL     1      24.508 -10.942  43.314  0.00  0.00    +0.000 A 
ATOM      8  C   UNL     1      25.045  -9.974  44.141  0.00  0.00    +0.000 A 
ATOM      9  C   UNL     1      25.370  -8.738  43.585  0.00  0.00    +0.000 A 
ATOM     10  C   UNL     1      25.173  -8.472  42.257  0.00  0.00    +0.000 A 
ATOM     11  C   UNL     1      24.633  -9.473  41.468  0.00  0.00    +0.000 A 
ENDROOT
BRANCH   1  12
ATOM     12  C   UNL     1      25.512  -9.131  39.151  0.00  0.00    +0.000 C 
BRANCH  12  13
ATOM     13  C   UNL     1      26.459 -10.266  39.205  0.00  0.00    +0.000 C 
ATOM     14  O   UNL     1      26.471 -11.070  38.243  0.00  0.00    +0.000 OA
BRANCH  13  18
ATOM     15  C   UNL     1      29.014 -10.755  42.600  0.00  0.00    +0.000 A 
ATOM     16  C   UNL     1      28.191 -11.768  42.174  0.00  0.00    +0.000 A 
ATOM     17  C   UNL     1      27.373 -11.596  41.074  0.00  0.00    +0.000 A 
ATOM     18  C   UNL     1      27.339 -10.420  40.355  0.00  0.00    +0.000 A 
ATOM     19  C   UNL     1      28.164  -9.401  40.781  0.00  0.00    +0.000 A 
ATOM     20  C   UNL     1      28.982  -9.579  41.886  0.00  0.00    +0.000 A 
BRANCH  15  22
ATOM     21  C   UNL     1      30.556 -12.240  43.864  0.00  0.00    +0.000 C 
ATOM     22  C   UNL     1      29.912 -10.881  43.780  0.00  0.00    +0.000 C 
ATOM     23  C   UNL     1      31.011  -9.837  43.745  0.00  0.00    +0.000 C 
ATOM     24  C   UNL     1      29.018 -10.632  45.002  0.00  0.00    +0.000 C 
ENDBRANCH  15  22
ENDBRANCH  13  18
ENDBRANCH  12  13
ENDBRANCH   1  12
BRANCH   5  25
ATOM     25  C   UNL     1      23.307 -12.911  41.115  0.00  0.00    +0.000 C 
BRANCH  25  26
ATOM     26  C   UNL     1      23.919 -13.815  40.106  0.00  0.00    +0.000 C 
BRANCH  26  27
ATOM     27  C   UNL     1      25.233 -14.370  40.461  0.00  0.00    +0.000 A 
ATOM     28  C   UNL     1      25.448 -14.694  41.779  0.00  0.00    +0.000 A 
ATOM     29  C   UNL     1      26.625 -15.226  42.258  0.00  0.00    +0.000 A 
ATOM     30  C   UNL     1      27.632 -15.437  41.333  0.00  0.00    +0.000 A 
ATOM     31  C   UNL     1      27.438 -15.119  40.009  0.00  0.00    +0.000 A 
ATOM     32  C   UNL     1      26.246 -14.586  39.563  0.00  0.00    +0.000 A 
ENDBRANCH  26  27
ENDBRANCH  25  26
ENDBRANCH   5  25
TORSDOF 7
ENDMDL
MODEL 6
REMARK VINA RESULT:      -8.3      2.525      7.914
REMARK  Name = 
REMARK  7 active torsions:
REMARK  status: ('A' for Active; 'I' for Inactive)
REMARK    1  A    between atoms: C_2  and  C_5
REMARK    2  A    between atoms: C_8  and  C_9
REMARK    3  A    between atoms: C_9  and  C_11
REMARK    4  A    between atoms: C_11  and  C_12
REMARK    5  A    between atoms: N_16  and  C_17
REMARK    6  A    between atoms: C_17  and  C_18
REMARK    7  A    between atoms: C_18  and  C_19
REMARK                            x       y       z     vdW  Elec       q    Type
REMARK                         _______ _______ _______ _____ _____    ______ ____
ROOT
ATOM      1  C   UNL     1      36.400   1.256  14.588  0.00  0.00    +0.000 C 
ATOM      2  O   UNL     1      35.133   1.853  14.535  0.00  0.00    +0.000 OA
ATOM      3  C   UNL     1      37.266   2.130  15.417  0.00  0.00    +0.000 C 
ATOM      4  O   UNL     1      37.100   2.356  16.640  0.00  0.00    +0.000 OA
ATOM      5  N   UNL     1      38.316   2.677  14.628  0.00  0.00    +0.000 N 
ATOM      6  C   UNL     1      38.138   2.179  13.314  0.00  0.00    +0.000 A 
ATOM      7  C   UNL     1      38.857   2.390  12.165  0.00  0.00    +0.000 A 
ATOM      8  C   UNL     1      38.501   1.797  10.969  0.00  0.00    +0.000 A 
ATOM      9  C   UNL     1      37.380   0.970  10.951  0.00  0.00    +0.000 A 
ATOM     10  C   UNL     1      36.638   0.738  12.077  0.00  0.00    +0.000 A 
ATOM     11  C   UNL     1      37.034   1.352  13.253  0.00  0.00    +0.000 A 
ENDROOT
BRANCH   1  12
ATOM     12  C   UNL     1      36.319  -0.135  15.133  0.00  0.00    +0.000 C 
BRANCH  12  13
ATOM     13  C   UNL     1      37.673  -0.598  15.510  0.00  0.00    +0.000 C 
ATOM     14  O   UNL     1      37.981  -0.585  16.726  0.00  0.00    +0.000 OA
BRANCH  13  18
ATOM     15  C   UNL     1      40.418  -1.874  12.489  0.00  0.00    +0.000 A 
ATOM     16  C   UNL     1      40.794  -0.985  13.466  0.00  0.00    +0.000 A 
ATOM     17  C   UNL     1      39.897  -0.584  14.436  0.00  0.00    +0.000 A 
ATOM     18  C   UNL     1      38.599  -1.046  14.479  0.00  0.00    +0.000 A 
ATOM     19  C   UNL     1      38.218  -1.938  13.500  0.00  0.00    +0.000 A 
ATOM     20  C   UNL     1      39.123  -2.337  12.528  0.00  0.00    +0.000 A 
BRANCH  15  22
ATOM     21  C   UNL     1      40.603  -2.985  10.273  0.00  0.00    +0.000 C 
ATOM     22  C   UNL     1      41.339  -2.338  11.417  0.00  0.00    +0.000 C 
ATOM     23  C   UNL     1      42.159  -1.188  10.864  0.00  0.00    +0.000 C 
ATOM     24  C   UNL     1      42.278  -3.346  12.093  0.00  0.00    +0.000 C 
ENDBRANCH  15  22
ENDBRANCH  13  18
ENDBRANCH  12  13
ENDBRANCH   1  12
BRANCH   5  25
ATOM     25  C   UNL     1      39.369   3.567  15.082  0.00  0.00    +0.000 C 
BRANCH  25  26
ATOM     26  C   UNL     1      38.828   4.860  15.575  0.00  0.00    +0.000 C 
BRANCH  26  27
ATOM     27  C   UNL     1      39.508   5.431  16.747  0.00  0.00    +0.000 A 
ATOM     28  C   UNL     1      38.858   5.353  17.955  0.00  0.00    +0.000 A 
ATOM     29  C   UNL     1      39.372   5.839  19.137  0.00  0.00    +0.000 A 
ATOM     30  C   UNL     1      40.619   6.434  19.073  0.00  0.00    +0.000 A 
ATOM     31  C   UNL     1      41.287   6.522  17.873  0.00  0.00    +0.000 A 
ATOM     32  C   UNL     1      40.742   6.026  16.707  0.00  0.00    +0.000 A 
ENDBRANCH  26  27
ENDBRANCH  25  26
ENDBRANCH   5  25
TORSDOF 7
ENDMDL
MODEL 7
REMARK VINA RESULT:      -8.3      2.065      3.088
REMARK  Name = 
REMARK  7 active torsions:
REMARK  status: ('A' for Active; 'I' for Inactive)
REMARK    1  A    between atoms: C_2  and  C_5
REMARK    2  A    between atoms: C_8  and  C_9
REMARK    3  A    between atoms: C_9  and  C_11
REMARK    4  A    between atoms: C_11  and  C_12
REMARK    5  A    between atoms: N_16  and  C_17
REMARK    6  A    between atoms: C_17  and  C_18
REMARK    7  A    between atoms: C_18  and  C_19
REMARK                            x       y       z     vdW  Elec       q    Type
REMARK                         _______ _______ _______ _____ _____    ______ ____
ROOT
ATOM      1  C   UNL     1      36.574   1.266  15.849  0.00  0.00    +0.000 C 
ATOM      2  O   UNL     1      35.953   1.624  14.645  0.00  0.00    +0.000 OA
ATOM      3  C   UNL     1      37.939   0.788  15.517  0.00  0.00    +0.000 C 
ATOM      4  O   UNL     1      38.850   1.498  15.025  0.00  0.00    +0.000 OA
ATOM      5  N   UNL     1      38.071  -0.592  15.837  0.00  0.00    +0.000 N 
ATOM      6  C   UNL     1      36.823  -1.009  16.359  0.00  0.00    +0.000 A 
ATOM      7  C   UNL     1      36.400  -2.231  16.816  0.00  0.00    +0.000 A 
ATOM      8  C   UNL     1      35.116  -2.423  17.288  0.00  0.00    +0.000 A 
ATOM      9  C   UNL     1      34.244  -1.335  17.290  0.00  0.00    +0.000 A 
ATOM     10  C   UNL     1      34.631  -0.102  16.842  0.00  0.00    +0.000 A 
ATOM     11  C   UNL     1      35.928   0.043  16.379  0.00  0.00    +0.000 A 
ENDROOT
BRANCH   1  12
ATOM     12  C   UNL     1      36.597   2.415  16.806  0.00  0.00    +0.000 C 
BRANCH  12  13
ATOM     13  C   UNL     1      37.078   3.629  16.110  0.00  0.00    +0.000 C 
ATOM     14  O   UNL     1      36.531   3.942  15.025  0.00  0.00    +0.000 OA
BRANCH  13  18
ATOM     15  C   UNL     1      40.220   5.949  17.853  0.00  0.00    +0.000 A 
ATOM     16  C   UNL     1      39.271   5.333  18.631  0.00  0.00    +0.000 A 
ATOM     17  C   UNL     1      38.264   4.585  18.054  0.00  0.00    +0.000 A 
ATOM     18  C   UNL     1      38.158   4.417  16.690  0.00  0.00    +0.000 A 
ATOM     19  C   UNL     1      39.108   5.035  15.906  0.00  0.00    +0.000 A 
ATOM     20  C   UNL     1      40.117   5.785  16.491  0.00  0.00    +0.000 A 
BRANCH  15  22
ATOM     21  C   UNL     1      41.611   6.427  19.857  0.00  0.00    +0.000 C 
ATOM     22  C   UNL     1      41.325   6.770  18.419  0.00  0.00    +0.000 C 
ATOM     23  C   UNL     1      42.603   6.589  17.624  0.00  0.00    +0.000 C 
ATOM     24  C   UNL     1      40.856   8.226  18.295  0.00  0.00    +0.000 C 
ENDBRANCH  15  22
ENDBRANCH  13  18
ENDBRANCH  12  13
ENDBRANCH   1  12
BRANCH   5  25
ATOM     25  C   UNL     1      39.257  -1.411  15.668  0.00  0.00    +0.000 C 
BRANCH  25  26
ATOM     26  C   UNL     1      39.308  -2.043  14.324  0.00  0.00    +0.000 C 
BRANCH  26  27
ATOM     27  C   UNL     1      40.654  -2.298  13.790  0.00  0.00    +0.000 A 
ATOM     28  C   UNL     1      41.715  -1.721  14.446  0.00  0.00    +0.000 A 
ATOM     29  C   UNL     1      43.030  -1.874  14.066  0.00  0.00    +0.000 A 
ATOM     30  C   UNL     1      43.266  -2.662  12.954  0.00  0.00    +0.000 A 
ATOM     31  C   UNL     1      42.218  -3.248  12.282  0.00  0.00    +0.000 A 
ATOM     32  C   UNL     1      40.912  -3.073  12.689  0.00  0.00    +0.000 A 
ENDBRANCH  26  27
ENDBRANCH  25  26
ENDBRANCH   5  25
TORSDOF 7
ENDMDL
MODEL 8
REMARK VINA RESULT:      -8.2      2.443      4.347
REMARK  Name = 
REMARK  7 active torsions:
REMARK  status: ('A' for Active; 'I' for Inactive)
REMARK    1  A    between atoms: C_2  and  C_5
REMARK    2  A    between atoms: C_8  and  C_9
REMARK    3  A    between atoms: C_9  and  C_11
REMARK    4  A    between atoms: C_11  and  C_12
REMARK    5  A    between atoms: N_16  and  C_17
REMARK    6  A    between atoms: C_17  and  C_18
REMARK    7  A    between atoms: C_18  and  C_19
REMARK                            x       y       z     vdW  Elec       q    Type
REMARK                         _______ _______ _______ _____ _____    ______ ____
ROOT
ATOM      1  C   UNL     1      38.236   5.037  16.247  0.00  0.00    +0.000 C 
ATOM      2  O   UNL     1      39.505   4.528  15.938  0.00  0.00    +0.000 OA
ATOM      3  C   UNL     1      37.467   3.944  16.892  0.00  0.00    +0.000 C 
ATOM      4  O   UNL     1      37.748   3.423  17.999  0.00  0.00    +0.000 OA
ATOM      5  N   UNL     1      36.361   3.571  16.079  0.00  0.00    +0.000 N 
ATOM      6  C   UNL     1      36.408   4.393  14.927  0.00  0.00    +0.000 A 
ATOM      7  C   UNL     1      35.592   4.450  13.826  0.00  0.00    +0.000 A 
ATOM      8  C   UNL     1      35.825   5.341  12.797  0.00  0.00    +0.000 A 
ATOM      9  C   UNL     1      36.924   6.194  12.899  0.00  0.00    +0.000 A 
ATOM     10  C   UNL     1      37.759   6.164  13.982  0.00  0.00    +0.000 A 
ATOM     11  C   UNL     1      37.485   5.255  14.989  0.00  0.00    +0.000 A 
ENDROOT
BRANCH   1  12
ATOM     12  C   UNL     1      38.337   6.246  17.122  0.00  0.00    +0.000 C 
BRANCH  12  13
ATOM     13  C   UNL     1      39.642   6.909  16.900  0.00  0.00    +0.000 C 
ATOM     14  O   UNL     1      39.797   7.566  15.843  0.00  0.00    +0.000 OA
BRANCH  13  18
ATOM     15  C   UNL     1      42.707   6.549  19.860  0.00  0.00    +0.000 A 
ATOM     16  C   UNL     1      41.380   6.423  20.189  0.00  0.00    +0.000 A 
ATOM     17  C   UNL     1      40.401   6.540  19.221  0.00  0.00    +0.000 A 
ATOM     18  C   UNL     1      40.697   6.782  17.896  0.00  0.00    +0.000 A 
ATOM     19  C   UNL     1      42.029   6.908  17.564  0.00  0.00    +0.000 A 
ATOM     20  C   UNL     1      43.007   6.791  18.540  0.00  0.00    +0.000 A 
BRANCH  15  22
ATOM     21  C   UNL     1      43.661   5.216  21.730  0.00  0.00    +0.000 C 
ATOM     22  C   UNL     1      43.804   6.437  20.860  0.00  0.00    +0.000 C 
ATOM     23  C   UNL     1      45.159   6.381  20.182  0.00  0.00    +0.000 C 
ATOM     24  C   UNL     1      43.717   7.715  21.706  0.00  0.00    +0.000 C 
ENDBRANCH  15  22
ENDBRANCH  13  18
ENDBRANCH  12  13
ENDBRANCH   1  12
BRANCH   5  25
ATOM     25  C   UNL     1      35.372   2.550  16.375  0.00  0.00    +0.000 C 
BRANCH  25  26
ATOM     26  C   UNL     1      35.818   1.202  15.936  0.00  0.00    +0.000 C 
BRANCH  26  27
ATOM     27  C   UNL     1      36.158   0.261  17.013  0.00  0.00    +0.000 A 
ATOM     28  C   UNL     1      37.004  -0.776  16.703  0.00  0.00    +0.000 A 
ATOM     29  C   UNL     1      37.414  -1.731  17.607  0.00  0.00    +0.000 A 
ATOM     30  C   UNL     1      36.929  -1.612  18.898  0.00  0.00    +0.000 A 
ATOM     31  C   UNL     1      36.080  -0.581  19.229  0.00  0.00    +0.000 A 
ATOM     32  C   UNL     1      35.689   0.358  18.297  0.00  0.00    +0.000 A 
ENDBRANCH  26  27
ENDBRANCH  25  26
ENDBRANCH   5  25
TORSDOF 7
ENDMDL
MODEL 9
REMARK VINA RESULT:      -8.2     18.212     21.705
REMARK  Name = 
REMARK  7 active torsions:
REMARK  status: ('A' for Active; 'I' for Inactive)
REMARK    1  A    between atoms: C_2  and  C_5
REMARK    2  A    between atoms: C_8  and  C_9
REMARK    3  A    between atoms: C_9  and  C_11
REMARK    4  A    between atoms: C_11  and  C_12
REMARK    5  A    between atoms: N_16  and  C_17
REMARK    6  A    between atoms: C_17  and  C_18
REMARK    7  A    between atoms: C_18  and  C_19
REMARK                            x       y       z     vdW  Elec       q    Type
REMARK                         _______ _______ _______ _____ _____    ______ ____
ROOT
ATOM      1  C   UNL     1      25.804  18.054  21.205  0.00  0.00    +0.000 C 
ATOM      2  O   UNL     1      25.999  18.237  22.581  0.00  0.00    +0.000 OA
ATOM      3  C   UNL     1      24.478  18.629  20.866  0.00  0.00    +0.000 C 
ATOM      4  O   UNL     1      24.178  19.845  20.951  0.00  0.00    +0.000 OA
ATOM      5  N   UNL     1      23.592  17.605  20.429  0.00  0.00    +0.000 N 
ATOM      6  C   UNL     1      24.317  16.390  20.486  0.00  0.00    +0.000 A 
ATOM      7  C   UNL     1      23.946  15.105  20.182  0.00  0.00    +0.000 A 
ATOM      8  C   UNL     1      24.824  14.047  20.315  0.00  0.00    +0.000 A 
ATOM      9  C   UNL     1      26.114  14.314  20.771  0.00  0.00    +0.000 A 
ATOM     10  C   UNL     1      26.519  15.583  21.084  0.00  0.00    +0.000 A 
ATOM     11  C   UNL     1      25.604  16.611  20.934  0.00  0.00    +0.000 A 
ENDROOT
BRANCH   1  12
ATOM     12  C   UNL     1      26.908  18.682  20.415  0.00  0.00    +0.000 C 
BRANCH  12  13
ATOM     13  C   UNL     1      27.704  19.566  21.296  0.00  0.00    +0.000 C 
ATOM     14  O   UNL     1      27.281  20.728  21.501  0.00  0.00    +0.000 OA
BRANCH  13  18
ATOM     15  C   UNL     1      31.312  18.074  23.043  0.00  0.00    +0.000 A 
ATOM     16  C   UNL     1      30.452  17.247  22.364  0.00  0.00    +0.000 A 
ATOM     17  C   UNL     1      29.292  17.743  21.803  0.00  0.00    +0.000 A 
ATOM     18  C   UNL     1      28.939  19.073  21.890  0.00  0.00    +0.000 A 
ATOM     19  C   UNL     1      29.800  19.907  22.571  0.00  0.00    +0.000 A 
ATOM     20  C   UNL     1      30.963  19.402  23.133  0.00  0.00    +0.000 A 
BRANCH  15  22
ATOM     21  C   UNL     1      32.779  18.170  25.047  0.00  0.00    +0.000 C 
ATOM     22  C   UNL     1      32.573  17.595  23.671  0.00  0.00    +0.000 C 
ATOM     23  C   UNL     1      32.589  16.083  23.780  0.00  0.00    +0.000 C 
ATOM     24  C   UNL     1      33.695  18.044  22.726  0.00  0.00    +0.000 C 
ENDBRANCH  15  22
ENDBRANCH  13  18
ENDBRANCH  12  13
ENDBRANCH   1  12
BRANCH   5  25
ATOM     25  C   UNL     1      22.216  17.774  20.001  0.00  0.00    +0.000 C 
BRANCH  25  26
ATOM     26  C   UNL     1      22.127  18.251  18.595  0.00  0.00    +0.000 C 
BRANCH  26  27
ATOM     27  C   UNL     1      20.769  18.506  18.093  0.00  0.00    +0.000 A 
ATOM     28  C   UNL     1      20.644  18.924  16.791  0.00  0.00    +0.000 A 
ATOM     29  C   UNL     1      19.438  19.198  16.183  0.00  0.00    +0.000 A 
ATOM     30  C   UNL     1      18.303  19.029  16.954  0.00  0.00    +0.000 A 
ATOM     31  C   UNL     1      18.405  18.611  18.261  0.00  0.00    +0.000 A 
ATOM     32  C   UNL     1      19.630  18.348  18.839  0.00  0.00    +0.000 A 
ENDBRANCH  26  27
ENDBRANCH  25  26
ENDBRANCH   5  25
TORSDOF 7
ENDMDL
MODEL 10
REMARK VINA RESULT:      -8.1      3.632      8.813
REMARK  Name = 
REMARK  7 active torsions:
REMARK  status: ('A' for Active; 'I' for Inactive)
REMARK    1  A    between atoms: C_2  and  C_5
REMARK    2  A    between atoms: C_8  and  C_9
REMARK    3  A    between atoms: C_9  and  C_11
REMARK    4  A    between atoms: C_11  and  C_12
REMARK    5  A    between atoms: N_16  and  C_17
REMARK    6  A    between atoms: C_17  and  C_18
REMARK    7  A    between atoms: C_18  and  C_19
REMARK                            x       y       z     vdW  Elec       q    Type
REMARK                         _______ _______ _______ _____ _____    ______ ____
ROOT
ATOM      1  C   UNL     1      37.506   5.373  14.773  0.00  0.00    +0.000 C 
ATOM      2  O   UNL     1      38.464   4.687  14.014  0.00  0.00    +0.000 OA
ATOM      3  C   UNL     1      37.521   6.789  14.329  0.00  0.00    +0.000 C 
ATOM      4  O   UNL     1      37.193   7.187  13.185  0.00  0.00    +0.000 OA
ATOM      5  N   UNL     1      37.960   7.634  15.386  0.00  0.00    +0.000 N 
ATOM      6  C   UNL     1      38.231   6.793  16.492  0.00  0.00    +0.000 A 
ATOM      7  C   UNL     1      38.682   7.082  17.755  0.00  0.00    +0.000 A 
ATOM      8  C   UNL     1      38.886   6.092  18.696  0.00  0.00    +0.000 A 
ATOM      9  C   UNL     1      38.622   4.772  18.332  0.00  0.00    +0.000 A 
ATOM     10  C   UNL     1      38.171   4.447  17.082  0.00  0.00    +0.000 A 
ATOM     11  C   UNL     1      37.981   5.473  16.173  0.00  0.00    +0.000 A 
ENDROOT
BRANCH   1  12
ATOM     12  C   UNL     1      36.153   4.751  14.625  0.00  0.00    +0.000 C 
BRANCH  12  13
ATOM     13  C   UNL     1      36.298   3.371  14.111  0.00  0.00    +0.000 C 
ATOM     14  O   UNL     1      36.655   3.221  12.918  0.00  0.00    +0.000 OA
BRANCH  13  18
ATOM     15  C   UNL     1      35.480   0.081  16.718  0.00  0.00    +0.000 A 
ATOM     16  C   UNL     1      34.840   1.286  16.868  0.00  0.00    +0.000 A 
ATOM     17  C   UNL     1      35.113   2.339  16.017  0.00  0.00    +0.000 A 
ATOM     18  C   UNL     1      36.025   2.240  14.987  0.00  0.00    +0.000 A 
ATOM     19  C   UNL     1      36.669   1.031  14.835  0.00  0.00    +0.000 A 
ATOM     20  C   UNL     1      36.391  -0.022  15.692  0.00  0.00    +0.000 A 
BRANCH  15  22
ATOM     21  C   UNL     1      33.818  -1.597  17.493  0.00  0.00    +0.000 C 
ATOM     22  C   UNL     1      35.230  -1.086  17.607  0.00  0.00    +0.000 C 
ATOM     23  C   UNL     1      36.175  -2.228  17.290  0.00  0.00    +0.000 C 
ATOM     24  C   UNL     1      35.508  -0.582  19.030  0.00  0.00    +0.000 C 
ENDBRANCH  15  22
ENDBRANCH  13  18
ENDBRANCH  12  13
ENDBRANCH   1  12
BRANCH   5  25
ATOM     25  C   UNL     1      38.095   9.078  15.341  0.00  0.00    +0.000 C 
BRANCH  25  26
ATOM     26  C   UNL     1      36.900   9.730  14.745  0.00  0.00    +0.000 C 
BRANCH  26  27
ATOM     27  C   UNL     1      35.640   9.547  15.482  0.00  0.00    +0.000 A 
ATOM     28  C   UNL     1      35.586  10.023  16.769  0.00  0.00    +0.000 A 
ATOM     29  C   UNL     1      34.475   9.928  17.578  0.00  0.00    +0.000 A 
ATOM     30  C   UNL     1      33.362   9.313  17.033  0.00  0.00    +0.000 A 
ATOM     31  C   UNL     1      33.396   8.828  15.746  0.00  0.00    +0.000 A 
ATOM     32  C   UNL     1      34.526   8.939  14.964  0.00  0.00    +0.000 A 
ENDBRANCH  26  27
ENDBRANCH  25  26
ENDBRANCH   5  25
TORSDOF 7
ENDMDL
