MODEL 1
REMARK VINA RESULT:      -7.5      0.000      0.000
REMARK  Name = 
REMARK  8 active torsions:
REMARK  status: ('A' for Active; 'I' for Inactive)
REMARK    1  A    between atoms: O_2  and  C_3
REMARK    2  A    between atoms: C_3  and  C_4
REMARK    3  A    between atoms: C_4  and  O_6
REMARK    4  A    between atoms: O_6  and  C_7
REMARK    5  A    between atoms: C_7  and  C_9
REMARK    6  A    between atoms: N_12  and  C_13
REMARK    7  A    between atoms: C_13  and  C_14
REMARK    8  A    between atoms: C_14  and  C_15
REMARK                            x       y       z     vdW  Elec       q    Type
REMARK                         _______ _______ _______ _____ _____    ______ ____
ROOT
ATOM      1  C   UNL     1      36.108  -0.382  16.063  0.00  0.00    +0.000 A 
ATOM      2  C   UNL     1      35.765   0.937  16.172  0.00  0.00    +0.000 A 
ATOM      3  N   UNL     1      34.513   1.408  16.629  0.00  0.00    +0.000 NA
ATOM      4  N   UNL     1      36.809   1.687  15.773  0.00  0.00    +0.000 N 
ATOM      5  C   UNL     1      37.817   0.871  15.411  0.00  0.00    +0.000 A 
ATOM      6  N   UNL     1      39.080   1.077  14.940  0.00  0.00    +0.000 NA
ATOM      7  C   UNL     1      39.891   0.042  14.653  0.00  0.00    +0.000 A 
ATOM      8  C   UNL     1      41.168   0.259  14.176  0.00  0.00    +0.000 A 
ATOM      9  C   UNL     1      41.986  -0.822  13.889  0.00  0.00    +0.000 A 
ATOM     10  C   UNL     1      41.532  -2.112  14.075  0.00  0.00    +0.000 A 
ATOM     11  C   UNL     1      40.252  -2.339  14.553  0.00  0.00    +0.000 A 
ATOM     12  C   UNL     1      39.464  -1.259  14.830  0.00  0.00    +0.000 A 
ATOM     13  N   UNL     1      38.235  -1.453  15.290  0.00  0.00    +0.000 NA
ATOM     14  C   UNL     1      37.395  -0.419  15.586  0.00  0.00    +0.000 A 
ENDROOT
BRANCH   1  15
ATOM     15  C   UNL     1      35.340  -1.576  16.365  0.00  0.00    +0.000 C 
ATOM     16  O   UNL     1      34.916  -1.750  17.527  0.00  0.00    +0.000 OA
BRANCH  15  17
ATOM     17  O   UNL     1      35.072  -2.499  15.434  0.00  0.00    +0.000 OA
BRANCH  17  18
ATOM     18  C   UNL     1      35.186  -4.002  15.810  0.00  0.00    +0.000 C 
ATOM     19  C   UNL     1      36.433  -4.281  14.716  0.00  0.00    +0.000 C 
BRANCH  18  20
ATOM     20  C   UNL     1      34.029  -4.545  14.712  0.00  0.00    +0.000 C 
BRANCH  20  22
ATOM     21  C   UNL     1      33.924  -6.777  14.867  0.00  0.00    +0.000 C 
ATOM     22  O   UNL     1      33.439  -5.570  15.425  0.00  0.00    +0.000 OA
ENDBRANCH  20  22
ENDBRANCH  18  20
ENDBRANCH  17  18
ENDBRANCH  15  17
ENDBRANCH   1  15
BRANCH   4  23
ATOM     23  C   UNL     1      36.891   3.137  15.722  0.00  0.00    +0.000 C 
BRANCH  23  24
ATOM     24  C   UNL     1      37.165   3.629  17.143  0.00  0.00    +0.000 C 
BRANCH  24  25
ATOM     25  C   UNL     1      38.368   4.501  17.094  0.00  0.00    +0.000 A 
ATOM     26  C   UNL     1      38.863   5.000  18.288  0.00  0.00    +0.000 A 
ATOM     27  C   UNL     1      39.964   5.808  18.323  0.00  0.00    +0.000 A 
ATOM     28  C   UNL     1      40.607   6.145  17.160  0.00  0.00    +0.000 A 
ATOM     29  C   UNL     1      40.129   5.661  15.975  0.00  0.00    +0.000 A 
ATOM     30  C   UNL     1      39.008   4.835  15.916  0.00  0.00    +0.000 A 
ENDBRANCH  24  25
ENDBRANCH  23  24
ENDBRANCH   4  23
TORSDOF 8
ENDMDL
MODEL 2
REMARK VINA RESULT:      -7.5      2.786      5.896
REMARK  Name = 
REMARK  8 active torsions:
REMARK  status: ('A' for Active; 'I' for Inactive)
REMARK    1  A    between atoms: O_2  and  C_3
REMARK    2  A    between atoms: C_3  and  C_4
REMARK    3  A    between atoms: C_4  and  O_6
REMARK    4  A    between atoms: O_6  and  C_7
REMARK    5  A    between atoms: C_7  and  C_9
REMARK    6  A    between atoms: N_12  and  C_13
REMARK    7  A    between atoms: C_13  and  C_14
REMARK    8  A    between atoms: C_14  and  C_15
REMARK                            x       y       z     vdW  Elec       q    Type
REMARK                         _______ _______ _______ _____ _____    ______ ____
ROOT
ATOM      1  C   UNL     1      36.629   2.440  15.746  0.00  0.00    +0.000 A 
ATOM      2  C   UNL     1      36.902   2.125  14.443  0.00  0.00    +0.000 A 
ATOM      3  N   UNL     1      36.153   1.216  13.662  0.00  0.00    +0.000 NA
ATOM      4  N   UNL     1      37.985   2.820  14.049  0.00  0.00    +0.000 N 
ATOM      5  C   UNL     1      38.412   3.577  15.078  0.00  0.00    +0.000 A 
ATOM      6  N   UNL     1      39.441   4.457  15.244  0.00  0.00    +0.000 NA
ATOM      7  C   UNL     1      39.634   5.086  16.418  0.00  0.00    +0.000 A 
ATOM      8  C   UNL     1      40.678   5.975  16.578  0.00  0.00    +0.000 A 
ATOM      9  C   UNL     1      40.857   6.612  17.795  0.00  0.00    +0.000 A 
ATOM     10  C   UNL     1      40.000   6.363  18.848  0.00  0.00    +0.000 A 
ATOM     11  C   UNL     1      38.950   5.471  18.696  0.00  0.00    +0.000 A 
ATOM     12  C   UNL     1      38.792   4.856  17.488  0.00  0.00    +0.000 A 
ATOM     13  N   UNL     1      37.793   4.000  17.321  0.00  0.00    +0.000 NA
ATOM     14  C   UNL     1      37.579   3.350  16.140  0.00  0.00    +0.000 A 
ENDROOT
BRANCH   1  15
ATOM     15  C   UNL     1      35.575   1.964  16.622  0.00  0.00    +0.000 C 
ATOM     16  O   UNL     1      34.403   2.350  16.432  0.00  0.00    +0.000 OA
BRANCH  15  17
ATOM     17  O   UNL     1      35.823   1.121  17.632  0.00  0.00    +0.000 OA
BRANCH  17  18
ATOM     18  C   UNL     1      36.304  -0.321  17.307  0.00  0.00    +0.000 C 
ATOM     19  C   UNL     1      34.740  -0.937  17.262  0.00  0.00    +0.000 C 
BRANCH  18  20
ATOM     20  C   UNL     1      36.504  -0.803  18.909  0.00  0.00    +0.000 C 
BRANCH  20  22
ATOM     21  C   UNL     1      38.209  -2.085  18.223  0.00  0.00    +0.000 C 
ATOM     22  O   UNL     1      37.877  -0.936  18.982  0.00  0.00    +0.000 OA
ENDBRANCH  20  22
ENDBRANCH  18  20
ENDBRANCH  17  18
ENDBRANCH  15  17
ENDBRANCH   1  15
BRANCH   4  23
ATOM     23  C   UNL     1      38.628   2.798  12.747  0.00  0.00    +0.000 C 
BRANCH  23  24
ATOM     24  C   UNL     1      40.014   2.181  12.932  0.00  0.00    +0.000 C 
BRANCH  24  25
ATOM     25  C   UNL     1      39.830   0.726  13.181  0.00  0.00    +0.000 A 
ATOM     26  C   UNL     1      40.259   0.210  14.393  0.00  0.00    +0.000 A 
ATOM     27  C   UNL     1      40.124  -1.115  14.693  0.00  0.00    +0.000 A 
ATOM     28  C   UNL     1      39.554  -1.971  13.786  0.00  0.00    +0.000 A 
ATOM     29  C   UNL     1      39.126  -1.476  12.586  0.00  0.00    +0.000 A 
ATOM     30  C   UNL     1      39.254  -0.128  12.259  0.00  0.00    +0.000 A 
ENDBRANCH  24  25
ENDBRANCH  23  24
ENDBRANCH   4  23
TORSDOF 8
ENDMDL
MODEL 3
REMARK VINA RESULT:      -7.2      1.927      2.984
REMARK  Name = 
REMARK  8 active torsions:
REMARK  status: ('A' for Active; 'I' for Inactive)
REMARK    1  A    between atoms: O_2  and  C_3
REMARK    2  A    between atoms: C_3  and  C_4
REMARK    3  A    between atoms: C_4  and  O_6
REMARK    4  A    between atoms: O_6  and  C_7
REMARK    5  A    between atoms: C_7  and  C_9
REMARK    6  A    between atoms: N_12  and  C_13
REMARK    7  A    between atoms: C_13  and  C_14
REMARK    8  A    between atoms: C_14  and  C_15
REMARK                            x       y       z     vdW  Elec       q    Type
REMARK                         _______ _______ _______ _____ _____    ______ ____
ROOT
ATOM      1  C   UNL     1      37.383  -0.579  15.312  0.00  0.00    +0.000 A 
ATOM      2  C   UNL     1      36.810   0.659  15.406  0.00  0.00    +0.000 A 
ATOM      3  N   UNL     1      35.485   0.901  15.834  0.00  0.00    +0.000 NA
ATOM      4  N   UNL     1      37.714   1.582  15.027  0.00  0.00    +0.000 N 
ATOM      5  C   UNL     1      38.858   0.956  14.692  0.00  0.00    +0.000 A 
ATOM      6  N   UNL     1      40.075   1.382  14.247  0.00  0.00    +0.000 NA
ATOM      7  C   UNL     1      41.063   0.507  13.983  0.00  0.00    +0.000 A 
ATOM      8  C   UNL     1      42.292   0.946  13.533  0.00  0.00    +0.000 A 
ATOM      9  C   UNL     1      43.294   0.027  13.269  0.00  0.00    +0.000 A 
ATOM     10  C   UNL     1      43.072  -1.323  13.452  0.00  0.00    +0.000 A 
ATOM     11  C   UNL     1      41.841  -1.773  13.902  0.00  0.00    +0.000 A 
ATOM     12  C   UNL     1      40.868  -0.850  14.157  0.00  0.00    +0.000 A 
ATOM     13  N   UNL     1      39.683  -1.258  14.590  0.00  0.00    +0.000 NA
ATOM     14  C   UNL     1      38.668  -0.388  14.863  0.00  0.00    +0.000 A 
ENDROOT
BRANCH   1  15
ATOM     15  C   UNL     1      36.832  -1.890  15.602  0.00  0.00    +0.000 C 
ATOM     16  O   UNL     1      36.221  -2.507  14.704  0.00  0.00    +0.000 OA
BRANCH  15  17
ATOM     17  O   UNL     1      36.960  -2.459  16.806  0.00  0.00    +0.000 OA
BRANCH  17  18
ATOM     18  C   UNL     1      38.217  -2.136  17.661  0.00  0.00    +0.000 C 
ATOM     19  C   UNL     1      38.484  -3.749  18.055  0.00  0.00    +0.000 C 
BRANCH  18  20
ATOM     20  C   UNL     1      37.384  -1.868  19.101  0.00  0.00    +0.000 C 
BRANCH  20  22
ATOM     21  C   UNL     1      36.052  -0.067  19.163  0.00  0.00    +0.000 C 
ATOM     22  O   UNL     1      37.404  -0.488  19.173  0.00  0.00    +0.000 OA
ENDBRANCH  20  22
ENDBRANCH  18  20
ENDBRANCH  17  18
ENDBRANCH  15  17
ENDBRANCH   1  15
BRANCH   4  23
ATOM     23  C   UNL     1      37.539   3.023  14.971  0.00  0.00    +0.000 C 
BRANCH  23  24
ATOM     24  C   UNL     1      37.252   3.503  16.394  0.00  0.00    +0.000 C 
BRANCH  24  25
ATOM     25  C   UNL     1      38.361   4.408  16.797  0.00  0.00    +0.000 A 
ATOM     26  C   UNL     1      39.194   4.902  15.806  0.00  0.00    +0.000 A 
ATOM     27  C   UNL     1      40.234   5.738  16.099  0.00  0.00    +0.000 A 
ATOM     28  C   UNL     1      40.476   6.108  17.397  0.00  0.00    +0.000 A 
ATOM     29  C   UNL     1      39.662   5.627  18.384  0.00  0.00    +0.000 A 
ATOM     30  C   UNL     1      38.596   4.774  18.109  0.00  0.00    +0.000 A 
ENDBRANCH  24  25
ENDBRANCH  23  24
ENDBRANCH   4  23
TORSDOF 8
ENDMDL
MODEL 4
REMARK VINA RESULT:      -7.2      2.776      5.190
REMARK  Name = 
REMARK  8 active torsions:
REMARK  status: ('A' for Active; 'I' for Inactive)
REMARK    1  A    between atoms: O_2  and  C_3
REMARK    2  A    between atoms: C_3  and  C_4
REMARK    3  A    between atoms: C_4  and  O_6
REMARK    4  A    between atoms: O_6  and  C_7
REMARK    5  A    between atoms: C_7  and  C_9
REMARK    6  A    between atoms: N_12  and  C_13
REMARK    7  A    between atoms: C_13  and  C_14
REMARK    8  A    between atoms: C_14  and  C_15
REMARK                            x       y       z     vdW  Elec       q    Type
REMARK                         _______ _______ _______ _____ _____    ______ ____
ROOT
ATOM      1  C   UNL     1      38.954   1.037  14.128  0.00  0.00    +0.000 A 
ATOM      2  C   UNL     1      38.982   2.391  14.321  0.00  0.00    +0.000 A 
ATOM      3  N   UNL     1      39.937   3.265  13.755  0.00  0.00    +0.000 NA
ATOM      4  N   UNL     1      37.959   2.731  15.129  0.00  0.00    +0.000 N 
ATOM      5  C   UNL     1      37.276   1.618  15.456  0.00  0.00    +0.000 A 
ATOM      6  N   UNL     1      36.178   1.373  16.227  0.00  0.00    +0.000 NA
ATOM      7  C   UNL     1      35.703   0.123  16.380  0.00  0.00    +0.000 A 
ATOM      8  C   UNL     1      34.591  -0.117  17.162  0.00  0.00    +0.000 A 
ATOM      9  C   UNL     1      34.119  -1.412  17.306  0.00  0.00    +0.000 A 
ATOM     10  C   UNL     1      34.753  -2.462  16.673  0.00  0.00    +0.000 A 
ATOM     11  C   UNL     1      35.870  -2.230  15.886  0.00  0.00    +0.000 A 
ATOM     12  C   UNL     1      36.317  -0.947  15.759  0.00  0.00    +0.000 A 
ATOM     13  N   UNL     1      37.384  -0.702  15.011  0.00  0.00    +0.000 NA
ATOM     14  C   UNL     1      37.883   0.557  14.841  0.00  0.00    +0.000 A 
ENDROOT
BRANCH   1  15
ATOM     15  C   UNL     1      39.832   0.186  13.346  0.00  0.00    +0.000 C 
ATOM     16  O   UNL     1      39.859   0.315  12.104  0.00  0.00    +0.000 OA
BRANCH  15  17
ATOM     17  O   UNL     1      40.616  -0.735  13.918  0.00  0.00    +0.000 OA
BRANCH  17  18
ATOM     18  C   UNL     1      40.403  -2.232  13.560  0.00  0.00    +0.000 C 
ATOM     19  C   UNL     1      40.409  -2.719  15.169  0.00  0.00    +0.000 C 
BRANCH  18  20
ATOM     20  C   UNL     1      42.037  -2.604  13.386  0.00  0.00    +0.000 C 
BRANCH  20  22
ATOM     21  C   UNL     1      43.648  -1.589  12.204  0.00  0.00    +0.000 C 
ATOM     22  O   UNL     1      42.311  -2.051  12.150  0.00  0.00    +0.000 OA
ENDBRANCH  20  22
ENDBRANCH  18  20
ENDBRANCH  17  18
ENDBRANCH  15  17
ENDBRANCH   1  15
BRANCH   4  23
ATOM     23  C   UNL     1      37.605   4.059  15.599  0.00  0.00    +0.000 C 
BRANCH  23  24
ATOM     24  C   UNL     1      37.772   4.064  17.119  0.00  0.00    +0.000 C 
BRANCH  24  25
ATOM     25  C   UNL     1      38.913   4.961  17.444  0.00  0.00    +0.000 A 
ATOM     26  C   UNL     1      39.109   5.315  18.769  0.00  0.00    +0.000 A 
ATOM     27  C   UNL     1      40.135   6.136  19.144  0.00  0.00    +0.000 A 
ATOM     28  C   UNL     1      41.000   6.631  18.203  0.00  0.00    +0.000 A 
ATOM     29  C   UNL     1      40.818   6.290  16.892  0.00  0.00    +0.000 A 
ATOM     30  C   UNL     1      39.779   5.455  16.486  0.00  0.00    +0.000 A 
ENDBRANCH  24  25
ENDBRANCH  23  24
ENDBRANCH   4  23
TORSDOF 8
ENDMDL
MODEL 5
REMARK VINA RESULT:      -6.8      3.468      7.537
REMARK  Name = 
REMARK  8 active torsions:
REMARK  status: ('A' for Active; 'I' for Inactive)
REMARK    1  A    between atoms: O_2  and  C_3
REMARK    2  A    between atoms: C_3  and  C_4
REMARK    3  A    between atoms: C_4  and  O_6
REMARK    4  A    between atoms: O_6  and  C_7
REMARK    5  A    between atoms: C_7  and  C_9
REMARK    6  A    between atoms: N_12  and  C_13
REMARK    7  A    between atoms: C_13  and  C_14
REMARK    8  A    between atoms: C_14  and  C_15
REMARK                            x       y       z     vdW  Elec       q    Type
REMARK                         _______ _______ _______ _____ _____    ______ ____
ROOT
ATOM      1  C   UNL     1      39.469  -1.017  14.909  0.00  0.00    +0.000 A 
ATOM      2  C   UNL     1      39.310  -2.104  15.724  0.00  0.00    +0.000 A 
ATOM      3  N   UNL     1      40.214  -3.188  15.804  0.00  0.00    +0.000 NA
ATOM      4  N   UNL     1      38.165  -1.959  16.417  0.00  0.00    +0.000 N 
ATOM      5  C   UNL     1      37.587  -0.795  16.061  0.00  0.00    +0.000 A 
ATOM      6  N   UNL     1      36.443  -0.154  16.433  0.00  0.00    +0.000 NA
ATOM      7  C   UNL     1      36.106   1.033  15.895  0.00  0.00    +0.000 A 
ATOM      8  C   UNL     1      34.946   1.676  16.277  0.00  0.00    +0.000 A 
ATOM      9  C   UNL     1      34.620   2.897  15.710  0.00  0.00    +0.000 A 
ATOM     10  C   UNL     1      35.446   3.474  14.767  0.00  0.00    +0.000 A 
ATOM     11  C   UNL     1      36.612   2.835  14.378  0.00  0.00    +0.000 A 
ATOM     12  C   UNL     1      36.914   1.633  14.949  0.00  0.00    +0.000 A 
ATOM     13  N   UNL     1      38.026   1.005  14.592  0.00  0.00    +0.000 NA
ATOM     14  C   UNL     1      38.386  -0.199  15.124  0.00  0.00    +0.000 A 
ENDROOT
BRANCH   1  15
ATOM     15  C   UNL     1      40.530  -0.698  13.972  0.00  0.00    +0.000 C 
ATOM     16  O   UNL     1      41.640  -0.330  14.410  0.00  0.00    +0.000 OA
BRANCH  15  17
ATOM     17  O   UNL     1      40.353  -0.785  12.648  0.00  0.00    +0.000 OA
BRANCH  17  18
ATOM     18  C   UNL     1      41.461  -1.450  11.784  0.00  0.00    +0.000 C 
ATOM     19  C   UNL     1      40.623  -1.204  10.347  0.00  0.00    +0.000 C 
BRANCH  18  20
ATOM     20  C   UNL     1      40.869  -3.022  11.922  0.00  0.00    +0.000 C 
BRANCH  20  22
ATOM     21  C   UNL     1      43.060  -3.108  12.387  0.00  0.00    +0.000 C 
ATOM     22  O   UNL     1      41.787  -3.581  12.789  0.00  0.00    +0.000 OA
ENDBRANCH  20  22
ENDBRANCH  18  20
ENDBRANCH  17  18
ENDBRANCH  15  17
ENDBRANCH   1  15
BRANCH   4  23
ATOM     23  C   UNL     1      37.601  -2.870  17.397  0.00  0.00    +0.000 C 
BRANCH  23  24
ATOM     24  C   UNL     1      37.387  -4.214  16.700  0.00  0.00    +0.000 C 
BRANCH  24  25
ATOM     25  C   UNL     1      36.011  -4.214  16.135  0.00  0.00    +0.000 A 
ATOM     26  C   UNL     1      35.684  -5.193  15.210  0.00  0.00    +0.000 A 
ATOM     27  C   UNL     1      34.441  -5.257  14.648  0.00  0.00    +0.000 A 
ATOM     28  C   UNL     1      33.481  -4.341  14.993  0.00  0.00    +0.000 A 
ATOM     29  C   UNL     1      33.790  -3.369  15.903  0.00  0.00    +0.000 A 
ATOM     30  C   UNL     1      35.051  -3.285  16.490  0.00  0.00    +0.000 A 
ENDBRANCH  24  25
ENDBRANCH  23  24
ENDBRANCH   4  23
TORSDOF 8
ENDMDL
MODEL 6
REMARK VINA RESULT:      -6.8      2.931      5.178
REMARK  Name = 
REMARK  8 active torsions:
REMARK  status: ('A' for Active; 'I' for Inactive)
REMARK    1  A    between atoms: O_2  and  C_3
REMARK    2  A    between atoms: C_3  and  C_4
REMARK    3  A    between atoms: C_4  and  O_6
REMARK    4  A    between atoms: O_6  and  C_7
REMARK    5  A    between atoms: C_7  and  C_9
REMARK    6  A    between atoms: N_12  and  C_13
REMARK    7  A    between atoms: C_13  and  C_14
REMARK    8  A    between atoms: C_14  and  C_15
REMARK                            x       y       z     vdW  Elec       q    Type
REMARK                         _______ _______ _______ _____ _____    ______ ____
ROOT
ATOM      1  C   UNL     1      38.484   2.103  13.913  0.00  0.00    +0.000 A 
ATOM      2  C   UNL     1      38.673   3.372  14.388  0.00  0.00    +0.000 A 
ATOM      3  N   UNL     1      39.470   4.355  13.759  0.00  0.00    +0.000 NA
ATOM      4  N   UNL     1      37.980   3.511  15.534  0.00  0.00    +0.000 N 
ATOM      5  C   UNL     1      37.349   2.352  15.802  0.00  0.00    +0.000 A 
ATOM      6  N   UNL     1      36.528   1.931  16.807  0.00  0.00    +0.000 NA
ATOM      7  C   UNL     1      36.030   0.681  16.818  0.00  0.00    +0.000 A 
ATOM      8  C   UNL     1      35.199   0.263  17.839  0.00  0.00    +0.000 A 
ATOM      9  C   UNL     1      34.697  -1.029  17.829  0.00  0.00    +0.000 A 
ATOM     10  C   UNL     1      35.023  -1.898  16.808  0.00  0.00    +0.000 A 
ATOM     11  C   UNL     1      35.855  -1.487  15.780  0.00  0.00    +0.000 A 
ATOM     12  C   UNL     1      36.338  -0.210  15.809  0.00  0.00    +0.000 A 
ATOM     13  N   UNL     1      37.136   0.205  14.835  0.00  0.00    +0.000 NA
ATOM     14  C   UNL     1      37.653   1.467  14.804  0.00  0.00    +0.000 A 
ENDROOT
BRANCH   1  15
ATOM     15  C   UNL     1      39.009   1.462  12.722  0.00  0.00    +0.000 C 
ATOM     16  O   UNL     1      38.326   1.465  11.677  0.00  0.00    +0.000 OA
BRANCH  15  17
ATOM     17  O   UNL     1      40.207   0.865  12.711  0.00  0.00    +0.000 OA
BRANCH  17  18
ATOM     18  C   UNL     1      40.350  -0.546  13.345  0.00  0.00    +0.000 C 
ATOM     19  C   UNL     1      41.953  -0.292  13.785  0.00  0.00    +0.000 C 
BRANCH  18  20
ATOM     20  C   UNL     1      40.808  -1.329  11.925  0.00  0.00    +0.000 C 
BRANCH  20  22
ATOM     21  C   UNL     1      39.056  -2.380  12.846  0.00  0.00    +0.000 C 
ATOM     22  O   UNL     1      39.654  -2.022  11.613  0.00  0.00    +0.000 OA
ENDBRANCH  20  22
ENDBRANCH  18  20
ENDBRANCH  17  18
ENDBRANCH  15  17
ENDBRANCH   1  15
BRANCH   4  23
ATOM     23  C   UNL     1      37.892   4.689  16.379  0.00  0.00    +0.000 C 
BRANCH  23  24
ATOM     24  C   UNL     1      39.293   4.965  16.925  0.00  0.00    +0.000 C 
BRANCH  24  25
ATOM     25  C   UNL     1      39.160   5.953  18.028  0.00  0.00    +0.000 A 
ATOM     26  C   UNL     1      38.170   6.917  17.927  0.00  0.00    +0.000 A 
ATOM     27  C   UNL     1      37.988   7.858  18.901  0.00  0.00    +0.000 A 
ATOM     28  C   UNL     1      38.792   7.865  20.011  0.00  0.00    +0.000 A 
ATOM     29  C   UNL     1      39.773   6.920  20.123  0.00  0.00    +0.000 A 
ATOM     30  C   UNL     1      39.977   5.951  19.143  0.00  0.00    +0.000 A 
ENDBRANCH  24  25
ENDBRANCH  23  24
ENDBRANCH   4  23
TORSDOF 8
ENDMDL
MODEL 7
REMARK VINA RESULT:      -6.8      2.624      6.753
REMARK  Name = 
REMARK  8 active torsions:
REMARK  status: ('A' for Active; 'I' for Inactive)
REMARK    1  A    between atoms: O_2  and  C_3
REMARK    2  A    between atoms: C_3  and  C_4
REMARK    3  A    between atoms: C_4  and  O_6
REMARK    4  A    between atoms: O_6  and  C_7
REMARK    5  A    between atoms: C_7  and  C_9
REMARK    6  A    between atoms: N_12  and  C_13
REMARK    7  A    between atoms: C_13  and  C_14
REMARK    8  A    between atoms: C_14  and  C_15
REMARK                            x       y       z     vdW  Elec       q    Type
REMARK                         _______ _______ _______ _____ _____    ______ ____
ROOT
ATOM      1  C   UNL     1      37.882   2.861  14.154  0.00  0.00    +0.000 A 
ATOM      2  C   UNL     1      36.783   2.170  14.584  0.00  0.00    +0.000 A 
ATOM      3  N   UNL     1      36.028   1.281  13.786  0.00  0.00    +0.000 NA
ATOM      4  N   UNL     1      36.555   2.484  15.874  0.00  0.00    +0.000 N 
ATOM      5  C   UNL     1      37.491   3.363  16.278  0.00  0.00    +0.000 A 
ATOM      6  N   UNL     1      37.742   4.004  17.455  0.00  0.00    +0.000 NA
ATOM      7  C   UNL     1      38.779   4.855  17.575  0.00  0.00    +0.000 A 
ATOM      8  C   UNL     1      39.026   5.501  18.770  0.00  0.00    +0.000 A 
ATOM      9  C   UNL     1      40.099   6.372  18.870  0.00  0.00    +0.000 A 
ATOM     10  C   UNL     1      40.920   6.598  17.784  0.00  0.00    +0.000 A 
ATOM     11  C   UNL     1      40.679   5.955  16.581  0.00  0.00    +0.000 A 
ATOM     12  C   UNL     1      39.617   5.101  16.505  0.00  0.00    +0.000 A 
ATOM     13  N   UNL     1      39.368   4.474  15.363  0.00  0.00    +0.000 NA
ATOM     14  C   UNL     1      38.323   3.608  15.220  0.00  0.00    +0.000 A 
ENDROOT
BRANCH   1  15
ATOM     15  C   UNL     1      38.530   2.873  12.856  0.00  0.00    +0.000 C 
ATOM     16  O   UNL     1      38.116   3.656  11.975  0.00  0.00    +0.000 OA
BRANCH  15  17
ATOM     17  O   UNL     1      39.560   2.067  12.573  0.00  0.00    +0.000 OA
BRANCH  17  18
ATOM     18  C   UNL     1      40.090   1.109  13.676  0.00  0.00    +0.000 C 
ATOM     19  C   UNL     1      41.669   1.160  13.098  0.00  0.00    +0.000 C 
BRANCH  18  20
ATOM     20  C   UNL     1      39.773  -0.316  12.837  0.00  0.00    +0.000 C 
BRANCH  20  22
ATOM     21  C   UNL     1      38.571  -2.189  13.101  0.00  0.00    +0.000 C 
ATOM     22  O   UNL     1      38.955  -0.980  13.730  0.00  0.00    +0.000 OA
ENDBRANCH  20  22
ENDBRANCH  18  20
ENDBRANCH  17  18
ENDBRANCH  15  17
ENDBRANCH   1  15
BRANCH   4  23
ATOM     23  C   UNL     1      35.495   1.986  16.733  0.00  0.00    +0.000 C 
BRANCH  23  24
ATOM     24  C   UNL     1      36.101   0.899  17.622  0.00  0.00    +0.000 C 
BRANCH  24  25
ATOM     25  C   UNL     1      35.606  -0.414  17.131  0.00  0.00    +0.000 A 
ATOM     26  C   UNL     1      36.438  -1.163  16.315  0.00  0.00    +0.000 A 
ATOM     27  C   UNL     1      36.053  -2.378  15.825  0.00  0.00    +0.000 A 
ATOM     28  C   UNL     1      34.817  -2.885  16.135  0.00  0.00    +0.000 A 
ATOM     29  C   UNL     1      33.985  -2.157  16.938  0.00  0.00    +0.000 A 
ATOM     30  C   UNL     1      34.358  -0.915  17.449  0.00  0.00    +0.000 A 
ENDBRANCH  24  25
ENDBRANCH  23  24
ENDBRANCH   4  23
TORSDOF 8
ENDMDL
MODEL 8
REMARK VINA RESULT:      -6.8      3.415      6.054
REMARK  Name = 
REMARK  8 active torsions:
REMARK  status: ('A' for Active; 'I' for Inactive)
REMARK    1  A    between atoms: O_2  and  C_3
REMARK    2  A    between atoms: C_3  and  C_4
REMARK    3  A    between atoms: C_4  and  O_6
REMARK    4  A    between atoms: O_6  and  C_7
REMARK    5  A    between atoms: C_7  and  C_9
REMARK    6  A    between atoms: N_12  and  C_13
REMARK    7  A    between atoms: C_13  and  C_14
REMARK    8  A    between atoms: C_14  and  C_15
REMARK                            x       y       z     vdW  Elec       q    Type
REMARK                         _______ _______ _______ _____ _____    ______ ____
ROOT
ATOM      1  C   UNL     1      36.740   2.425  15.822  0.00  0.00    +0.000 A 
ATOM      2  C   UNL     1      36.913   2.210  14.482  0.00  0.00    +0.000 A 
ATOM      3  N   UNL     1      36.156   1.301  13.709  0.00  0.00    +0.000 NA
ATOM      4  N   UNL     1      37.911   3.001  14.044  0.00  0.00    +0.000 N 
ATOM      5  C   UNL     1      38.380   3.721  15.081  0.00  0.00    +0.000 A 
ATOM      6  N   UNL     1      39.362   4.658  15.216  0.00  0.00    +0.000 NA
ATOM      7  C   UNL     1      39.620   5.226  16.409  0.00  0.00    +0.000 A 
ATOM      8  C   UNL     1      40.616   6.173  16.538  0.00  0.00    +0.000 A 
ATOM      9  C   UNL     1      40.863   6.745  17.775  0.00  0.00    +0.000 A 
ATOM     10  C   UNL     1      40.122   6.373  18.879  0.00  0.00    +0.000 A 
ATOM     11  C   UNL     1      39.121   5.423  18.758  0.00  0.00    +0.000 A 
ATOM     12  C   UNL     1      38.895   4.873  17.530  0.00  0.00    +0.000 A 
ATOM     13  N   UNL     1      37.941   3.962  17.392  0.00  0.00    +0.000 NA
ATOM     14  C   UNL     1      37.663   3.373  16.193  0.00  0.00    +0.000 A 
ENDROOT
BRANCH   1  15
ATOM     15  C   UNL     1      35.802   1.825  16.752  0.00  0.00    +0.000 C 
ATOM     16  O   UNL     1      34.584   2.077  16.637  0.00  0.00    +0.000 OA
BRANCH  15  17
ATOM     17  O   UNL     1      36.204   1.007  17.731  0.00  0.00    +0.000 OA
BRANCH  17  18
ATOM     18  C   UNL     1      35.347  -0.247  18.063  0.00  0.00    +0.000 C 
ATOM     19  C   UNL     1      36.533  -0.915  19.051  0.00  0.00    +0.000 C 
BRANCH  18  20
ATOM     20  C   UNL     1      35.857  -1.161  16.743  0.00  0.00    +0.000 C 
BRANCH  20  22
ATOM     21  C   UNL     1      35.186  -3.128  15.905  0.00  0.00    +0.000 C 
ATOM     22  O   UNL     1      34.731  -1.920  16.488  0.00  0.00    +0.000 OA
ENDBRANCH  20  22
ENDBRANCH  18  20
ENDBRANCH  17  18
ENDBRANCH  15  17
ENDBRANCH   1  15
BRANCH   4  23
ATOM     23  C   UNL     1      38.433   3.103  12.693  0.00  0.00    +0.000 C 
BRANCH  23  24
ATOM     24  C   UNL     1      37.712   4.267  12.012  0.00  0.00    +0.000 C 
BRANCH  24  25
ATOM     25  C   UNL     1      37.183   3.771  10.713  0.00  0.00    +0.000 A 
ATOM     26  C   UNL     1      37.393   2.441  10.386  0.00  0.00    +0.000 A 
ATOM     27  C   UNL     1      36.938   1.914   9.211  0.00  0.00    +0.000 A 
ATOM     28  C   UNL     1      36.256   2.703   8.322  0.00  0.00    +0.000 A 
ATOM     29  C   UNL     1      36.042   4.017   8.631  0.00  0.00    +0.000 A 
ATOM     30  C   UNL     1      36.497   4.576   9.823  0.00  0.00    +0.000 A 
ENDBRANCH  24  25
ENDBRANCH  23  24
ENDBRANCH   4  23
TORSDOF 8
ENDMDL
MODEL 9
REMARK VINA RESULT:      -6.6     27.490     30.423
REMARK  Name = 
REMARK  8 active torsions:
REMARK  status: ('A' for Active; 'I' for Inactive)
REMARK    1  A    between atoms: O_2  and  C_3
REMARK    2  A    between atoms: C_3  and  C_4
REMARK    3  A    between atoms: C_4  and  O_6
REMARK    4  A    between atoms: O_6  and  C_7
REMARK    5  A    between atoms: C_7  and  C_9
REMARK    6  A    between atoms: N_12  and  C_13
REMARK    7  A    between atoms: C_13  and  C_14
REMARK    8  A    between atoms: C_14  and  C_15
REMARK                            x       y       z     vdW  Elec       q    Type
REMARK                         _______ _______ _______ _____ _____    ______ ____
ROOT
ATOM      1  C   UNL     1      10.008   4.087  10.120  0.00  0.00    +0.000 A 
ATOM      2  C   UNL     1       8.984   4.496  10.929  0.00  0.00    +0.000 A 
ATOM      3  N   UNL     1       8.660   5.846  11.195  0.00  0.00    +0.000 NA
ATOM      4  N   UNL     1       8.357   3.408  11.414  0.00  0.00    +0.000 N 
ATOM      5  C   UNL     1       8.961   2.307  10.929  0.00  0.00    +0.000 A 
ATOM      6  N   UNL     1       8.754   0.968  11.082  0.00  0.00    +0.000 NA
ATOM      7  C   UNL     1       9.537   0.068  10.458  0.00  0.00    +0.000 A 
ATOM      8  C   UNL     1       9.321  -1.286  10.618  0.00  0.00    +0.000 A 
ATOM      9  C   UNL     1      10.139  -2.193   9.966  0.00  0.00    +0.000 A 
ATOM     10  C   UNL     1      11.169  -1.753   9.159  0.00  0.00    +0.000 A 
ATOM     11  C   UNL     1      11.394  -0.396   8.994  0.00  0.00    +0.000 A 
ATOM     12  C   UNL     1      10.575   0.480   9.645  0.00  0.00    +0.000 A 
ATOM     13  N   UNL     1      10.771   1.784   9.500  0.00  0.00    +0.000 NA
ATOM     14  C   UNL     1       9.990   2.713  10.123  0.00  0.00    +0.000 A 
ENDROOT
BRANCH   1  15
ATOM     15  C   UNL     1      10.973   4.865   9.366  0.00  0.00    +0.000 C 
ATOM     16  O   UNL     1      12.187   4.584   9.457  0.00  0.00    +0.000 OA
BRANCH  15  17
ATOM     17  O   UNL     1      10.601   5.877   8.574  0.00  0.00    +0.000 OA
BRANCH  17  18
ATOM     18  C   UNL     1      10.274   5.584   7.083  0.00  0.00    +0.000 C 
ATOM     19  C   UNL     1      10.538   7.177   6.612  0.00  0.00    +0.000 C 
BRANCH  18  20
ATOM     20  C   UNL     1       8.614   5.842   7.214  0.00  0.00    +0.000 C 
BRANCH  20  22
ATOM     21  C   UNL     1       7.441   7.496   8.168  0.00  0.00    +0.000 C 
ATOM     22  O   UNL     1       8.564   7.215   7.351  0.00  0.00    +0.000 OA
ENDBRANCH  20  22
ENDBRANCH  18  20
ENDBRANCH  17  18
ENDBRANCH  15  17
ENDBRANCH   1  15
BRANCH   4  23
ATOM     23  C   UNL     1       7.216   3.370  12.312  0.00  0.00    +0.000 C 
BRANCH  23  24
ATOM     24  C   UNL     1       5.955   3.446  11.451  0.00  0.00    +0.000 C 
BRANCH  24  25
ATOM     25  C   UNL     1       5.234   4.694  11.818  0.00  0.00    +0.000 A 
ATOM     26  C   UNL     1       4.703   4.791  13.094  0.00  0.00    +0.000 A 
ATOM     27  C   UNL     1       4.027   5.905  13.503  0.00  0.00    +0.000 A 
ATOM     28  C   UNL     1       3.860   6.962  12.646  0.00  0.00    +0.000 A 
ATOM     29  C   UNL     1       4.378   6.880  11.384  0.00  0.00    +0.000 A 
ATOM     30  C   UNL     1       5.070   5.753  10.945  0.00  0.00    +0.000 A 
ENDBRANCH  24  25
ENDBRANCH  23  24
ENDBRANCH   4  23
TORSDOF 8
ENDMDL
MODEL 10
REMARK VINA RESULT:      -6.6     26.647     29.078
REMARK  Name = 
REMARK  8 active torsions:
REMARK  status: ('A' for Active; 'I' for Inactive)
REMARK    1  A    between atoms: O_2  and  C_3
REMARK    2  A    between atoms: C_3  and  C_4
REMARK    3  A    between atoms: C_4  and  O_6
REMARK    4  A    between atoms: O_6  and  C_7
REMARK    5  A    between atoms: C_7  and  C_9
REMARK    6  A    between atoms: N_12  and  C_13
REMARK    7  A    between atoms: C_13  and  C_14
REMARK    8  A    between atoms: C_14  and  C_15
REMARK                            x       y       z     vdW  Elec       q    Type
REMARK                         _______ _______ _______ _____ _____    ______ ____
ROOT
ATOM      1  C   UNL     1      26.279  13.967  40.190  0.00  0.00    +0.000 A 
ATOM      2  C   UNL     1      25.547  14.531  39.182  0.00  0.00    +0.000 A 
ATOM      3  N   UNL     1      24.139  14.463  39.076  0.00  0.00    +0.000 NA
ATOM      4  N   UNL     1      26.388  15.147  38.331  0.00  0.00    +0.000 N 
ATOM      5  C   UNL     1      27.649  14.988  38.776  0.00  0.00    +0.000 A 
ATOM      6  N   UNL     1      28.871  15.389  38.323  0.00  0.00    +0.000 NA
ATOM      7  C   UNL     1      29.997  15.075  38.992  0.00  0.00    +0.000 A 
ATOM      8  C   UNL     1      31.230  15.486  38.526  0.00  0.00    +0.000 A 
ATOM      9  C   UNL     1      32.375  15.152  39.231  0.00  0.00    +0.000 A 
ATOM     10  C   UNL     1      32.290  14.412  40.393  0.00  0.00    +0.000 A 
ATOM     11  C   UNL     1      31.057  13.996  40.867  0.00  0.00    +0.000 A 
ATOM     12  C   UNL     1      29.942  14.337  40.157  0.00  0.00    +0.000 A 
ATOM     13  N   UNL     1      28.751  13.949  40.593  0.00  0.00    +0.000 NA
ATOM     14  C   UNL     1      27.597  14.255  39.931  0.00  0.00    +0.000 A 
ENDROOT
BRANCH   1  15
ATOM     15  C   UNL     1      25.848  13.200  41.344  0.00  0.00    +0.000 C 
ATOM     16  O   UNL     1      25.383  13.800  42.335  0.00  0.00    +0.000 OA
BRANCH  15  17
ATOM     17  O   UNL     1      25.934  11.865  41.377  0.00  0.00    +0.000 OA
BRANCH  17  18
ATOM     18  C   UNL     1      27.057  11.204  42.223  0.00  0.00    +0.000 C 
ATOM     19  C   UNL     1      27.797  10.515  40.879  0.00  0.00    +0.000 C 
BRANCH  18  20
ATOM     20  C   UNL     1      26.214   9.783  42.553  0.00  0.00    +0.000 C 
BRANCH  20  22
ATOM     21  C   UNL     1      25.979   7.765  41.608  0.00  0.00    +0.000 C 
ATOM     22  O   UNL     1      26.333   9.112  41.352  0.00  0.00    +0.000 OA
ENDBRANCH  20  22
ENDBRANCH  18  20
ENDBRANCH  17  18
ENDBRANCH  15  17
ENDBRANCH   1  15
BRANCH   4  23
ATOM     23  C   UNL     1      26.049  15.876  37.121  0.00  0.00    +0.000 C 
BRANCH  23  24
ATOM     24  C   UNL     1      26.807  15.221  35.966  0.00  0.00    +0.000 C 
BRANCH  24  25
ATOM     25  C   UNL     1      26.057  15.507  34.715  0.00  0.00    +0.000 A 
ATOM     26  C   UNL     1      25.865  14.471  33.816  0.00  0.00    +0.000 A 
ATOM     27  C   UNL     1      25.186  14.657  32.645  0.00  0.00    +0.000 A 
ATOM     28  C   UNL     1      24.675  15.891  32.335  0.00  0.00    +0.000 A 
ATOM     29  C   UNL     1      24.857  16.923  33.212  0.00  0.00    +0.000 A 
ATOM     30  C   UNL     1      25.546  16.756  34.411  0.00  0.00    +0.000 A 
ENDBRANCH  24  25
ENDBRANCH  23  24
ENDBRANCH   4  23
TORSDOF 8
ENDMDL
