MODEL 1
REMARK VINA RESULT:      -7.0      0.000      0.000
REMARK  Name = 
REMARK  4 active torsions:
REMARK  status: ('A' for Active; 'I' for Inactive)
REMARK    1  A    between atoms: C_2  and  C_3
REMARK    2  A    between atoms: C_4  and  N_5
REMARK    3  A    between atoms: N_5  and  C_6
REMARK    4  A    between atoms: C_6  and  C_7
REMARK                            x       y       z     vdW  Elec       q    Type
REMARK                         _______ _______ _______ _____ _____    ______ ____
ROOT
ATOM      1  C   UNL     1      16.290  10.651  37.646  0.00  0.00    +0.000 A 
ATOM      2  C   UNL     1      16.773  10.970  36.408  0.00  0.00    +0.000 A 
ATOM      3  S   UNL     1      18.357  10.288  36.437  0.00  0.00    +0.000 S 
ATOM      4  C   UNL     1      18.341   9.632  38.007  0.00  0.00    +0.000 A 
ATOM      5  C   UNL     1      17.096   9.963  38.468  0.00  0.00    +0.000 A 
ATOM      6  C   UNL     1      16.852   9.467  39.883  0.00  0.00    +0.000 C 
ATOM      7  C   UNL     1      17.993   9.880  40.777  0.00  0.00    +0.000 C 
ATOM      8  C   UNL     1      19.340   9.606  40.195  0.00  0.00    +0.000 C 
ATOM      9  C   UNL     1      19.295   8.857  38.887  0.00  0.00    +0.000 C 
ENDROOT
BRANCH   1  11
ATOM     10  N   UNL     1      13.858  11.452  38.307  0.00  0.00    +0.000 NA
ATOM     11  C   UNL     1      14.937  11.089  38.023  0.00  0.00    +0.000 C 
ENDBRANCH   1  11
BRANCH   2  12
ATOM     12  N   UNL     1      16.217  11.653  35.296  0.00  0.00    +0.000 NA
BRANCH  12  13
ATOM     13  C   UNL     1      15.948  11.093  34.028  0.00  0.00    +0.000 C 
BRANCH  13  14
ATOM     14  C   UNL     1      15.163  12.069  33.193  0.00  0.00    +0.000 A 
ATOM     15  C   UNL     1      14.433  13.102  33.737  0.00  0.00    +0.000 A 
ATOM     16  C   UNL     1      13.708  13.980  32.963  0.00  0.00    +0.000 A 
ATOM     17  C   UNL     1      13.698  13.835  31.576  0.00  0.00    +0.000 A 
ATOM     18  C   UNL     1      14.423  12.805  31.022  0.00  0.00    +0.000 A 
ATOM     19  C   UNL     1      15.142  11.937  31.805  0.00  0.00    +0.000 A 
ATOM     20  O   UNL     1      15.871  10.903  31.235  0.00  0.00    +0.000 OA
ENDBRANCH  13  14
ENDBRANCH  12  13
ENDBRANCH   2  12
TORSDOF 4
ENDMDL
MODEL 2
REMARK VINA RESULT:      -6.7      1.904      2.979
REMARK  Name = 
REMARK  4 active torsions:
REMARK  status: ('A' for Active; 'I' for Inactive)
REMARK    1  A    between atoms: C_2  and  C_3
REMARK    2  A    between atoms: C_4  and  N_5
REMARK    3  A    between atoms: N_5  and  C_6
REMARK    4  A    between atoms: C_6  and  C_7
REMARK                            x       y       z     vdW  Elec       q    Type
REMARK                         _______ _______ _______ _____ _____    ______ ____
ROOT
ATOM      1  C   UNL     1      17.705  10.088  37.754  0.00  0.00    +0.000 A 
ATOM      2  C   UNL     1      16.671  10.710  37.113  0.00  0.00    +0.000 A 
ATOM      3  S   UNL     1      15.443  10.739  38.325  0.00  0.00    +0.000 S 
ATOM      4  C   UNL     1      16.288   9.967  39.585  0.00  0.00    +0.000 A 
ATOM      5  C   UNL     1      17.508   9.706  39.024  0.00  0.00    +0.000 A 
ATOM      6  C   UNL     1      18.450   9.004  39.988  0.00  0.00    +0.000 C 
ATOM      7  C   UNL     1      17.762   7.812  40.602  0.00  0.00    +0.000 C 
ATOM      8  C   UNL     1      16.387   8.105  41.104  0.00  0.00    +0.000 C 
ATOM      9  C   UNL     1      16.005   9.560  41.013  0.00  0.00    +0.000 C 
ENDROOT
BRANCH   1  11
ATOM     10  N   UNL     1      19.952   9.647  36.431  0.00  0.00    +0.000 NA
ATOM     11  C   UNL     1      18.961   9.850  37.025  0.00  0.00    +0.000 C 
ENDBRANCH   1  11
BRANCH   2  12
ATOM     12  N   UNL     1      16.521  11.255  35.812  0.00  0.00    +0.000 NA
BRANCH  12  13
ATOM     13  C   UNL     1      15.358  11.868  35.297  0.00  0.00    +0.000 C 
BRANCH  13  14
ATOM     14  C   UNL     1      15.352  11.774  33.795  0.00  0.00    +0.000 A 
ATOM     15  C   UNL     1      16.039  10.803  33.102  0.00  0.00    +0.000 A 
ATOM     16  C   UNL     1      16.037  10.737  31.727  0.00  0.00    +0.000 A 
ATOM     17  C   UNL     1      15.320  11.678  30.990  0.00  0.00    +0.000 A 
ATOM     18  C   UNL     1      14.631  12.654  31.672  0.00  0.00    +0.000 A 
ATOM     19  C   UNL     1      14.641  12.709  33.043  0.00  0.00    +0.000 A 
ATOM     20  O   UNL     1      13.941  13.697  33.720  0.00  0.00    +0.000 OA
ENDBRANCH  13  14
ENDBRANCH  12  13
ENDBRANCH   2  12
TORSDOF 4
ENDMDL
MODEL 3
REMARK VINA RESULT:      -6.3      3.801      5.121
REMARK  Name = 
REMARK  4 active torsions:
REMARK  status: ('A' for Active; 'I' for Inactive)
REMARK    1  A    between atoms: C_2  and  C_3
REMARK    2  A    between atoms: C_4  and  N_5
REMARK    3  A    between atoms: N_5  and  C_6
REMARK    4  A    between atoms: C_6  and  C_7
REMARK                            x       y       z     vdW  Elec       q    Type
REMARK                         _______ _______ _______ _____ _____    ______ ____
ROOT
ATOM      1  C   UNL     1      21.037  11.691  37.987  0.00  0.00    +0.000 A 
ATOM      2  C   UNL     1      19.876  11.073  37.619  0.00  0.00    +0.000 A 
ATOM      3  S   UNL     1      20.445   9.644  36.837  0.00  0.00    +0.000 S 
ATOM      4  C   UNL     1      22.120   9.890  37.010  0.00  0.00    +0.000 A 
ATOM      5  C   UNL     1      22.191  11.084  37.675  0.00  0.00    +0.000 A 
ATOM      6  C   UNL     1      23.623  11.512  37.944  0.00  0.00    +0.000 C 
ATOM      7  C   UNL     1      24.429  11.442  36.673  0.00  0.00    +0.000 C 
ATOM      8  C   UNL     1      24.243  10.170  35.914  0.00  0.00    +0.000 C 
ATOM      9  C   UNL     1      23.386   9.156  36.630  0.00  0.00    +0.000 C 
ENDROOT
BRANCH   1  11
ATOM     10  N   UNL     1      20.901  14.014  39.245  0.00  0.00    +0.000 NA
ATOM     11  C   UNL     1      20.970  12.988  38.681  0.00  0.00    +0.000 C 
ENDBRANCH   1  11
BRANCH   2  12
ATOM     12  N   UNL     1      18.506  11.397  37.791  0.00  0.00    +0.000 NA
BRANCH  12  13
ATOM     13  C   UNL     1      17.411  10.545  37.527  0.00  0.00    +0.000 C 
BRANCH  13  14
ATOM     14  C   UNL     1      16.826  10.868  36.178  0.00  0.00    +0.000 A 
ATOM     15  C   UNL     1      17.309  10.334  35.004  0.00  0.00    +0.000 A 
ATOM     16  C   UNL     1      16.773  10.649  33.776  0.00  0.00    +0.000 A 
ATOM     17  C   UNL     1      15.702  11.538  33.695  0.00  0.00    +0.000 A 
ATOM     18  C   UNL     1      15.212  12.077  34.862  0.00  0.00    +0.000 A 
ATOM     19  C   UNL     1      15.755  11.756  36.080  0.00  0.00    +0.000 A 
ATOM     20  O   UNL     1      15.251  12.306  37.250  0.00  0.00    +0.000 OA
ENDBRANCH  13  14
ENDBRANCH  12  13
ENDBRANCH   2  12
TORSDOF 4
ENDMDL
MODEL 4
REMARK VINA RESULT:      -6.2      1.823      2.640
REMARK  Name = 
REMARK  4 active torsions:
REMARK  status: ('A' for Active; 'I' for Inactive)
REMARK    1  A    between atoms: C_2  and  C_3
REMARK    2  A    between atoms: C_4  and  N_5
REMARK    3  A    between atoms: N_5  and  C_6
REMARK    4  A    between atoms: C_6  and  C_7
REMARK                            x       y       z     vdW  Elec       q    Type
REMARK                         _______ _______ _______ _____ _____    ______ ____
ROOT
ATOM      1  C   UNL     1      16.576  10.237  38.804  0.00  0.00    +0.000 A 
ATOM      2  C   UNL     1      17.640  10.359  37.956  0.00  0.00    +0.000 A 
ATOM      3  S   UNL     1      18.909   9.588  38.834  0.00  0.00    +0.000 S 
ATOM      4  C   UNL     1      18.042   9.146  40.230  0.00  0.00    +0.000 A 
ATOM      5  C   UNL     1      16.782   9.614  39.973  0.00  0.00    +0.000 A 
ATOM      6  C   UNL     1      15.815   9.325  41.109  0.00  0.00    +0.000 C 
ATOM      7  C   UNL     1      16.409   9.778  42.418  0.00  0.00    +0.000 C 
ATOM      8  C   UNL     1      17.823   9.344  42.617  0.00  0.00    +0.000 C 
ATOM      9  C   UNL     1      18.337   8.434  41.531  0.00  0.00    +0.000 C 
ENDROOT
BRANCH   1  11
ATOM     10  N   UNL     1      14.245  11.278  38.112  0.00  0.00    +0.000 NA
ATOM     11  C   UNL     1      15.277  10.807  38.412  0.00  0.00    +0.000 C 
ENDBRANCH   1  11
BRANCH   2  12
ATOM     12  N   UNL     1      17.791  10.924  36.663  0.00  0.00    +0.000 NA
BRANCH  12  13
ATOM     13  C   UNL     1      17.025  11.980  36.124  0.00  0.00    +0.000 C 
BRANCH  13  14
ATOM     14  C   UNL     1      16.536  11.608  34.749  0.00  0.00    +0.000 A 
ATOM     15  C   UNL     1      17.227  10.760  33.913  0.00  0.00    +0.000 A 
ATOM     16  C   UNL     1      16.776  10.439  32.652  0.00  0.00    +0.000 A 
ATOM     17  C   UNL     1      15.579  10.981  32.186  0.00  0.00    +0.000 A 
ATOM     18  C   UNL     1      14.881  11.830  33.014  0.00  0.00    +0.000 A 
ATOM     19  C   UNL     1      15.341  12.143  34.268  0.00  0.00    +0.000 A 
ATOM     20  O   UNL     1      14.628  13.000  35.094  0.00  0.00    +0.000 OA
ENDBRANCH  13  14
ENDBRANCH  12  13
ENDBRANCH   2  12
TORSDOF 4
ENDMDL
MODEL 5
REMARK VINA RESULT:      -6.1     18.962     21.047
REMARK  Name = 
REMARK  4 active torsions:
REMARK  status: ('A' for Active; 'I' for Inactive)
REMARK    1  A    between atoms: C_2  and  C_3
REMARK    2  A    between atoms: C_4  and  N_5
REMARK    3  A    between atoms: N_5  and  C_6
REMARK    4  A    between atoms: C_6  and  C_7
REMARK                            x       y       z     vdW  Elec       q    Type
REMARK                         _______ _______ _______ _____ _____    ______ ____
ROOT
ATOM      1  C   UNL     1      29.657  22.811  25.408  0.00  0.00    +0.000 A 
ATOM      2  C   UNL     1      29.685  22.376  26.703  0.00  0.00    +0.000 A 
ATOM      3  S   UNL     1      28.009  22.256  27.093  0.00  0.00    +0.000 S 
ATOM      4  C   UNL     1      27.348  22.759  25.607  0.00  0.00    +0.000 A 
ATOM      5  C   UNL     1      28.457  23.009  24.845  0.00  0.00    +0.000 A 
ATOM      6  C   UNL     1      28.102  23.481  23.444  0.00  0.00    +0.000 C 
ATOM      7  C   UNL     1      27.112  24.614  23.520  0.00  0.00    +0.000 C 
ATOM      8  C   UNL     1      25.971  24.354  24.447  0.00  0.00    +0.000 C 
ATOM      9  C   UNL     1      25.967  22.963  25.028  0.00  0.00    +0.000 C 
ENDROOT
BRANCH   1  11
ATOM     10  N   UNL     1      31.949  23.270  24.168  0.00  0.00    +0.000 NA
ATOM     11  C   UNL     1      30.928  23.062  24.708  0.00  0.00    +0.000 C 
ENDBRANCH   1  11
BRANCH   2  12
ATOM     12  N   UNL     1      30.738  22.049  27.595  0.00  0.00    +0.000 NA
BRANCH  12  13
ATOM     13  C   UNL     1      31.355  22.931  28.510  0.00  0.00    +0.000 C 
BRANCH  13  14
ATOM     14  C   UNL     1      31.237  22.383  29.907  0.00  0.00    +0.000 A 
ATOM     15  C   UNL     1      30.139  22.602  30.708  0.00  0.00    +0.000 A 
ATOM     16  C   UNL     1      30.050  22.107  31.990  0.00  0.00    +0.000 A 
ATOM     17  C   UNL     1      31.100  21.355  32.515  0.00  0.00    +0.000 A 
ATOM     18  C   UNL     1      32.202  21.131  31.724  0.00  0.00    +0.000 A 
ATOM     19  C   UNL     1      32.279  21.630  30.448  0.00  0.00    +0.000 A 
ATOM     20  O   UNL     1      33.396  21.396  29.659  0.00  0.00    +0.000 OA
ENDBRANCH  13  14
ENDBRANCH  12  13
ENDBRANCH   2  12
TORSDOF 4
ENDMDL
MODEL 6
REMARK VINA RESULT:      -6.0     18.061     20.052
REMARK  Name = 
REMARK  4 active torsions:
REMARK  status: ('A' for Active; 'I' for Inactive)
REMARK    1  A    between atoms: C_2  and  C_3
REMARK    2  A    between atoms: C_4  and  N_5
REMARK    3  A    between atoms: N_5  and  C_6
REMARK    4  A    between atoms: C_6  and  C_7
REMARK                            x       y       z     vdW  Elec       q    Type
REMARK                         _______ _______ _______ _____ _____    ______ ____
ROOT
ATOM      1  C   UNL     1      25.345  24.837  28.025  0.00  0.00    +0.000 A 
ATOM      2  C   UNL     1      26.106  24.188  27.095  0.00  0.00    +0.000 A 
ATOM      3  S   UNL     1      25.505  24.825  25.608  0.00  0.00    +0.000 S 
ATOM      4  C   UNL     1      24.322  25.881  26.225  0.00  0.00    +0.000 A 
ATOM      5  C   UNL     1      24.428  25.707  27.579  0.00  0.00    +0.000 A 
ATOM      6  C   UNL     1      23.445  26.571  28.351  0.00  0.00    +0.000 C 
ATOM      7  C   UNL     1      22.057  26.396  27.792  0.00  0.00    +0.000 C 
ATOM      8  C   UNL     1      21.994  26.480  26.303  0.00  0.00    +0.000 C 
ATOM      9  C   UNL     1      23.307  26.848  25.661  0.00  0.00    +0.000 C 
ENDROOT
BRANCH   1  11
ATOM     10  N   UNL     1      25.693  24.290  30.589  0.00  0.00    +0.000 NA
ATOM     11  C   UNL     1      25.548  24.540  29.452  0.00  0.00    +0.000 C 
ENDBRANCH   1  11
BRANCH   2  12
ATOM     12  N   UNL     1      27.157  23.239  27.191  0.00  0.00    +0.000 NA
BRANCH  12  13
ATOM     13  C   UNL     1      27.537  22.317  26.190  0.00  0.00    +0.000 C 
BRANCH  13  14
ATOM     14  C   UNL     1      28.883  22.694  25.632  0.00  0.00    +0.000 A 
ATOM     15  C   UNL     1      30.028  22.728  26.396  0.00  0.00    +0.000 A 
ATOM     16  C   UNL     1      31.251  23.088  25.875  0.00  0.00    +0.000 A 
ATOM     17  C   UNL     1      31.355  23.435  24.529  0.00  0.00    +0.000 A 
ATOM     18  C   UNL     1      30.217  23.405  23.757  0.00  0.00    +0.000 A 
ATOM     19  C   UNL     1      29.004  23.044  24.287  0.00  0.00    +0.000 A 
ATOM     20  O   UNL     1      27.863  23.017  23.498  0.00  0.00    +0.000 OA
ENDBRANCH  13  14
ENDBRANCH  12  13
ENDBRANCH   2  12
TORSDOF 4
ENDMDL
MODEL 7
REMARK VINA RESULT:      -6.0     19.330     20.607
REMARK  Name = 
REMARK  4 active torsions:
REMARK  status: ('A' for Active; 'I' for Inactive)
REMARK    1  A    between atoms: C_2  and  C_3
REMARK    2  A    between atoms: C_4  and  N_5
REMARK    3  A    between atoms: N_5  and  C_6
REMARK    4  A    between atoms: C_6  and  C_7
REMARK                            x       y       z     vdW  Elec       q    Type
REMARK                         _______ _______ _______ _____ _____    ______ ____
ROOT
ATOM      1  C   UNL     1      30.063  22.723  26.721  0.00  0.00    +0.000 A 
ATOM      2  C   UNL     1      28.700  22.633  26.752  0.00  0.00    +0.000 A 
ATOM      3  S   UNL     1      28.362  22.662  28.443  0.00  0.00    +0.000 S 
ATOM      4  C   UNL     1      29.952  22.787  29.036  0.00  0.00    +0.000 A 
ATOM      5  C   UNL     1      30.707  22.802  27.894  0.00  0.00    +0.000 A 
ATOM      6  C   UNL     1      32.194  22.911  28.186  0.00  0.00    +0.000 C 
ATOM      7  C   UNL     1      32.596  21.874  29.203  0.00  0.00    +0.000 C 
ATOM      8  C   UNL     1      31.686  21.807  30.384  0.00  0.00    +0.000 C 
ATOM      9  C   UNL     1      30.619  22.873  30.389  0.00  0.00    +0.000 C 
ENDROOT
BRANCH   1  11
ATOM     10  N   UNL     1      31.311  22.714  24.389  0.00  0.00    +0.000 NA
ATOM     11  C   UNL     1      30.754  22.707  25.422  0.00  0.00    +0.000 C 
ENDBRANCH   1  11
BRANCH   2  12
ATOM     12  N   UNL     1      27.709  22.555  25.740  0.00  0.00    +0.000 NA
BRANCH  12  13
ATOM     13  C   UNL     1      26.869  23.608  25.317  0.00  0.00    +0.000 C 
BRANCH  13  14
ATOM     14  C   UNL     1      27.413  24.221  24.053  0.00  0.00    +0.000 A 
ATOM     15  C   UNL     1      28.433  25.145  24.048  0.00  0.00    +0.000 A 
ATOM     16  C   UNL     1      28.911  25.709  22.886  0.00  0.00    +0.000 A 
ATOM     17  C   UNL     1      28.356  25.343  21.660  0.00  0.00    +0.000 A 
ATOM     18  C   UNL     1      27.336  24.420  21.655  0.00  0.00    +0.000 A 
ATOM     19  C   UNL     1      26.868  23.867  22.820  0.00  0.00    +0.000 A 
ATOM     20  O   UNL     1      25.839  22.936  22.801  0.00  0.00    +0.000 OA
ENDBRANCH  13  14
ENDBRANCH  12  13
ENDBRANCH   2  12
TORSDOF 4
ENDMDL
MODEL 8
REMARK VINA RESULT:      -5.9     18.351     20.374
REMARK  Name = 
REMARK  4 active torsions:
REMARK  status: ('A' for Active; 'I' for Inactive)
REMARK    1  A    between atoms: C_2  and  C_3
REMARK    2  A    between atoms: C_4  and  N_5
REMARK    3  A    between atoms: N_5  and  C_6
REMARK    4  A    between atoms: C_6  and  C_7
REMARK                            x       y       z     vdW  Elec       q    Type
REMARK                         _______ _______ _______ _____ _____    ______ ____
ROOT
ATOM      1  C   UNL     1      26.184  24.007  27.932  0.00  0.00    +0.000 A 
ATOM      2  C   UNL     1      27.036  23.364  27.079  0.00  0.00    +0.000 A 
ATOM      3  S   UNL     1      26.818  24.234  25.606  0.00  0.00    +0.000 S 
ATOM      4  C   UNL     1      25.664  25.369  26.130  0.00  0.00    +0.000 A 
ATOM      5  C   UNL     1      25.479  25.037  27.445  0.00  0.00    +0.000 A 
ATOM      6  C   UNL     1      24.467  25.939  28.132  0.00  0.00    +0.000 C 
ATOM      7  C   UNL     1      23.206  26.017  27.310  0.00  0.00    +0.000 C 
ATOM      8  C   UNL     1      23.449  26.269  25.859  0.00  0.00    +0.000 C 
ATOM      9  C   UNL     1      24.897  26.522  25.522  0.00  0.00    +0.000 C 
ENDROOT
BRANCH   1  11
ATOM     10  N   UNL     1      25.967  23.174  30.433  0.00  0.00    +0.000 NA
ATOM     11  C   UNL     1      26.065  23.532  29.320  0.00  0.00    +0.000 C 
ENDBRANCH   1  11
BRANCH   2  12
ATOM     12  N   UNL     1      27.932  22.276  27.239  0.00  0.00    +0.000 NA
BRANCH  12  13
ATOM     13  C   UNL     1      29.241  22.349  27.764  0.00  0.00    +0.000 C 
BRANCH  13  14
ATOM     14  C   UNL     1      30.195  22.815  26.697  0.00  0.00    +0.000 A 
ATOM     15  C   UNL     1      30.170  22.334  25.408  0.00  0.00    +0.000 A 
ATOM     16  C   UNL     1      31.058  22.758  24.445  0.00  0.00    +0.000 A 
ATOM     17  C   UNL     1      32.026  23.709  24.766  0.00  0.00    +0.000 A 
ATOM     18  C   UNL     1      32.060  24.196  26.053  0.00  0.00    +0.000 A 
ATOM     19  C   UNL     1      31.169  23.765  27.003  0.00  0.00    +0.000 A 
ATOM     20  O   UNL     1      31.213  24.264  28.297  0.00  0.00    +0.000 OA
ENDBRANCH  13  14
ENDBRANCH  12  13
ENDBRANCH   2  12
TORSDOF 4
ENDMDL
MODEL 9
REMARK VINA RESULT:      -5.9     19.414     20.768
REMARK  Name = 
REMARK  4 active torsions:
REMARK  status: ('A' for Active; 'I' for Inactive)
REMARK    1  A    between atoms: C_2  and  C_3
REMARK    2  A    between atoms: C_4  and  N_5
REMARK    3  A    between atoms: N_5  and  C_6
REMARK    4  A    between atoms: C_6  and  C_7
REMARK                            x       y       z     vdW  Elec       q    Type
REMARK                         _______ _______ _______ _____ _____    ______ ____
ROOT
ATOM      1  C   UNL     1      28.481  22.743  26.473  0.00  0.00    +0.000 A 
ATOM      2  C   UNL     1      29.622  22.811  25.724  0.00  0.00    +0.000 A 
ATOM      3  S   UNL     1      30.860  22.773  26.925  0.00  0.00    +0.000 S 
ATOM      4  C   UNL     1      29.885  22.672  28.316  0.00  0.00    +0.000 A 
ATOM      5  C   UNL     1      28.616  22.672  27.805  0.00  0.00    +0.000 A 
ATOM      6  C   UNL     1      27.555  22.586  28.889  0.00  0.00    +0.000 C 
ATOM      7  C   UNL     1      27.816  23.627  29.947  0.00  0.00    +0.000 C 
ATOM      8  C   UNL     1      29.237  23.676  30.403  0.00  0.00    +0.000 C 
ATOM      9  C   UNL     1      30.102  22.594  29.810  0.00  0.00    +0.000 C 
ENDROOT
BRANCH   1  11
ATOM     10  N   UNL     1      26.142  22.786  25.238  0.00  0.00    +0.000 NA
ATOM     11  C   UNL     1      27.175  22.773  25.795  0.00  0.00    +0.000 C 
ENDBRANCH   1  11
BRANCH   2  12
ATOM     12  N   UNL     1      29.865  22.876  24.328  0.00  0.00    +0.000 NA
BRANCH  12  13
ATOM     13  C   UNL     1      30.447  23.961  23.636  0.00  0.00    +0.000 C 
BRANCH  13  14
ATOM     14  C   UNL     1      29.376  24.924  23.198  0.00  0.00    +0.000 A 
ATOM     15  C   UNL     1      28.697  25.738  24.076  0.00  0.00    +0.000 A 
ATOM     16  C   UNL     1      27.709  26.605  23.665  0.00  0.00    +0.000 A 
ATOM     17  C   UNL     1      27.368  26.675  22.314  0.00  0.00    +0.000 A 
ATOM     18  C   UNL     1      28.040  25.864  21.429  0.00  0.00    +0.000 A 
ATOM     19  C   UNL     1      29.023  25.005  21.852  0.00  0.00    +0.000 A 
ATOM     20  O   UNL     1      29.695  24.193  20.949  0.00  0.00    +0.000 OA
ENDBRANCH  13  14
ENDBRANCH  12  13
ENDBRANCH   2  12
TORSDOF 4
ENDMDL
MODEL 10
REMARK VINA RESULT:      -5.9     19.639     20.972
REMARK  Name = 
REMARK  4 active torsions:
REMARK  status: ('A' for Active; 'I' for Inactive)
REMARK    1  A    between atoms: C_2  and  C_3
REMARK    2  A    between atoms: C_4  and  N_5
REMARK    3  A    between atoms: N_5  and  C_6
REMARK    4  A    between atoms: C_6  and  C_7
REMARK                            x       y       z     vdW  Elec       q    Type
REMARK                         _______ _______ _______ _____ _____    ______ ____
ROOT
ATOM      1  C   UNL     1      33.990   2.880  35.862  0.00  0.00    +0.000 A 
ATOM      2  C   UNL     1      33.989   3.918  34.974  0.00  0.00    +0.000 A 
ATOM      3  S   UNL     1      33.605   3.135  33.485  0.00  0.00    +0.000 S 
ATOM      4  C   UNL     1      33.461   1.536  34.049  0.00  0.00    +0.000 A 
ATOM      5  C   UNL     1      33.718   1.656  35.388  0.00  0.00    +0.000 A 
ATOM      6  C   UNL     1      33.643   0.323  36.113  0.00  0.00    +0.000 C 
ATOM      7  C   UNL     1      34.480  -0.702  35.392  0.00  0.00    +0.000 C 
ATOM      8  C   UNL     1      34.256  -0.730  33.917  0.00  0.00    +0.000 C 
ATOM      9  C   UNL     1      33.149   0.182  33.454  0.00  0.00    +0.000 C 
ENDROOT
BRANCH   1  11
ATOM     10  N   UNL     1      34.563   3.338  38.404  0.00  0.00    +0.000 NA
ATOM     11  C   UNL     1      34.305   3.146  37.275  0.00  0.00    +0.000 C 
ENDBRANCH   1  11
BRANCH   2  12
ATOM     12  N   UNL     1      34.207   5.313  35.110  0.00  0.00    +0.000 NA
BRANCH  12  13
ATOM     13  C   UNL     1      35.336   6.026  34.648  0.00  0.00    +0.000 C 
BRANCH  13  14
ATOM     14  C   UNL     1      36.330   6.189  35.767  0.00  0.00    +0.000 A 
ATOM     15  C   UNL     1      37.148   5.169  36.197  0.00  0.00    +0.000 A 
ATOM     16  C   UNL     1      38.043   5.328  37.232  0.00  0.00    +0.000 A 
ATOM     17  C   UNL     1      38.140   6.558  37.881  0.00  0.00    +0.000 A 
ATOM     18  C   UNL     1      37.326   7.585  37.459  0.00  0.00    +0.000 A 
ATOM     19  C   UNL     1      36.438   7.413  36.427  0.00  0.00    +0.000 A 
ATOM     20  O   UNL     1      35.623   8.456  36.010  0.00  0.00    +0.000 OA
ENDBRANCH  13  14
ENDBRANCH  12  13
ENDBRANCH   2  12
TORSDOF 4
ENDMDL
