MODEL 1
REMARK VINA RESULT:      -8.6      0.000      0.000
REMARK  Name = 
REMARK  7 active torsions:
REMARK  status: ('A' for Active; 'I' for Inactive)
REMARK    1  A    between atoms: O_2  and  C_3
REMARK    2  A    between atoms: C_6  and  C_7
REMARK    3  A    between atoms: C_7  and  C_8
REMARK    4  A    between atoms: C_8  and  C_9
REMARK    5  A    between atoms: N_11  and  C_12
REMARK    6  A    between atoms: N_16  and  C_17
REMARK    7  A    between atoms: C_17  and  C_18
REMARK                            x       y       z     vdW  Elec       q    Type
REMARK                         _______ _______ _______ _____ _____    ______ ____
ROOT
ATOM      1  C   UNL     1      37.075   2.315  15.255  0.00  0.00    +0.000 A 
ATOM      2  C   UNL     1      35.880   1.679  15.527  0.00  0.00    +0.000 A 
ATOM      3  C   UNL     1      34.716   2.364  16.147  0.00  0.00    +0.000 C 
ATOM      4  N   UNL     1      35.976   0.401  15.142  0.00  0.00    +0.000 NA
ATOM      5  N   UNL     1      37.164   0.173  14.638  0.00  0.00    +0.000 N 
ATOM      6  C   UNL     1      37.853   1.325  14.695  0.00  0.00    +0.000 A 
ATOM      7  C   UNL     1      39.249   1.515  14.226  0.00  0.00    +0.000 C 
ENDROOT
BRANCH   1  10
ATOM      8  C   UNL     1      37.783   4.157  16.756  0.00  0.00    +0.000 C 
ATOM      9  O   UNL     1      37.692   3.354  17.729  0.00  0.00    +0.000 OA
ATOM     10  N   UNL     1      37.474   3.655  15.479  0.00  0.00    +0.000 NA
BRANCH   8  11
ATOM     11  C   UNL     1      38.205   5.590  16.966  0.00  0.00    +0.000 C 
BRANCH  11  12
ATOM     12  C   UNL     1      39.630   5.753  16.502  0.00  0.00    +0.000 C 
BRANCH  12  16
ATOM     13  C   UNL     1      41.998   6.683  19.974  0.00  0.00    +0.000 A 
ATOM     14  C   UNL     1      40.674   6.336  20.097  0.00  0.00    +0.000 A 
ATOM     15  C   UNL     1      39.922   6.038  18.966  0.00  0.00    +0.000 A 
ATOM     16  C   UNL     1      40.446   6.074  17.700  0.00  0.00    +0.000 A 
ATOM     17  C   UNL     1      41.792   6.428  17.592  0.00  0.00    +0.000 A 
ATOM     18  C   UNL     1      42.547   6.725  18.715  0.00  0.00    +0.000 A 
BRANCH  13  20
ATOM     19  C   UNL     1      43.572   5.989  21.732  0.00  0.00    +0.000 C 
ATOM     20  O   UNL     1      42.745   6.978  21.113  0.00  0.00    +0.000 OA
ENDBRANCH  13  20
ENDBRANCH  12  16
ENDBRANCH  11  12
ENDBRANCH   8  11
ENDBRANCH   1  10
BRANCH   5  21
ATOM     21  C   UNL     1      37.663  -1.108  14.098  0.00  0.00    +0.000 C 
BRANCH  21  22
ATOM     22  C   UNL     1      37.894  -2.071  15.204  0.00  0.00    +0.000 A 
ATOM     23  C   UNL     1      38.924  -1.960  16.105  0.00  0.00    +0.000 A 
ATOM     24  C   UNL     1      39.095  -2.893  17.111  0.00  0.00    +0.000 A 
ATOM     25  C   UNL     1      38.238  -3.959  17.237  0.00  0.00    +0.000 A 
ATOM     26  C   UNL     1      37.197  -4.093  16.346  0.00  0.00    +0.000 A 
ATOM     27  C   UNL     1      36.297  -5.147  16.426  0.00  0.00    +0.000 A 
ATOM     28  C   UNL     1      35.248  -5.310  15.559  0.00  0.00    +0.000 A 
ATOM     29  C   UNL     1      35.106  -4.353  14.558  0.00  0.00    +0.000 A 
ATOM     30  C   UNL     1      35.987  -3.305  14.467  0.00  0.00    +0.000 A 
ATOM     31  C   UNL     1      37.040  -3.160  15.354  0.00  0.00    +0.000 A 
ENDBRANCH  21  22
ENDBRANCH   5  21
TORSDOF 7
ENDMDL
MODEL 2
REMARK VINA RESULT:      -8.3      1.991      2.424
REMARK  Name = 
REMARK  7 active torsions:
REMARK  status: ('A' for Active; 'I' for Inactive)
REMARK    1  A    between atoms: O_2  and  C_3
REMARK    2  A    between atoms: C_6  and  C_7
REMARK    3  A    between atoms: C_7  and  C_8
REMARK    4  A    between atoms: C_8  and  C_9
REMARK    5  A    between atoms: N_11  and  C_12
REMARK    6  A    between atoms: N_16  and  C_17
REMARK    7  A    between atoms: C_17  and  C_18
REMARK                            x       y       z     vdW  Elec       q    Type
REMARK                         _______ _______ _______ _____ _____    ______ ____
ROOT
ATOM      1  C   UNL     1      37.210   2.377  15.267  0.00  0.00    +0.000 A 
ATOM      2  C   UNL     1      35.942   1.852  15.419  0.00  0.00    +0.000 A 
ATOM      3  C   UNL     1      34.799   2.632  15.964  0.00  0.00    +0.000 C 
ATOM      4  N   UNL     1      35.949   0.581  15.003  0.00  0.00    +0.000 NA
ATOM      5  N   UNL     1      37.149   0.252  14.590  0.00  0.00    +0.000 N 
ATOM      6  C   UNL     1      37.936   1.330  14.740  0.00  0.00    +0.000 A 
ATOM      7  C   UNL     1      39.379   1.396  14.393  0.00  0.00    +0.000 C 
ENDROOT
BRANCH   1  10
ATOM      8  C   UNL     1      37.925   4.118  16.880  0.00  0.00    +0.000 C 
ATOM      9  O   UNL     1      37.646   3.316  17.817  0.00  0.00    +0.000 OA
ATOM     10  N   UNL     1      37.713   3.666  15.564  0.00  0.00    +0.000 NA
BRANCH   8  11
ATOM     11  C   UNL     1      38.461   5.498  17.168  0.00  0.00    +0.000 C 
BRANCH  11  12
ATOM     12  C   UNL     1      38.946   5.546  18.595  0.00  0.00    +0.000 C 
BRANCH  12  16
ATOM     13  C   UNL     1      38.231   9.534  20.048  0.00  0.00    +0.000 A 
ATOM     14  C   UNL     1      37.498   9.023  19.005  0.00  0.00    +0.000 A 
ATOM     15  C   UNL     1      37.740   7.733  18.546  0.00  0.00    +0.000 A 
ATOM     16  C   UNL     1      38.700   6.922  19.096  0.00  0.00    +0.000 A 
ATOM     17  C   UNL     1      39.435   7.456  20.154  0.00  0.00    +0.000 A 
ATOM     18  C   UNL     1      39.198   8.740  20.616  0.00  0.00    +0.000 A 
BRANCH  13  20
ATOM     19  C   UNL     1      38.865  11.473  21.423  0.00  0.00    +0.000 C 
ATOM     20  O   UNL     1      37.980  10.828  20.502  0.00  0.00    +0.000 OA
ENDBRANCH  13  20
ENDBRANCH  12  16
ENDBRANCH  11  12
ENDBRANCH   8  11
ENDBRANCH   1  10
BRANCH   5  21
ATOM     21  C   UNL     1      37.570  -1.058  14.052  0.00  0.00    +0.000 C 
BRANCH  21  22
ATOM     22  C   UNL     1      37.837  -2.004  15.165  0.00  0.00    +0.000 A 
ATOM     23  C   UNL     1      38.876  -1.859  16.052  0.00  0.00    +0.000 A 
ATOM     24  C   UNL     1      39.082  -2.776  17.065  0.00  0.00    +0.000 A 
ATOM     25  C   UNL     1      38.251  -3.860  17.214  0.00  0.00    +0.000 A 
ATOM     26  C   UNL     1      37.202  -4.028  16.338  0.00  0.00    +0.000 A 
ATOM     27  C   UNL     1      36.329  -5.102  16.442  0.00  0.00    +0.000 A 
ATOM     28  C   UNL     1      35.272  -5.298  15.590  0.00  0.00    +0.000 A 
ATOM     29  C   UNL     1      35.094  -4.356  14.581  0.00  0.00    +0.000 A 
ATOM     30  C   UNL     1      35.950  -3.289  14.467  0.00  0.00    +0.000 A 
ATOM     31  C   UNL     1      37.011  -3.110  15.338  0.00  0.00    +0.000 A 
ENDBRANCH  21  22
ENDBRANCH   5  21
TORSDOF 7
ENDMDL
MODEL 3
REMARK VINA RESULT:      -8.1      1.498      2.373
REMARK  Name = 
REMARK  7 active torsions:
REMARK  status: ('A' for Active; 'I' for Inactive)
REMARK    1  A    between atoms: O_2  and  C_3
REMARK    2  A    between atoms: C_6  and  C_7
REMARK    3  A    between atoms: C_7  and  C_8
REMARK    4  A    between atoms: C_8  and  C_9
REMARK    5  A    between atoms: N_11  and  C_12
REMARK    6  A    between atoms: N_16  and  C_17
REMARK    7  A    between atoms: C_17  and  C_18
REMARK                            x       y       z     vdW  Elec       q    Type
REMARK                         _______ _______ _______ _____ _____    ______ ____
ROOT
ATOM      1  C   UNL     1      37.138   3.226  14.826  0.00  0.00    +0.000 A 
ATOM      2  C   UNL     1      35.780   3.077  14.632  0.00  0.00    +0.000 A 
ATOM      3  C   UNL     1      34.805   4.183  14.818  0.00  0.00    +0.000 C 
ATOM      4  N   UNL     1      35.534   1.814  14.264  0.00  0.00    +0.000 NA
ATOM      5  N   UNL     1      36.655   1.137  14.209  0.00  0.00    +0.000 N 
ATOM      6  C   UNL     1      37.648   1.977  14.547  0.00  0.00    +0.000 A 
ATOM      7  C   UNL     1      39.089   1.620  14.614  0.00  0.00    +0.000 C 
ENDROOT
BRANCH   1  10
ATOM      8  C   UNL     1      38.242   4.611  16.560  0.00  0.00    +0.000 C 
ATOM      9  O   UNL     1      37.856   3.775  17.426  0.00  0.00    +0.000 OA
ATOM     10  N   UNL     1      37.891   4.358  15.222  0.00  0.00    +0.000 NA
BRANCH   8  11
ATOM     11  C   UNL     1      39.045   5.826  16.954  0.00  0.00    +0.000 C 
BRANCH  11  12
ATOM     12  C   UNL     1      39.078   5.923  18.459  0.00  0.00    +0.000 C 
BRANCH  12  16
ATOM     13  C   UNL     1      43.150   6.745  19.588  0.00  0.00    +0.000 A 
ATOM     14  C   UNL     1      42.788   6.666  18.265  0.00  0.00    +0.000 A 
ATOM     15  C   UNL     1      41.469   6.401  17.915  0.00  0.00    +0.000 A 
ATOM     16  C   UNL     1      40.483   6.206  18.848  0.00  0.00    +0.000 A 
ATOM     17  C   UNL     1      40.867   6.289  20.187  0.00  0.00    +0.000 A 
ATOM     18  C   UNL     1      42.179   6.554  20.542  0.00  0.00    +0.000 A 
BRANCH  13  20
ATOM     19  C   UNL     1      45.488   7.123  18.926  0.00  0.00    +0.000 C 
ATOM     20  O   UNL     1      44.474   7.013  19.930  0.00  0.00    +0.000 OA
ENDBRANCH  13  20
ENDBRANCH  12  16
ENDBRANCH  11  12
ENDBRANCH   8  11
ENDBRANCH   1  10
BRANCH   5  21
ATOM     21  C   UNL     1      36.811  -0.285  13.840  0.00  0.00    +0.000 C 
BRANCH  21  22
ATOM     22  C   UNL     1      36.732  -1.137  15.053  0.00  0.00    +0.000 A 
ATOM     23  C   UNL     1      35.630  -1.195  15.870  0.00  0.00    +0.000 A 
ATOM     24  C   UNL     1      35.615  -2.002  16.992  0.00  0.00    +0.000 A 
ATOM     25  C   UNL     1      36.705  -2.770  17.322  0.00  0.00    +0.000 A 
ATOM     26  C   UNL     1      37.823  -2.731  16.519  0.00  0.00    +0.000 A 
ATOM     27  C   UNL     1      38.951  -3.487  16.800  0.00  0.00    +0.000 A 
ATOM     28  C   UNL     1      40.080  -3.475  16.021  0.00  0.00    +0.000 A 
ATOM     29  C   UNL     1      40.061  -2.652  14.900  0.00  0.00    +0.000 A 
ATOM     30  C   UNL     1      38.951  -1.898  14.609  0.00  0.00    +0.000 A 
ATOM     31  C   UNL     1      37.822  -1.925  15.410  0.00  0.00    +0.000 A 
ENDBRANCH  21  22
ENDBRANCH   5  21
TORSDOF 7
ENDMDL
MODEL 4
REMARK VINA RESULT:      -8.1      2.917      9.012
REMARK  Name = 
REMARK  7 active torsions:
REMARK  status: ('A' for Active; 'I' for Inactive)
REMARK    1  A    between atoms: O_2  and  C_3
REMARK    2  A    between atoms: C_6  and  C_7
REMARK    3  A    between atoms: C_7  and  C_8
REMARK    4  A    between atoms: C_8  and  C_9
REMARK    5  A    between atoms: N_11  and  C_12
REMARK    6  A    between atoms: N_16  and  C_17
REMARK    7  A    between atoms: C_17  and  C_18
REMARK                            x       y       z     vdW  Elec       q    Type
REMARK                         _______ _______ _______ _____ _____    ______ ____
ROOT
ATOM      1  C   UNL     1      38.921   3.388  15.087  0.00  0.00    +0.000 A 
ATOM      2  C   UNL     1      39.791   3.722  14.068  0.00  0.00    +0.000 A 
ATOM      3  C   UNL     1      40.097   2.816  12.930  0.00  0.00    +0.000 C 
ATOM      4  N   UNL     1      40.270   4.950  14.296  0.00  0.00    +0.000 NA
ATOM      5  N   UNL     1      39.761   5.430  15.405  0.00  0.00    +0.000 N 
ATOM      6  C   UNL     1      38.935   4.496  15.905  0.00  0.00    +0.000 A 
ATOM      7  C   UNL     1      38.147   4.629  17.158  0.00  0.00    +0.000 C 
ENDROOT
BRANCH   1  10
ATOM      8  C   UNL     1      36.879   2.018  14.776  0.00  0.00    +0.000 C 
ATOM      9  O   UNL     1      36.394   2.957  14.082  0.00  0.00    +0.000 OA
ATOM     10  N   UNL     1      38.169   2.208  15.303  0.00  0.00    +0.000 NA
BRANCH   8  11
ATOM     11  C   UNL     1      36.099   0.750  15.024  0.00  0.00    +0.000 C 
BRANCH  11  12
ATOM     12  C   UNL     1      35.358   0.879  16.330  0.00  0.00    +0.000 C 
BRANCH  12  16
ATOM     13  C   UNL     1      37.221  -1.819  19.119  0.00  0.00    +0.000 A 
ATOM     14  C   UNL     1      37.498  -1.893  17.775  0.00  0.00    +0.000 A 
ATOM     15  C   UNL     1      36.889  -1.015  16.887  0.00  0.00    +0.000 A 
ATOM     16  C   UNL     1      36.000  -0.053  17.292  0.00  0.00    +0.000 A 
ATOM     17  C   UNL     1      35.730   0.009  18.660  0.00  0.00    +0.000 A 
ATOM     18  C   UNL     1      36.334  -0.862  19.550  0.00  0.00    +0.000 A 
BRANCH  13  20
ATOM     19  C   UNL     1      38.842  -3.617  19.553  0.00  0.00    +0.000 C 
ATOM     20  O   UNL     1      37.838  -2.703  20.003  0.00  0.00    +0.000 OA
ENDBRANCH  13  20
ENDBRANCH  12  16
ENDBRANCH  11  12
ENDBRANCH   8  11
ENDBRANCH   1  10
BRANCH   5  21
ATOM     21  C   UNL     1      40.034   6.754  16.001  0.00  0.00    +0.000 C 
BRANCH  21  22
ATOM     22  C   UNL     1      41.423   6.801  16.521  0.00  0.00    +0.000 A 
ATOM     23  C   UNL     1      42.531   6.922  15.719  0.00  0.00    +0.000 A 
ATOM     24  C   UNL     1      43.803   6.953  16.259  0.00  0.00    +0.000 A 
ATOM     25  C   UNL     1      43.995   6.864  17.617  0.00  0.00    +0.000 A 
ATOM     26  C   UNL     1      42.900   6.742  18.443  0.00  0.00    +0.000 A 
ATOM     27  C   UNL     1      43.033   6.652  19.822  0.00  0.00    +0.000 A 
ATOM     28  C   UNL     1      41.966   6.534  20.675  0.00  0.00    +0.000 A 
ATOM     29  C   UNL     1      40.700   6.505  20.097  0.00  0.00    +0.000 A 
ATOM     30  C   UNL     1      40.554   6.594  18.736  0.00  0.00    +0.000 A 
ATOM     31  C   UNL     1      41.646   6.713  17.893  0.00  0.00    +0.000 A 
ENDBRANCH  21  22
ENDBRANCH   5  21
TORSDOF 7
ENDMDL
MODEL 5
REMARK VINA RESULT:      -8.1      2.489      8.847
REMARK  Name = 
REMARK  7 active torsions:
REMARK  status: ('A' for Active; 'I' for Inactive)
REMARK    1  A    between atoms: O_2  and  C_3
REMARK    2  A    between atoms: C_6  and  C_7
REMARK    3  A    between atoms: C_7  and  C_8
REMARK    4  A    between atoms: C_8  and  C_9
REMARK    5  A    between atoms: N_11  and  C_12
REMARK    6  A    between atoms: N_16  and  C_17
REMARK    7  A    between atoms: C_17  and  C_18
REMARK                            x       y       z     vdW  Elec       q    Type
REMARK                         _______ _______ _______ _____ _____    ______ ____
ROOT
ATOM      1  C   UNL     1      36.781   2.135  14.958  0.00  0.00    +0.000 A 
ATOM      2  C   UNL     1      35.959   3.220  15.192  0.00  0.00    +0.000 A 
ATOM      3  C   UNL     1      34.487   3.105  15.358  0.00  0.00    +0.000 C 
ATOM      4  N   UNL     1      36.710   4.326  15.238  0.00  0.00    +0.000 NA
ATOM      5  N   UNL     1      37.971   4.020  15.046  0.00  0.00    +0.000 N 
ATOM      6  C   UNL     1      38.039   2.690  14.874  0.00  0.00    +0.000 A 
ATOM      7  C   UNL     1      39.285   1.919  14.627  0.00  0.00    +0.000 C 
ENDROOT
BRANCH   1  10
ATOM      8  C   UNL     1      36.465  -0.133  15.907  0.00  0.00    +0.000 C 
ATOM      9  O   UNL     1      36.752   0.339  17.044  0.00  0.00    +0.000 OA
ATOM     10  N   UNL     1      36.471   0.761  14.820  0.00  0.00    +0.000 NA
BRANCH   8  11
ATOM     11  C   UNL     1      36.131  -1.594  15.731  0.00  0.00    +0.000 C 
BRANCH  11  12
ATOM     12  C   UNL     1      37.273  -2.424  16.263  0.00  0.00    +0.000 C 
BRANCH  12  16
ATOM     13  C   UNL     1      40.369  -2.386  13.273  0.00  0.00    +0.000 A 
ATOM     14  C   UNL     1      39.088  -2.770  12.956  0.00  0.00    +0.000 A 
ATOM     15  C   UNL     1      38.099  -2.777  13.932  0.00  0.00    +0.000 A 
ATOM     16  C   UNL     1      38.341  -2.412  15.232  0.00  0.00    +0.000 A 
ATOM     17  C   UNL     1      39.646  -2.025  15.537  0.00  0.00    +0.000 A 
ATOM     18  C   UNL     1      40.636  -2.015  14.569  0.00  0.00    +0.000 A 
BRANCH  13  20
ATOM     19  C   UNL     1      41.858  -1.154  11.752  0.00  0.00    +0.000 C 
ATOM     20  O   UNL     1      41.354  -2.381  12.287  0.00  0.00    +0.000 OA
ENDBRANCH  13  20
ENDBRANCH  12  16
ENDBRANCH  11  12
ENDBRANCH   8  11
ENDBRANCH   1  10
BRANCH   5  21
ATOM     21  C   UNL     1      39.113   4.956  15.027  0.00  0.00    +0.000 C 
BRANCH  21  22
ATOM     22  C   UNL     1      39.497   5.320  16.414  0.00  0.00    +0.000 A 
ATOM     23  C   UNL     1      38.689   5.112  17.505  0.00  0.00    +0.000 A 
ATOM     24  C   UNL     1      39.096   5.479  18.774  0.00  0.00    +0.000 A 
ATOM     25  C   UNL     1      40.322   6.064  18.980  0.00  0.00    +0.000 A 
ATOM     26  C   UNL     1      41.151   6.283  17.902  0.00  0.00    +0.000 A 
ATOM     27  C   UNL     1      42.401   6.866  18.050  0.00  0.00    +0.000 A 
ATOM     28  C   UNL     1      43.254   7.096  17.001  0.00  0.00    +0.000 A 
ATOM     29  C   UNL     1      42.813   6.715  15.737  0.00  0.00    +0.000 A 
ATOM     30  C   UNL     1      41.579   6.136  15.577  0.00  0.00    +0.000 A 
ATOM     31  C   UNL     1      40.733   5.914  16.650  0.00  0.00    +0.000 A 
ENDBRANCH  21  22
ENDBRANCH   5  21
TORSDOF 7
ENDMDL
MODEL 6
REMARK VINA RESULT:      -7.7      1.417      2.333
REMARK  Name = 
REMARK  7 active torsions:
REMARK  status: ('A' for Active; 'I' for Inactive)
REMARK    1  A    between atoms: O_2  and  C_3
REMARK    2  A    between atoms: C_6  and  C_7
REMARK    3  A    between atoms: C_7  and  C_8
REMARK    4  A    between atoms: C_8  and  C_9
REMARK    5  A    between atoms: N_11  and  C_12
REMARK    6  A    between atoms: N_16  and  C_17
REMARK    7  A    between atoms: C_17  and  C_18
REMARK                            x       y       z     vdW  Elec       q    Type
REMARK                         _______ _______ _______ _____ _____    ______ ____
ROOT
ATOM      1  C   UNL     1      39.011   1.711  14.597  0.00  0.00    +0.000 A 
ATOM      2  C   UNL     1      39.913   1.281  13.644  0.00  0.00    +0.000 A 
ATOM      3  C   UNL     1      41.086   2.085  13.212  0.00  0.00    +0.000 C 
ATOM      4  N   UNL     1      39.541   0.069  13.216  0.00  0.00    +0.000 NA
ATOM      5  N   UNL     1      38.450  -0.310  13.836  0.00  0.00    +0.000 N 
ATOM      6  C   UNL     1      38.108   0.674  14.684  0.00  0.00    +0.000 A 
ATOM      7  C   UNL     1      36.928   0.657  15.587  0.00  0.00    +0.000 C 
ENDROOT
BRANCH   1  10
ATOM      8  C   UNL     1      38.352   4.087  14.852  0.00  0.00    +0.000 C 
ATOM      9  O   UNL     1      37.832   4.032  13.701  0.00  0.00    +0.000 OA
ATOM     10  N   UNL     1      38.962   2.916  15.338  0.00  0.00    +0.000 NA
BRANCH   8  11
ATOM     11  C   UNL     1      38.315   5.358  15.664  0.00  0.00    +0.000 C 
BRANCH  11  12
ATOM     12  C   UNL     1      38.221   5.003  17.126  0.00  0.00    +0.000 C 
BRANCH  12  16
ATOM     13  C   UNL     1      41.671   6.692  19.068  0.00  0.00    +0.000 A 
ATOM     14  C   UNL     1      41.670   6.456  17.714  0.00  0.00    +0.000 A 
ATOM     15  C   UNL     1      40.549   5.910  17.101  0.00  0.00    +0.000 A 
ATOM     16  C   UNL     1      39.412   5.584  17.796  0.00  0.00    +0.000 A 
ATOM     17  C   UNL     1      39.429   5.831  19.169  0.00  0.00    +0.000 A 
ATOM     18  C   UNL     1      40.543   6.375  19.786  0.00  0.00    +0.000 A 
BRANCH  13  20
ATOM     19  C   UNL     1      42.686   8.309  20.619  0.00  0.00    +0.000 C 
ATOM     20  O   UNL     1      42.800   7.241  19.674  0.00  0.00    +0.000 OA
ENDBRANCH  13  20
ENDBRANCH  12  16
ENDBRANCH  11  12
ENDBRANCH   8  11
ENDBRANCH   1  10
BRANCH   5  21
ATOM     21  C   UNL     1      37.726  -1.584  13.650  0.00  0.00    +0.000 C 
BRANCH  21  22
ATOM     22  C   UNL     1      38.032  -2.512  14.768  0.00  0.00    +0.000 A 
ATOM     23  C   UNL     1      39.200  -2.475  15.488  0.00  0.00    +0.000 A 
ATOM     24  C   UNL     1      39.434  -3.370  16.514  0.00  0.00    +0.000 A 
ATOM     25  C   UNL     1      38.503  -4.324  16.843  0.00  0.00    +0.000 A 
ATOM     26  C   UNL     1      37.323  -4.383  16.137  0.00  0.00    +0.000 A 
ATOM     27  C   UNL     1      36.344  -5.323  16.427  0.00  0.00    +0.000 A 
ATOM     28  C   UNL     1      35.156  -5.407  15.747  0.00  0.00    +0.000 A 
ATOM     29  C   UNL     1      34.953  -4.491  14.719  0.00  0.00    +0.000 A 
ATOM     30  C   UNL     1      35.912  -3.555  14.422  0.00  0.00    +0.000 A 
ATOM     31  C   UNL     1      37.105  -3.488  15.122  0.00  0.00    +0.000 A 
ENDBRANCH  21  22
ENDBRANCH   5  21
TORSDOF 7
ENDMDL
MODEL 7
REMARK VINA RESULT:      -7.7      4.597      7.171
REMARK  Name = 
REMARK  7 active torsions:
REMARK  status: ('A' for Active; 'I' for Inactive)
REMARK    1  A    between atoms: O_2  and  C_3
REMARK    2  A    between atoms: C_6  and  C_7
REMARK    3  A    between atoms: C_7  and  C_8
REMARK    4  A    between atoms: C_8  and  C_9
REMARK    5  A    between atoms: N_11  and  C_12
REMARK    6  A    between atoms: N_16  and  C_17
REMARK    7  A    between atoms: C_17  and  C_18
REMARK                            x       y       z     vdW  Elec       q    Type
REMARK                         _______ _______ _______ _____ _____    ______ ____
ROOT
ATOM      1  C   UNL     1      38.937  -1.724  16.078  0.00  0.00    +0.000 A 
ATOM      2  C   UNL     1      39.393  -3.015  16.254  0.00  0.00    +0.000 A 
ATOM      3  C   UNL     1      38.714  -4.006  17.129  0.00  0.00    +0.000 C 
ATOM      4  N   UNL     1      40.499  -3.185  15.520  0.00  0.00    +0.000 NA
ATOM      5  N   UNL     1      40.787  -2.077  14.881  0.00  0.00    +0.000 N 
ATOM      6  C   UNL     1      39.848  -1.171  15.204  0.00  0.00    +0.000 A 
ATOM      7  C   UNL     1      39.792   0.225  14.700  0.00  0.00    +0.000 C 
ENDROOT
BRANCH   1  10
ATOM      8  C   UNL     1      36.542  -1.085  16.040  0.00  0.00    +0.000 C 
ATOM      9  O   UNL     1      36.421  -1.735  14.962  0.00  0.00    +0.000 OA
ATOM     10  N   UNL     1      37.817  -1.061  16.635  0.00  0.00    +0.000 NA
BRANCH   8  11
ATOM     11  C   UNL     1      35.365  -0.369  16.655  0.00  0.00    +0.000 C 
BRANCH  11  12
ATOM     12  C   UNL     1      35.852   0.900  17.308  0.00  0.00    +0.000 C 
BRANCH  12  16
ATOM     13  C   UNL     1      35.582   4.025  14.360  0.00  0.00    +0.000 A 
ATOM     14  C   UNL     1      36.791   3.449  14.667  0.00  0.00    +0.000 A 
ATOM     15  C   UNL     1      36.863   2.441  15.622  0.00  0.00    +0.000 A 
ATOM     16  C   UNL     1      35.759   1.979  16.292  0.00  0.00    +0.000 A 
ATOM     17  C   UNL     1      34.539   2.573  15.968  0.00  0.00    +0.000 A 
ATOM     18  C   UNL     1      34.461   3.578  15.017  0.00  0.00    +0.000 A 
BRANCH  13  20
ATOM     19  C   UNL     1      36.482   5.111  12.345  0.00  0.00    +0.000 C 
ATOM     20  O   UNL     1      35.520   5.034  13.401  0.00  0.00    +0.000 OA
ENDBRANCH  13  20
ENDBRANCH  12  16
ENDBRANCH  11  12
ENDBRANCH   8  11
ENDBRANCH   1  10
BRANCH   5  21
ATOM     21  C   UNL     1      41.926  -1.854  13.967  0.00  0.00    +0.000 C 
BRANCH  21  22
ATOM     22  C   UNL     1      41.622  -2.420  12.629  0.00  0.00    +0.000 A 
ATOM     23  C   UNL     1      40.426  -2.236  11.980  0.00  0.00    +0.000 A 
ATOM     24  C   UNL     1      40.197  -2.795  10.737  0.00  0.00    +0.000 A 
ATOM     25  C   UNL     1      41.160  -3.550  10.114  0.00  0.00    +0.000 A 
ATOM     26  C   UNL     1      42.368  -3.750  10.744  0.00  0.00    +0.000 A 
ATOM     27  C   UNL     1      43.380  -4.501  10.162  0.00  0.00    +0.000 A 
ATOM     28  C   UNL     1      44.596  -4.716  10.758  0.00  0.00    +0.000 A 
ATOM     29  C   UNL     1      44.793  -4.140  12.010  0.00  0.00    +0.000 A 
ATOM     30  C   UNL     1      43.802  -3.395  12.597  0.00  0.00    +0.000 A 
ATOM     31  C   UNL     1      42.581  -3.190  11.976  0.00  0.00    +0.000 A 
ENDBRANCH  21  22
ENDBRANCH   5  21
TORSDOF 7
ENDMDL
MODEL 8
REMARK VINA RESULT:      -7.6     26.270     29.658
REMARK  Name = 
REMARK  7 active torsions:
REMARK  status: ('A' for Active; 'I' for Inactive)
REMARK    1  A    between atoms: O_2  and  C_3
REMARK    2  A    between atoms: C_6  and  C_7
REMARK    3  A    between atoms: C_7  and  C_8
REMARK    4  A    between atoms: C_8  and  C_9
REMARK    5  A    between atoms: N_11  and  C_12
REMARK    6  A    between atoms: N_16  and  C_17
REMARK    7  A    between atoms: C_17  and  C_18
REMARK                            x       y       z     vdW  Elec       q    Type
REMARK                         _______ _______ _______ _____ _____    ______ ____
ROOT
ATOM      1  C   UNL     1      11.871   2.205  28.229  0.00  0.00    +0.000 A 
ATOM      2  C   UNL     1      11.275   3.310  27.655  0.00  0.00    +0.000 A 
ATOM      3  C   UNL     1      11.774   3.948  26.409  0.00  0.00    +0.000 C 
ATOM      4  N   UNL     1      10.223   3.667  28.400  0.00  0.00    +0.000 NA
ATOM      5  N   UNL     1      10.104   2.857  29.424  0.00  0.00    +0.000 N 
ATOM      6  C   UNL     1      11.097   1.956  29.342  0.00  0.00    +0.000 A 
ATOM      7  C   UNL     1      11.336   0.850  30.304  0.00  0.00    +0.000 C 
ENDROOT
BRANCH   1  10
ATOM      8  C   UNL     1      12.920   0.292  27.052  0.00  0.00    +0.000 C 
ATOM      9  O   UNL     1      11.763  -0.089  26.711  0.00  0.00    +0.000 OA
ATOM     10  N   UNL     1      13.008   1.462  27.828  0.00  0.00    +0.000 NA
BRANCH   8  11
ATOM     11  C   UNL     1      14.148  -0.481  26.640  0.00  0.00    +0.000 C 
BRANCH  11  12
ATOM     12  C   UNL     1      15.337   0.048  27.400  0.00  0.00    +0.000 C 
BRANCH  12  16
ATOM     13  C   UNL     1      18.658   0.133  24.662  0.00  0.00    +0.000 A 
ATOM     14  C   UNL     1      17.954  -1.027  24.880  0.00  0.00    +0.000 A 
ATOM     15  C   UNL     1      16.884  -1.039  25.767  0.00  0.00    +0.000 A 
ATOM     16  C   UNL     1      16.483   0.077  26.457  0.00  0.00    +0.000 A 
ATOM     17  C   UNL     1      17.209   1.246  26.225  0.00  0.00    +0.000 A 
ATOM     18  C   UNL     1      18.276   1.265  25.341  0.00  0.00    +0.000 A 
BRANCH  13  20
ATOM     19  C   UNL     1      20.181  -1.074  23.154  0.00  0.00    +0.000 C 
ATOM     20  O   UNL     1      19.729   0.136  23.770  0.00  0.00    +0.000 OA
ENDBRANCH  13  20
ENDBRANCH  12  16
ENDBRANCH  11  12
ENDBRANCH   8  11
ENDBRANCH   1  10
BRANCH   5  21
ATOM     21  C   UNL     1       9.070   2.911  30.477  0.00  0.00    +0.000 C 
BRANCH  21  22
ATOM     22  C   UNL     1       9.431   3.931  31.494  0.00  0.00    +0.000 A 
ATOM     23  C   UNL     1      10.328   3.708  32.508  0.00  0.00    +0.000 A 
ATOM     24  C   UNL     1      10.620   4.694  33.432  0.00  0.00    +0.000 A 
ATOM     25  C   UNL     1      10.019   5.927  33.361  0.00  0.00    +0.000 A 
ATOM     26  C   UNL     1       9.115   6.176  32.352  0.00  0.00    +0.000 A 
ATOM     27  C   UNL     1       8.479   7.404  32.228  0.00  0.00    +0.000 A 
ATOM     28  C   UNL     1       7.577   7.688  31.235  0.00  0.00    +0.000 A 
ATOM     29  C   UNL     1       7.307   6.673  30.322  0.00  0.00    +0.000 A 
ATOM     30  C   UNL     1       7.928   5.454  30.433  0.00  0.00    +0.000 A 
ATOM     31  C   UNL     1       8.836   5.189  31.444  0.00  0.00    +0.000 A 
ENDBRANCH  21  22
ENDBRANCH   5  21
TORSDOF 7
ENDMDL
MODEL 9
REMARK VINA RESULT:      -7.5      4.041      5.587
REMARK  Name = 
REMARK  7 active torsions:
REMARK  status: ('A' for Active; 'I' for Inactive)
REMARK    1  A    between atoms: O_2  and  C_3
REMARK    2  A    between atoms: C_6  and  C_7
REMARK    3  A    between atoms: C_7  and  C_8
REMARK    4  A    between atoms: C_8  and  C_9
REMARK    5  A    between atoms: N_11  and  C_12
REMARK    6  A    between atoms: N_16  and  C_17
REMARK    7  A    between atoms: C_17  and  C_18
REMARK                            x       y       z     vdW  Elec       q    Type
REMARK                         _______ _______ _______ _____ _____    ______ ____
ROOT
ATOM      1  C   UNL     1      36.826   3.741  14.926  0.00  0.00    +0.000 A 
ATOM      2  C   UNL     1      38.071   3.151  15.016  0.00  0.00    +0.000 A 
ATOM      3  C   UNL     1      39.342   3.916  14.915  0.00  0.00    +0.000 C 
ATOM      4  N   UNL     1      37.912   1.836  15.203  0.00  0.00    +0.000 NA
ATOM      5  N   UNL     1      36.636   1.540  15.238  0.00  0.00    +0.000 N 
ATOM      6  C   UNL     1      35.953   2.685  15.072  0.00  0.00    +0.000 A 
ATOM      7  C   UNL     1      34.472   2.806  15.047  0.00  0.00    +0.000 C 
ENDROOT
BRANCH   1  10
ATOM      8  C   UNL     1      36.231   5.641  13.450  0.00  0.00    +0.000 C 
ATOM      9  O   UNL     1      36.361   4.868  12.458  0.00  0.00    +0.000 OA
ATOM     10  N   UNL     1      36.462   5.094  14.725  0.00  0.00    +0.000 NA
BRANCH   8  11
ATOM     11  C   UNL     1      35.845   7.089  13.265  0.00  0.00    +0.000 C 
BRANCH  11  12
ATOM     12  C   UNL     1      34.422   7.278  13.725  0.00  0.00    +0.000 C 
BRANCH  12  16
ATOM     13  C   UNL     1      34.459  10.356  16.733  0.00  0.00    +0.000 A 
ATOM     14  C   UNL     1      33.418   9.464  16.652  0.00  0.00    +0.000 A 
ATOM     15  C   UNL     1      33.420   8.475  15.675  0.00  0.00    +0.000 A 
ATOM     16  C   UNL     1      34.434   8.340  14.762  0.00  0.00    +0.000 A 
ATOM     17  C   UNL     1      35.484   9.254  14.858  0.00  0.00    +0.000 A 
ATOM     18  C   UNL     1      35.488  10.241  15.830  0.00  0.00    +0.000 A 
BRANCH  13  20
ATOM     19  C   UNL     1      34.775  12.701  17.404  0.00  0.00    +0.000 C 
ATOM     20  O   UNL     1      34.449  11.344  17.716  0.00  0.00    +0.000 OA
ENDBRANCH  13  20
ENDBRANCH  12  16
ENDBRANCH  11  12
ENDBRANCH   8  11
ENDBRANCH   1  10
BRANCH   5  21
ATOM     21  C   UNL     1      36.045   0.200  15.430  0.00  0.00    +0.000 C 
BRANCH  21  22
ATOM     22  C   UNL     1      36.230  -0.242  16.835  0.00  0.00    +0.000 A 
ATOM     23  C   UNL     1      35.546   0.297  17.897  0.00  0.00    +0.000 A 
ATOM     24  C   UNL     1      35.765  -0.148  19.186  0.00  0.00    +0.000 A 
ATOM     25  C   UNL     1      36.675  -1.145  19.443  0.00  0.00    +0.000 A 
ATOM     26  C   UNL     1      37.374  -1.702  18.396  0.00  0.00    +0.000 A 
ATOM     27  C   UNL     1      38.303  -2.714  18.594  0.00  0.00    +0.000 A 
ATOM     28  C   UNL     1      39.014  -3.294  17.575  0.00  0.00    +0.000 A 
ATOM     29  C   UNL     1      38.769  -2.821  16.289  0.00  0.00    +0.000 A 
ATOM     30  C   UNL     1      37.853  -1.822  16.078  0.00  0.00    +0.000 A 
ATOM     31  C   UNL     1      37.146  -1.250  17.123  0.00  0.00    +0.000 A 
ENDBRANCH  21  22
ENDBRANCH   5  21
TORSDOF 7
ENDMDL
MODEL 10
REMARK VINA RESULT:      -7.4      2.694      9.045
REMARK  Name = 
REMARK  7 active torsions:
REMARK  status: ('A' for Active; 'I' for Inactive)
REMARK    1  A    between atoms: O_2  and  C_3
REMARK    2  A    between atoms: C_6  and  C_7
REMARK    3  A    between atoms: C_7  and  C_8
REMARK    4  A    between atoms: C_8  and  C_9
REMARK    5  A    between atoms: N_11  and  C_12
REMARK    6  A    between atoms: N_16  and  C_17
REMARK    7  A    between atoms: C_17  and  C_18
REMARK                            x       y       z     vdW  Elec       q    Type
REMARK                         _______ _______ _______ _____ _____    ______ ____
ROOT
ATOM      1  C   UNL     1      36.777   2.247  14.975  0.00  0.00    +0.000 A 
ATOM      2  C   UNL     1      35.839   3.234  15.204  0.00  0.00    +0.000 A 
ATOM      3  C   UNL     1      34.385   2.958  15.342  0.00  0.00    +0.000 C 
ATOM      4  N   UNL     1      36.465   4.415  15.274  0.00  0.00    +0.000 NA
ATOM      5  N   UNL     1      37.754   4.249  15.102  0.00  0.00    +0.000 N 
ATOM      6  C   UNL     1      37.969   2.935  14.919  0.00  0.00    +0.000 A 
ATOM      7  C   UNL     1      39.295   2.307  14.688  0.00  0.00    +0.000 C 
ENDROOT
BRANCH   1  10
ATOM      8  C   UNL     1      36.629  -0.046  15.905  0.00  0.00    +0.000 C 
ATOM      9  O   UNL     1      36.786   0.447  17.058  0.00  0.00    +0.000 OA
ATOM     10  N   UNL     1      36.620   0.849  14.819  0.00  0.00    +0.000 NA
BRANCH   8  11
ATOM     11  C   UNL     1      36.461  -1.533  15.709  0.00  0.00    +0.000 C 
BRANCH  11  12
ATOM     12  C   UNL     1      37.682  -2.238  16.242  0.00  0.00    +0.000 C 
BRANCH  12  16
ATOM     13  C   UNL     1      40.557  -2.388  13.041  0.00  0.00    +0.000 A 
ATOM     14  C   UNL     1      39.252  -2.769  12.836  0.00  0.00    +0.000 A 
ATOM     15  C   UNL     1      38.335  -2.715  13.879  0.00  0.00    +0.000 A 
ATOM     16  C   UNL     1      38.674  -2.290  15.138  0.00  0.00    +0.000 A 
ATOM     17  C   UNL     1      40.002  -1.907  15.331  0.00  0.00    +0.000 A 
ATOM     18  C   UNL     1      40.920  -1.958  14.295  0.00  0.00    +0.000 A 
BRANCH  13  20
ATOM     19  C   UNL     1      41.933  -1.252  11.349  0.00  0.00    +0.000 C 
ATOM     20  O   UNL     1      41.469  -2.444  11.989  0.00  0.00    +0.000 OA
ENDBRANCH  13  20
ENDBRANCH  12  16
ENDBRANCH  11  12
ENDBRANCH   8  11
ENDBRANCH   1  10
BRANCH   5  21
ATOM     21  C   UNL     1      38.789   5.303  15.113  0.00  0.00    +0.000 C 
BRANCH  21  22
ATOM     22  C   UNL     1      38.299   6.490  15.857  0.00  0.00    +0.000 A 
ATOM     23  C   UNL     1      37.508   7.463  15.299  0.00  0.00    +0.000 A 
ATOM     24  C   UNL     1      37.088   8.552  16.039  0.00  0.00    +0.000 A 
ATOM     25  C   UNL     1      37.451   8.692  17.356  0.00  0.00    +0.000 A 
ATOM     26  C   UNL     1      38.244   7.729  17.940  0.00  0.00    +0.000 A 
ATOM     27  C   UNL     1      38.639   7.815  19.268  0.00  0.00    +0.000 A 
ATOM     28  C   UNL     1      39.425   6.874  19.882  0.00  0.00    +0.000 A 
ATOM     29  C   UNL     1      39.830   5.791  19.107  0.00  0.00    +0.000 A 
ATOM     30  C   UNL     1      39.446   5.693  17.794  0.00  0.00    +0.000 A 
ATOM     31  C   UNL     1      38.653   6.655  17.193  0.00  0.00    +0.000 A 
ENDBRANCH  21  22
ENDBRANCH   5  21
TORSDOF 7
ENDMDL
