MODEL 1
REMARK VINA RESULT:      -6.4      0.000      0.000
REMARK  Name = 
REMARK  2 active torsions:
REMARK  status: ('A' for Active; 'I' for Inactive)
REMARK    1  A    between atoms: C_2  and  C_4
REMARK    2  A    between atoms: C_12  and  C_13
REMARK                            x       y       z     vdW  Elec       q    Type
REMARK                         _______ _______ _______ _____ _____    ______ ____
ROOT
ATOM      1  C   UNL     1      20.975  -9.529  26.546  0.00  0.00    +0.000 A 
ATOM      2  N   UNL     1      19.807  -9.430  27.204  0.00  0.00    +0.000 NA
ATOM      3  N   UNL     1      19.284  -8.243  27.014  0.00  0.00    +0.000 N 
ATOM      4  C   UNL     1      18.148  -7.625  27.434  0.00  0.00    +0.000 A 
ATOM      5  C   UNL     1      17.805  -6.336  27.095  0.00  0.00    +0.000 A 
ATOM      6  C   UNL     1      18.651  -5.639  26.294  0.00  0.00    +0.000 A 
ATOM      7  C   UNL     1      19.796  -6.262  25.871  0.00  0.00    +0.000 A 
ATOM      8  C   UNL     1      20.133  -7.577  26.225  0.00  0.00    +0.000 A 
ATOM      9  C   UNL     1      21.237  -8.349  25.889  0.00  0.00    +0.000 A 
ENDROOT
BRANCH   9  10
ATOM     10  C   UNL     1      22.345  -7.963  25.037  0.00  0.00    +0.000 C 
ATOM     11  N   UNL     1      22.882  -6.856  25.260  0.00  0.00    +0.000 NA
ATOM     12  N   UNL     1      23.955  -6.225  24.613  0.00  0.00    +0.000 NA
ATOM     13  C   UNL     1      24.493  -6.987  23.538  0.00  0.00    +0.000 C 
ATOM     14  O   UNL     1      25.658  -7.050  23.148  0.00  0.00    +0.000 OA
ATOM     15  C   UNL     1      23.457  -7.767  22.868  0.00  0.00    +0.000 C 
ATOM     16  C   UNL     1      22.863  -8.860  23.901  0.00  0.00    +0.000 C 
ATOM     17  C   UNL     1      21.438  -8.883  23.028  0.00  0.00    +0.000 C 
ENDBRANCH   9  10
BRANCH   1  19
ATOM     18  C   UNL     1      21.044 -11.976  26.293  0.00  0.00    +0.000 C 
ATOM     19  C   UNL     1      21.811 -10.726  26.577  0.00  0.00    +0.000 C 
ATOM     20  C   UNL     1      22.395 -10.830  27.971  0.00  0.00    +0.000 C 
ENDBRANCH   1  19
TORSDOF 2
ENDMDL
MODEL 2
REMARK VINA RESULT:      -6.3     31.811     33.325
REMARK  Name = 
REMARK  2 active torsions:
REMARK  status: ('A' for Active; 'I' for Inactive)
REMARK    1  A    between atoms: C_2  and  C_4
REMARK    2  A    between atoms: C_12  and  C_13
REMARK                            x       y       z     vdW  Elec       q    Type
REMARK                         _______ _______ _______ _____ _____    ______ ____
ROOT
ATOM      1  C   UNL     1      25.471  25.376  25.877  0.00  0.00    +0.000 A 
ATOM      2  N   UNL     1      25.161  25.105  27.156  0.00  0.00    +0.000 NA
ATOM      3  N   UNL     1      25.984  24.206  27.637  0.00  0.00    +0.000 N 
ATOM      4  C   UNL     1      26.121  23.587  28.841  0.00  0.00    +0.000 A 
ATOM      5  C   UNL     1      27.089  22.649  29.115  0.00  0.00    +0.000 A 
ATOM      6  C   UNL     1      27.961  22.320  28.127  0.00  0.00    +0.000 A 
ATOM      7  C   UNL     1      27.822  22.945  26.915  0.00  0.00    +0.000 A 
ATOM      8  C   UNL     1      26.830  23.899  26.649  0.00  0.00    +0.000 A 
ATOM      9  C   UNL     1      26.552  24.618  25.494  0.00  0.00    +0.000 A 
ENDROOT
BRANCH   9  10
ATOM     10  C   UNL     1      27.272  24.559  24.236  0.00  0.00    +0.000 C 
ATOM     11  N   UNL     1      27.896  25.582  23.882  0.00  0.00    +0.000 NA
ATOM     12  N   UNL     1      28.670  25.819  22.737  0.00  0.00    +0.000 NA
ATOM     13  C   UNL     1      28.735  24.700  21.858  0.00  0.00    +0.000 C 
ATOM     14  O   UNL     1      29.664  24.343  21.136  0.00  0.00    +0.000 OA
ATOM     15  C   UNL     1      27.493  23.933  21.882  0.00  0.00    +0.000 C 
ATOM     16  C   UNL     1      27.290  23.298  23.356  0.00  0.00    +0.000 C 
ATOM     17  C   UNL     1      25.642  23.247  23.085  0.00  0.00    +0.000 C 
ENDBRANCH   9  10
BRANCH   1  19
ATOM     18  C   UNL     1      25.314  27.697  25.075  0.00  0.00    +0.000 C 
ATOM     19  C   UNL     1      24.723  26.326  25.057  0.00  0.00    +0.000 C 
ATOM     20  C   UNL     1      23.320  26.402  25.624  0.00  0.00    +0.000 C 
ENDBRANCH   1  19
TORSDOF 2
ENDMDL
MODEL 3
REMARK VINA RESULT:      -6.1     34.171     35.741
REMARK  Name = 
REMARK  2 active torsions:
REMARK  status: ('A' for Active; 'I' for Inactive)
REMARK    1  A    between atoms: C_2  and  C_4
REMARK    2  A    between atoms: C_12  and  C_13
REMARK                            x       y       z     vdW  Elec       q    Type
REMARK                         _______ _______ _______ _____ _____    ______ ____
ROOT
ATOM      1  C   UNL     1      32.937  21.958   8.514  0.00  0.00    +0.000 A 
ATOM      2  N   UNL     1      33.240  21.443   7.310  0.00  0.00    +0.000 NA
ATOM      3  N   UNL     1      32.256  20.687   6.885  0.00  0.00    +0.000 N 
ATOM      4  C   UNL     1      32.041  19.945   5.766  0.00  0.00    +0.000 A 
ATOM      5  C   UNL     1      30.898  19.214   5.538  0.00  0.00    +0.000 A 
ATOM      6  C   UNL     1      29.926  19.233   6.487  0.00  0.00    +0.000 A 
ATOM      7  C   UNL     1      30.144  19.981   7.614  0.00  0.00    +0.000 A 
ATOM      8  C   UNL     1      31.315  20.721   7.834  0.00  0.00    +0.000 A 
ATOM      9  C   UNL     1      31.693  21.521   8.904  0.00  0.00    +0.000 A 
ENDROOT
BRANCH   9  10
ATOM     10  C   UNL     1      30.917  21.805  10.096  0.00  0.00    +0.000 C 
ATOM     11  N   UNL     1      30.506  22.975  10.249  0.00  0.00    +0.000 NA
ATOM     12  N   UNL     1      29.745  23.540  11.284  0.00  0.00    +0.000 NA
ATOM     13  C   UNL     1      29.405  22.608  12.306  0.00  0.00    +0.000 C 
ATOM     14  O   UNL     1      28.388  22.562  12.996  0.00  0.00    +0.000 OA
ATOM     15  C   UNL     1      30.457  21.613  12.490  0.00  0.00    +0.000 C 
ATOM     16  C   UNL     1      30.593  20.727  11.144  0.00  0.00    +0.000 C 
ATOM     17  C   UNL     1      32.178  20.390  11.549  0.00  0.00    +0.000 C 
ENDBRANCH   9  10
BRANCH   1  19
ATOM     18  C   UNL     1      34.368  23.959   8.440  0.00  0.00    +0.000 C 
ATOM     19  C   UNL     1      33.841  22.828   9.262  0.00  0.00    +0.000 C 
ATOM     20  C   UNL     1      35.013  21.978   9.711  0.00  0.00    +0.000 C 
ENDBRANCH   1  19
TORSDOF 2
ENDMDL
MODEL 4
REMARK VINA RESULT:      -6.1     31.906     33.775
REMARK  Name = 
REMARK  2 active torsions:
REMARK  status: ('A' for Active; 'I' for Inactive)
REMARK    1  A    between atoms: C_2  and  C_4
REMARK    2  A    between atoms: C_12  and  C_13
REMARK                            x       y       z     vdW  Elec       q    Type
REMARK                         _______ _______ _______ _____ _____    ______ ____
ROOT
ATOM      1  C   UNL     1      27.218  23.952  24.389  0.00  0.00    +0.000 A 
ATOM      2  N   UNL     1      27.409  23.202  25.487  0.00  0.00    +0.000 NA
ATOM      3  N   UNL     1      28.691  23.025  25.693  0.00  0.00    +0.000 N 
ATOM      4  C   UNL     1      29.423  22.366  26.632  0.00  0.00    +0.000 A 
ATOM      5  C   UNL     1      30.798  22.320  26.639  0.00  0.00    +0.000 A 
ATOM      6  C   UNL     1      31.465  22.970  25.652  0.00  0.00    +0.000 A 
ATOM      7  C   UNL     1      30.728  23.634  24.706  0.00  0.00    +0.000 A 
ATOM      8  C   UNL     1      29.325  23.672  24.711  0.00  0.00    +0.000 A 
ATOM      9  C   UNL     1      28.434  24.288  23.842  0.00  0.00    +0.000 A 
ENDROOT
BRANCH   9  10
ATOM     10  C   UNL     1      28.764  25.091  22.680  0.00  0.00    +0.000 C 
ATOM     11  N   UNL     1      29.331  24.515  21.727  0.00  0.00    +0.000 NA
ATOM     12  N   UNL     1      29.764  25.022  20.492  0.00  0.00    +0.000 NA
ATOM     13  C   UNL     1      29.504  26.413  20.331  0.00  0.00    +0.000 C 
ATOM     14  O   UNL     1      29.229  27.030  19.303  0.00  0.00    +0.000 OA
ATOM     15  C   UNL     1      29.597  27.122  21.604  0.00  0.00    +0.000 C 
ATOM     16  C   UNL     1      28.435  26.591  22.595  0.00  0.00    +0.000 C 
ATOM     17  C   UNL     1      29.367  27.052  23.903  0.00  0.00    +0.000 C 
ENDBRANCH   9  10
BRANCH   1  19
ATOM     18  C   UNL     1      25.057  25.014  24.901  0.00  0.00    +0.000 C 
ATOM     19  C   UNL     1      25.894  24.309  23.884  0.00  0.00    +0.000 C 
ATOM     20  C   UNL     1      25.197  23.019  23.502  0.00  0.00    +0.000 C 
ENDBRANCH   1  19
TORSDOF 2
ENDMDL
MODEL 5
REMARK VINA RESULT:      -6.0     31.849     33.299
REMARK  Name = 
REMARK  2 active torsions:
REMARK  status: ('A' for Active; 'I' for Inactive)
REMARK    1  A    between atoms: C_2  and  C_4
REMARK    2  A    between atoms: C_12  and  C_13
REMARK                            x       y       z     vdW  Elec       q    Type
REMARK                         _______ _______ _______ _____ _____    ______ ____
ROOT
ATOM      1  C   UNL     1      26.891  24.060  26.703  0.00  0.00    +0.000 A 
ATOM      2  N   UNL     1      25.933  24.361  27.595  0.00  0.00    +0.000 NA
ATOM      3  N   UNL     1      25.013  25.106  27.031  0.00  0.00    +0.000 N 
ATOM      4  C   UNL     1      23.856  25.678  27.460  0.00  0.00    +0.000 A 
ATOM      5  C   UNL     1      23.035  26.441  26.662  0.00  0.00    +0.000 A 
ATOM      6  C   UNL     1      23.400  26.634  25.368  0.00  0.00    +0.000 A 
ATOM      7  C   UNL     1      24.566  26.057  24.937  0.00  0.00    +0.000 A 
ATOM      8  C   UNL     1      25.394  25.282  25.762  0.00  0.00    +0.000 A 
ATOM      9  C   UNL     1      26.592  24.634  25.490  0.00  0.00    +0.000 A 
ENDROOT
BRANCH   9  10
ATOM     10  C   UNL     1      27.290  24.591  24.220  0.00  0.00    +0.000 C 
ATOM     11  N   UNL     1      27.858  25.638  23.841  0.00  0.00    +0.000 NA
ATOM     12  N   UNL     1      28.599  25.895  22.678  0.00  0.00    +0.000 NA
ATOM     13  C   UNL     1      28.700  24.768  21.812  0.00  0.00    +0.000 C 
ATOM     14  O   UNL     1      29.632  24.444  21.078  0.00  0.00    +0.000 OA
ATOM     15  C   UNL     1      27.497  23.943  21.871  0.00  0.00    +0.000 C 
ATOM     16  C   UNL     1      27.351  23.320  23.356  0.00  0.00    +0.000 C 
ATOM     17  C   UNL     1      25.703  23.187  23.118  0.00  0.00    +0.000 C 
ENDBRANCH   9  10
BRANCH   1  19
ATOM     18  C   UNL     1      27.839  22.347  28.195  0.00  0.00    +0.000 C 
ATOM     19  C   UNL     1      28.067  23.257  27.033  0.00  0.00    +0.000 C 
ATOM     20  C   UNL     1      29.182  24.219  27.390  0.00  0.00    +0.000 C 
ENDBRANCH   1  19
TORSDOF 2
ENDMDL
MODEL 6
REMARK VINA RESULT:      -5.9      2.396      4.106
REMARK  Name = 
REMARK  2 active torsions:
REMARK  status: ('A' for Active; 'I' for Inactive)
REMARK    1  A    between atoms: C_2  and  C_4
REMARK    2  A    between atoms: C_12  and  C_13
REMARK                            x       y       z     vdW  Elec       q    Type
REMARK                         _______ _______ _______ _____ _____    ______ ____
ROOT
ATOM      1  C   UNL     1      21.901  -7.152  24.860  0.00  0.00    +0.000 A 
ATOM      2  N   UNL     1      21.204  -6.009  24.970  0.00  0.00    +0.000 NA
ATOM      3  N   UNL     1      20.145  -6.199  25.719  0.00  0.00    +0.000 N 
ATOM      4  C   UNL     1      19.125  -5.406  26.145  0.00  0.00    +0.000 A 
ATOM      5  C   UNL     1      18.097  -5.844  26.947  0.00  0.00    +0.000 A 
ATOM      6  C   UNL     1      18.099  -7.144  27.338  0.00  0.00    +0.000 A 
ATOM      7  C   UNL     1      19.127  -7.943  26.908  0.00  0.00    +0.000 A 
ATOM      8  C   UNL     1      20.169  -7.483  26.090  0.00  0.00    +0.000 A 
ATOM      9  C   UNL     1      21.272  -8.148  25.571  0.00  0.00    +0.000 A 
ENDROOT
BRANCH   9  10
ATOM     10  C   UNL     1      21.631  -9.537  25.780  0.00  0.00    +0.000 C 
ATOM     11  N   UNL     1      22.697  -9.770  26.389  0.00  0.00    +0.000 NA
ATOM     12  N   UNL     1      23.294 -10.992  26.734  0.00  0.00    +0.000 NA
ATOM     13  C   UNL     1      22.545 -12.126  26.309  0.00  0.00    +0.000 C 
ATOM     14  O   UNL     1      22.434 -13.222  26.855  0.00  0.00    +0.000 OA
ATOM     15  C   UNL     1      21.847 -11.862  25.054  0.00  0.00    +0.000 C 
ATOM     16  C   UNL     1      20.750 -10.698  25.290  0.00  0.00    +0.000 C 
ATOM     17  C   UNL     1      20.836 -10.314  23.666  0.00  0.00    +0.000 C 
ENDBRANCH   9  10
BRANCH   1  19
ATOM     18  C   UNL     1      24.051  -6.114  24.263  0.00  0.00    +0.000 C 
ATOM     19  C   UNL     1      23.125  -7.270  24.071  0.00  0.00    +0.000 C 
ATOM     20  C   UNL     1      22.717  -7.318  22.612  0.00  0.00    +0.000 C 
ENDBRANCH   1  19
TORSDOF 2
ENDMDL
MODEL 7
REMARK VINA RESULT:      -5.9     32.175     33.410
REMARK  Name = 
REMARK  2 active torsions:
REMARK  status: ('A' for Active; 'I' for Inactive)
REMARK    1  A    between atoms: C_2  and  C_4
REMARK    2  A    between atoms: C_12  and  C_13
REMARK                            x       y       z     vdW  Elec       q    Type
REMARK                         _______ _______ _______ _____ _____    ______ ____
ROOT
ATOM      1  C   UNL     1      27.649  24.827  26.780  0.00  0.00    +0.000 A 
ATOM      2  N   UNL     1      27.921  24.501  28.055  0.00  0.00    +0.000 NA
ATOM      3  N   UNL     1      29.004  23.764  28.109  0.00  0.00    +0.000 N 
ATOM      4  C   UNL     1      29.706  23.178  29.115  0.00  0.00    +0.000 A 
ATOM      5  C   UNL     1      30.845  22.430  28.920  0.00  0.00    +0.000 A 
ATOM      6  C   UNL     1      31.294  22.267  27.649  0.00  0.00    +0.000 A 
ATOM      7  C   UNL     1      30.586  22.859  26.636  0.00  0.00    +0.000 A 
ATOM      8  C   UNL     1      29.426  23.618  26.849  0.00  0.00    +0.000 A 
ATOM      9  C   UNL     1      28.598  24.278  25.950  0.00  0.00    +0.000 A 
ENDROOT
BRANCH   9  10
ATOM     10  C   UNL     1      28.760  24.352  24.510  0.00  0.00    +0.000 C 
ATOM     11  N   UNL     1      29.180  25.429  24.035  0.00  0.00    +0.000 NA
ATOM     12  N   UNL     1      29.432  25.793  22.703  0.00  0.00    +0.000 NA
ATOM     13  C   UNL     1      29.155  24.751  21.772  0.00  0.00    +0.000 C 
ATOM     14  O   UNL     1      29.724  24.496  20.712  0.00  0.00    +0.000 OA
ATOM     15  C   UNL     1      28.034  23.927  22.214  0.00  0.00    +0.000 C 
ATOM     16  C   UNL     1      28.440  23.168  23.583  0.00  0.00    +0.000 C 
ATOM     17  C   UNL     1      26.821  23.061  23.982  0.00  0.00    +0.000 C 
ENDBRANCH   9  10
BRANCH   1  19
ATOM     18  C   UNL     1      26.515  27.003  26.970  0.00  0.00    +0.000 C 
ATOM     19  C   UNL     1      26.491  25.627  26.388  0.00  0.00    +0.000 C 
ATOM     20  C   UNL     1      25.257  24.913  26.900  0.00  0.00    +0.000 C 
ENDBRANCH   1  19
TORSDOF 2
ENDMDL
MODEL 8
REMARK VINA RESULT:      -5.9     31.660     33.203
REMARK  Name = 
REMARK  2 active torsions:
REMARK  status: ('A' for Active; 'I' for Inactive)
REMARK    1  A    between atoms: C_2  and  C_4
REMARK    2  A    between atoms: C_12  and  C_13
REMARK                            x       y       z     vdW  Elec       q    Type
REMARK                         _______ _______ _______ _____ _____    ______ ____
ROOT
ATOM      1  C   UNL     1      24.655  25.381  27.318  0.00  0.00    +0.000 A 
ATOM      2  N   UNL     1      24.710  25.276  28.656  0.00  0.00    +0.000 NA
ATOM      3  N   UNL     1      25.637  24.415  29.002  0.00  0.00    +0.000 N 
ATOM      4  C   UNL     1      26.101  23.942  30.189  0.00  0.00    +0.000 A 
ATOM      5  C   UNL     1      27.110  23.013  30.303  0.00  0.00    +0.000 A 
ATOM      6  C   UNL     1      27.676  22.540  29.163  0.00  0.00    +0.000 A 
ATOM      7  C   UNL     1      27.208  23.018  27.967  0.00  0.00    +0.000 A 
ATOM      8  C   UNL     1      26.178  23.965  27.865  0.00  0.00    +0.000 A 
ATOM      9  C   UNL     1      25.591  24.548  26.750  0.00  0.00    +0.000 A 
ENDROOT
BRANCH   9  10
ATOM     10  C   UNL     1      25.937  24.314  25.361  0.00  0.00    +0.000 C 
ATOM     11  N   UNL     1      25.745  23.166  24.907  0.00  0.00    +0.000 NA
ATOM     12  N   UNL     1      25.979  22.650  23.623  0.00  0.00    +0.000 NA
ATOM     13  C   UNL     1      26.521  23.608  22.720  0.00  0.00    +0.000 C 
ATOM     14  O   UNL     1      26.342  23.710  21.508  0.00  0.00    +0.000 OA
ATOM     15  C   UNL     1      27.392  24.556  23.410  0.00  0.00    +0.000 C 
ATOM     16  C   UNL     1      26.513  25.418  24.458  0.00  0.00    +0.000 C 
ATOM     17  C   UNL     1      27.892  25.687  25.364  0.00  0.00    +0.000 C 
ENDBRANCH   9  10
BRANCH   1  19
ATOM     18  C   UNL     1      24.201  27.651  26.484  0.00  0.00    +0.000 C 
ATOM     19  C   UNL     1      23.708  26.248  26.621  0.00  0.00    +0.000 C 
ATOM     20  C   UNL     1      22.432  26.268  27.439  0.00  0.00    +0.000 C 
ENDBRANCH   1  19
TORSDOF 2
ENDMDL
MODEL 9
REMARK VINA RESULT:      -5.9     21.092     23.440
REMARK  Name = 
REMARK  2 active torsions:
REMARK  status: ('A' for Active; 'I' for Inactive)
REMARK    1  A    between atoms: C_2  and  C_4
REMARK    2  A    between atoms: C_12  and  C_13
REMARK                            x       y       z     vdW  Elec       q    Type
REMARK                         _______ _______ _______ _____ _____    ______ ____
ROOT
ATOM      1  C   UNL     1      18.161  10.574  37.973  0.00  0.00    +0.000 A 
ATOM      2  N   UNL     1      18.795  11.717  37.661  0.00  0.00    +0.000 NA
ATOM      3  N   UNL     1      19.702  11.989  38.569  0.00  0.00    +0.000 N 
ATOM      4  C   UNL     1      20.603  12.992  38.743  0.00  0.00    +0.000 A 
ATOM      5  C   UNL     1      21.474  13.065  39.806  0.00  0.00    +0.000 A 
ATOM      6  C   UNL     1      21.433  12.076  40.736  0.00  0.00    +0.000 A 
ATOM      7  C   UNL     1      20.525  11.065  40.559  0.00  0.00    +0.000 A 
ATOM      8  C   UNL     1      19.642  11.004  39.471  0.00  0.00    +0.000 A 
ATOM      9  C   UNL     1      18.673  10.065  39.143  0.00  0.00    +0.000 A 
ENDROOT
BRANCH   9  10
ATOM     10  C   UNL     1      18.345   8.859  39.878  0.00  0.00    +0.000 C 
ATOM     11  N   UNL     1      18.724   7.771  39.395  0.00  0.00    +0.000 NA
ATOM     12  N   UNL     1      18.557   6.461  39.871  0.00  0.00    +0.000 NA
ATOM     13  C   UNL     1      17.838   6.395  41.099  0.00  0.00    +0.000 C 
ATOM     14  O   UNL     1      17.973   5.599  42.026  0.00  0.00    +0.000 OA
ATOM     15  C   UNL     1      16.831   7.449  41.182  0.00  0.00    +0.000 C 
ATOM     16  C   UNL     1      17.568   8.888  41.205  0.00  0.00    +0.000 C 
ATOM     17  C   UNL     1      16.182   9.586  40.585  0.00  0.00    +0.000 C 
ENDBRANCH   9  10
BRANCH   1  19
ATOM     18  C   UNL     1      17.534   9.588  35.806  0.00  0.00    +0.000 C 
ATOM     19  C   UNL     1      17.081  10.013  37.165  0.00  0.00    +0.000 C 
ATOM     20  C   UNL     1      16.033  11.096  37.001  0.00  0.00    +0.000 C 
ENDBRANCH   1  19
TORSDOF 2
ENDMDL
MODEL 10
REMARK VINA RESULT:      -5.8     21.650     23.950
REMARK  Name = 
REMARK  2 active torsions:
REMARK  status: ('A' for Active; 'I' for Inactive)
REMARK    1  A    between atoms: C_2  and  C_4
REMARK    2  A    between atoms: C_12  and  C_13
REMARK                            x       y       z     vdW  Elec       q    Type
REMARK                         _______ _______ _______ _____ _____    ______ ____
ROOT
ATOM      1  C   UNL     1      21.765  12.715  38.704  0.00  0.00    +0.000 A 
ATOM      2  N   UNL     1      23.092  12.655  38.504  0.00  0.00    +0.000 NA
ATOM      3  N   UNL     1      23.384  11.634  37.734  0.00  0.00    +0.000 N 
ATOM      4  C   UNL     1      24.538  11.122  37.229  0.00  0.00    +0.000 A 
ATOM      5  C   UNL     1      24.594  10.009  36.422  0.00  0.00    +0.000 A 
ATOM      6  C   UNL     1      23.430   9.384  36.110  0.00  0.00    +0.000 A 
ATOM      7  C   UNL     1      22.267   9.901  36.619  0.00  0.00    +0.000 A 
ATOM      8  C   UNL     1      22.224  11.037  37.442  0.00  0.00    +0.000 A 
ATOM      9  C   UNL     1      21.149  11.685  38.034  0.00  0.00    +0.000 A 
ENDROOT
BRANCH   9  10
ATOM     10  C   UNL     1      19.747  11.330  37.920  0.00  0.00    +0.000 C 
ATOM     11  N   UNL     1      18.971  12.195  37.461  0.00  0.00    +0.000 NA
ATOM     12  N   UNL     1      17.587  12.142  37.237  0.00  0.00    +0.000 NA
ATOM     13  C   UNL     1      17.004  10.895  37.601  0.00  0.00    +0.000 C 
ATOM     14  O   UNL     1      16.054  10.310  37.084  0.00  0.00    +0.000 OA
ATOM     15  C   UNL     1      17.687  10.303  38.748  0.00  0.00    +0.000 C 
ATOM     16  C   UNL     1      19.210   9.949  38.334  0.00  0.00    +0.000 C 
ATOM     17  C   UNL     1      19.652  10.061  39.942  0.00  0.00    +0.000 C 
ENDBRANCH   9  10
BRANCH   1  19
ATOM     18  C   UNL     1      21.519  15.122  39.155  0.00  0.00    +0.000 C 
ATOM     19  C   UNL     1      21.128  13.732  39.537  0.00  0.00    +0.000 C 
ATOM     20  C   UNL     1      21.572  13.486  40.965  0.00  0.00    +0.000 C 
ENDBRANCH   1  19
TORSDOF 2
ENDMDL
