MODEL 1
REMARK VINA RESULT:      -8.1      0.000      0.000
REMARK  Name = 
REMARK  1 active torsions:
REMARK  status: ('A' for Active; 'I' for Inactive)
REMARK    1  A    between atoms: C_8  and  C_9
REMARK                            x       y       z     vdW  Elec       q    Type
REMARK                         _______ _______ _______ _____ _____    ______ ____
ROOT
ATOM      1  C   UNL     1      14.226  12.445  30.670  0.00  0.00    +0.000 C 
ATOM      2  C   UNL     1      14.807  12.218  32.028  0.00  0.00    +0.000 A 
ATOM      3  C   UNL     1      15.668  11.165  32.256  0.00  0.00    +0.000 A 
ATOM      4  C   UNL     1      16.201  10.963  33.518  0.00  0.00    +0.000 A 
ATOM      5  O   UNL     1      17.021   9.976  33.782  0.00  0.00    +0.000 OA
ATOM      6  C   UNL     1      17.531   9.780  34.983  0.00  0.00    +0.000 A 
ATOM      7  O   UNL     1      18.318   8.832  35.231  0.00  0.00    +0.000 OA
ATOM      8  C   UNL     1      17.218  10.618  36.033  0.00  0.00    +0.000 A 
ATOM      9  C   UNL     1      16.356  11.659  35.768  0.00  0.00    +0.000 A 
ATOM     10  C   UNL     1      15.973  12.604  36.854  0.00  0.00    +0.000 C 
ATOM     11  C   UNL     1      15.844  11.836  34.513  0.00  0.00    +0.000 A 
ATOM     12  C   UNL     1      14.970  12.904  34.275  0.00  0.00    +0.000 A 
ATOM     13  C   UNL     1      14.443  13.101  33.020  0.00  0.00    +0.000 A 
ATOM     14 CL   UNL     1      13.336  14.444  32.693  0.00  0.00    +0.000 Cl
ENDROOT
BRANCH   8  15
ATOM     15  C   UNL     1      17.751  10.452  37.379  0.00  0.00    +0.000 A 
ATOM     16  C   UNL     1      17.038   9.874  38.406  0.00  0.00    +0.000 A 
ATOM     17  C   UNL     1      17.589   9.737  39.672  0.00  0.00    +0.000 A 
ATOM     18  C   UNL     1      18.876  10.175  39.948  0.00  0.00    +0.000 A 
ATOM     19  O   UNL     1      19.414  10.027  41.227  0.00  0.00    +0.000 OA
ATOM     20  C   UNL     1      19.584  10.751  38.915  0.00  0.00    +0.000 A 
ATOM     21  C   UNL     1      19.029  10.885  37.658  0.00  0.00    +0.000 A 
ENDBRANCH   8  15
TORSDOF 1
ENDMDL
MODEL 2
REMARK VINA RESULT:      -7.1     18.464     20.097
REMARK  Name = 
REMARK  1 active torsions:
REMARK  status: ('A' for Active; 'I' for Inactive)
REMARK    1  A    between atoms: C_8  and  C_9
REMARK                            x       y       z     vdW  Elec       q    Type
REMARK                         _______ _______ _______ _____ _____    ______ ____
ROOT
ATOM      1  C   UNL     1      32.681  -3.066  35.294  0.00  0.00    +0.000 C 
ATOM      2  C   UNL     1      33.055  -1.631  35.466  0.00  0.00    +0.000 A 
ATOM      3  C   UNL     1      32.986  -0.754  34.404  0.00  0.00    +0.000 A 
ATOM      4  C   UNL     1      33.337   0.575  34.574  0.00  0.00    +0.000 A 
ATOM      5  O   UNL     1      33.287   1.443  33.594  0.00  0.00    +0.000 OA
ATOM      6  C   UNL     1      33.620   2.710  33.752  0.00  0.00    +0.000 A 
ATOM      7  O   UNL     1      33.570   3.539  32.809  0.00  0.00    +0.000 OA
ATOM      8  C   UNL     1      34.043   3.186  34.977  0.00  0.00    +0.000 A 
ATOM      9  C   UNL     1      34.100   2.283  36.014  0.00  0.00    +0.000 A 
ATOM     10  C   UNL     1      34.548   2.725  37.363  0.00  0.00    +0.000 C 
ATOM     11  C   UNL     1      33.748   0.976  35.819  0.00  0.00    +0.000 A 
ATOM     12  C   UNL     1      33.817   0.081  36.894  0.00  0.00    +0.000 A 
ATOM     13  C   UNL     1      33.468  -1.238  36.720  0.00  0.00    +0.000 A 
ATOM     14 CL   UNL     1      33.545  -2.389  38.064  0.00  0.00    +0.000 Cl
ENDROOT
BRANCH   8  15
ATOM     15  C   UNL     1      34.421   4.573  35.211  0.00  0.00    +0.000 A 
ATOM     16  C   UNL     1      33.513   5.559  35.528  0.00  0.00    +0.000 A 
ATOM     17  C   UNL     1      33.922   6.868  35.744  0.00  0.00    +0.000 A 
ATOM     18  C   UNL     1      35.257   7.229  35.648  0.00  0.00    +0.000 A 
ATOM     19  O   UNL     1      35.650   8.550  35.869  0.00  0.00    +0.000 OA
ATOM     20  C   UNL     1      36.161   6.237  35.331  0.00  0.00    +0.000 A 
ATOM     21  C   UNL     1      35.746   4.938  35.117  0.00  0.00    +0.000 A 
ENDBRANCH   8  15
TORSDOF 1
ENDMDL
MODEL 3
REMARK VINA RESULT:      -6.9      2.097      3.201
REMARK  Name = 
REMARK  1 active torsions:
REMARK  status: ('A' for Active; 'I' for Inactive)
REMARK    1  A    between atoms: C_8  and  C_9
REMARK                            x       y       z     vdW  Elec       q    Type
REMARK                         _______ _______ _______ _____ _____    ______ ____
ROOT
ATOM      1  C   UNL     1      14.211  13.094  34.218  0.00  0.00    +0.000 C 
ATOM      2  C   UNL     1      14.902  12.351  35.314  0.00  0.00    +0.000 A 
ATOM      3  C   UNL     1      16.195  11.898  35.150  0.00  0.00    +0.000 A 
ATOM      4  C   UNL     1      16.827  11.210  36.172  0.00  0.00    +0.000 A 
ATOM      5  O   UNL     1      18.052  10.762  36.061  0.00  0.00    +0.000 OA
ATOM      6  C   UNL     1      18.658  10.106  37.032  0.00  0.00    +0.000 A 
ATOM      7  O   UNL     1      19.834   9.678  36.921  0.00  0.00    +0.000 OA
ATOM      8  C   UNL     1      18.017   9.857  38.229  0.00  0.00    +0.000 A 
ATOM      9  C   UNL     1      16.728  10.324  38.357  0.00  0.00    +0.000 A 
ATOM     10  C   UNL     1      15.974  10.092  39.620  0.00  0.00    +0.000 C 
ATOM     11  C   UNL     1      16.127  11.001  37.332  0.00  0.00    +0.000 A 
ATOM     12  C   UNL     1      14.815  11.462  37.493  0.00  0.00    +0.000 A 
ATOM     13  C   UNL     1      14.191  12.145  36.476  0.00  0.00    +0.000 A 
ATOM     14 CL   UNL     1      12.533  12.741  36.655  0.00  0.00    +0.000 Cl
ENDROOT
BRANCH   8  15
ATOM     15  C   UNL     1      18.635   9.140  39.336  0.00  0.00    +0.000 A 
ATOM     16  C   UNL     1      19.289   9.772  40.371  0.00  0.00    +0.000 A 
ATOM     17  C   UNL     1      19.862   9.046  41.406  0.00  0.00    +0.000 A 
ATOM     18  C   UNL     1      19.796   7.661  41.435  0.00  0.00    +0.000 A 
ATOM     19  O   UNL     1      20.377   6.947  42.484  0.00  0.00    +0.000 OA
ATOM     20  C   UNL     1      19.140   7.036  40.396  0.00  0.00    +0.000 A 
ATOM     21  C   UNL     1      18.573   7.765  39.370  0.00  0.00    +0.000 A 
ENDBRANCH   8  15
TORSDOF 1
ENDMDL
MODEL 4
REMARK VINA RESULT:      -6.4      5.601      7.209
REMARK  Name = 
REMARK  1 active torsions:
REMARK  status: ('A' for Active; 'I' for Inactive)
REMARK    1  A    between atoms: C_8  and  C_9
REMARK                            x       y       z     vdW  Elec       q    Type
REMARK                         _______ _______ _______ _____ _____    ______ ____
ROOT
ATOM      1  C   UNL     1      24.685  10.656  35.918  0.00  0.00    +0.000 C 
ATOM      2  C   UNL     1      23.599  10.232  36.852  0.00  0.00    +0.000 A 
ATOM      3  C   UNL     1      22.281  10.235  36.445  0.00  0.00    +0.000 A 
ATOM      4  C   UNL     1      21.281   9.842  37.320  0.00  0.00    +0.000 A 
ATOM      5  O   UNL     1      20.017   9.829  36.978  0.00  0.00    +0.000 OA
ATOM      6  C   UNL     1      19.062   9.455  37.807  0.00  0.00    +0.000 A 
ATOM      7  O   UNL     1      17.850   9.444  37.474  0.00  0.00    +0.000 OA
ATOM      8  C   UNL     1      19.356   9.054  39.094  0.00  0.00    +0.000 A 
ATOM      9  C   UNL     1      20.682   9.063  39.465  0.00  0.00    +0.000 A 
ATOM     10  C   UNL     1      21.074   8.643  40.840  0.00  0.00    +0.000 C 
ATOM     11  C   UNL     1      21.649   9.457  38.582  0.00  0.00    +0.000 A 
ATOM     12  C   UNL     1      22.989   9.455  38.991  0.00  0.00    +0.000 A 
ATOM     13  C   UNL     1      23.978   9.847  38.119  0.00  0.00    +0.000 A 
ATOM     14 CL   UNL     1      25.680   9.853  38.610  0.00  0.00    +0.000 Cl
ENDROOT
BRANCH   8  15
ATOM     15  C   UNL     1      18.345   8.629  40.053  0.00  0.00    +0.000 A 
ATOM     16  C   UNL     1      18.014   7.308  40.263  0.00  0.00    +0.000 A 
ATOM     17  C   UNL     1      17.043   6.951  41.190  0.00  0.00    +0.000 A 
ATOM     18  C   UNL     1      16.374   7.910  41.935  0.00  0.00    +0.000 A 
ATOM     19  O   UNL     1      15.402   7.533  42.863  0.00  0.00    +0.000 OA
ATOM     20  C   UNL     1      16.711   9.230  41.720  0.00  0.00    +0.000 A 
ATOM     21  C   UNL     1      17.677   9.576  40.797  0.00  0.00    +0.000 A 
ENDBRANCH   8  15
TORSDOF 1
ENDMDL
MODEL 5
REMARK VINA RESULT:      -6.4     21.256     22.720
REMARK  Name = 
REMARK  1 active torsions:
REMARK  status: ('A' for Active; 'I' for Inactive)
REMARK    1  A    between atoms: C_8  and  C_9
REMARK                            x       y       z     vdW  Elec       q    Type
REMARK                         _______ _______ _______ _____ _____    ______ ____
ROOT
ATOM      1  C   UNL     1      24.666  -6.583  23.342  0.00  0.00    +0.000 C 
ATOM      2  C   UNL     1      23.594  -7.244  24.147  0.00  0.00    +0.000 A 
ATOM      3  C   UNL     1      22.441  -6.562  24.475  0.00  0.00    +0.000 A 
ATOM      4  C   UNL     1      21.454  -7.184  25.222  0.00  0.00    +0.000 A 
ATOM      5  O   UNL     1      20.343  -6.577  25.557  0.00  0.00    +0.000 OA
ATOM      6  C   UNL     1      19.400  -7.165  26.268  0.00  0.00    +0.000 A 
ATOM      7  O   UNL     1      18.336  -6.578  26.587  0.00  0.00    +0.000 OA
ATOM      8  C   UNL     1      19.544  -8.469  26.698  0.00  0.00    +0.000 A 
ATOM      9  C   UNL     1      20.708  -9.117  26.352  0.00  0.00    +0.000 A 
ATOM     10  C   UNL     1      20.933 -10.525  26.782  0.00  0.00    +0.000 C 
ATOM     11  C   UNL     1      21.667  -8.480  25.614  0.00  0.00    +0.000 A 
ATOM     12  C   UNL     1      22.840  -9.167  25.278  0.00  0.00    +0.000 A 
ATOM     13  C   UNL     1      23.818  -8.546  24.536  0.00  0.00    +0.000 A 
ATOM     14 CL   UNL     1      25.310  -9.393  24.097  0.00  0.00    +0.000 Cl
ENDROOT
BRANCH   8  15
ATOM     15  C   UNL     1      18.537  -9.170  27.484  0.00  0.00    +0.000 A 
ATOM     16  C   UNL     1      17.497  -9.873  26.919  0.00  0.00    +0.000 A 
ATOM     17  C   UNL     1      16.561 -10.527  27.709  0.00  0.00    +0.000 A 
ATOM     18  C   UNL     1      16.642 -10.497  29.093  0.00  0.00    +0.000 A 
ATOM     19  O   UNL     1      15.693 -11.161  29.872  0.00  0.00    +0.000 OA
ATOM     20  C   UNL     1      17.687  -9.791  29.652  0.00  0.00    +0.000 A 
ATOM     21  C   UNL     1      18.613  -9.143  28.859  0.00  0.00    +0.000 A 
ENDBRANCH   8  15
TORSDOF 1
ENDMDL
MODEL 6
REMARK VINA RESULT:      -6.3     19.489     21.092
REMARK  Name = 
REMARK  1 active torsions:
REMARK  status: ('A' for Active; 'I' for Inactive)
REMARK    1  A    between atoms: C_8  and  C_9
REMARK                            x       y       z     vdW  Elec       q    Type
REMARK                         _______ _______ _______ _____ _____    ______ ____
ROOT
ATOM      1  C   UNL     1      30.186  22.017  32.321  0.00  0.00    +0.000 C 
ATOM      2  C   UNL     1      30.179  22.338  30.861  0.00  0.00    +0.000 A 
ATOM      3  C   UNL     1      29.047  22.846  30.259  0.00  0.00    +0.000 A 
ATOM      4  C   UNL     1      29.050  23.139  28.905  0.00  0.00    +0.000 A 
ATOM      5  O   UNL     1      28.000  23.622  28.291  0.00  0.00    +0.000 OA
ATOM      6  C   UNL     1      27.999  23.903  27.002  0.00  0.00    +0.000 A 
ATOM      7  O   UNL     1      26.988  24.367  26.417  0.00  0.00    +0.000 OA
ATOM      8  C   UNL     1      29.123  23.695  26.229  0.00  0.00    +0.000 A 
ATOM      9  C   UNL     1      30.234  23.187  26.864  0.00  0.00    +0.000 A 
ATOM     10  C   UNL     1      31.484  22.937  26.093  0.00  0.00    +0.000 C 
ATOM     11  C   UNL     1      30.204  22.906  28.202  0.00  0.00    +0.000 A 
ATOM     12  C   UNL     1      31.350  22.390  28.818  0.00  0.00    +0.000 A 
ATOM     13  C   UNL     1      31.342  22.100  30.163  0.00  0.00    +0.000 A 
ATOM     14 CL   UNL     1      32.779  21.448  30.967  0.00  0.00    +0.000 Cl
ENDROOT
BRANCH   8  15
ATOM     15  C   UNL     1      29.182  23.988  24.803  0.00  0.00    +0.000 A 
ATOM     16  C   UNL     1      28.751  23.107  23.835  0.00  0.00    +0.000 A 
ATOM     17  C   UNL     1      28.826  23.431  22.487  0.00  0.00    +0.000 A 
ATOM     18  C   UNL     1      29.335  24.651  22.068  0.00  0.00    +0.000 A 
ATOM     19  O   UNL     1      29.402  24.960  20.709  0.00  0.00    +0.000 OA
ATOM     20  C   UNL     1      29.763  25.527  23.042  0.00  0.00    +0.000 A 
ATOM     21  C   UNL     1      29.686  25.198  24.381  0.00  0.00    +0.000 A 
ENDBRANCH   8  15
TORSDOF 1
ENDMDL
MODEL 7
REMARK VINA RESULT:      -6.3     21.811     23.662
REMARK  Name = 
REMARK  1 active torsions:
REMARK  status: ('A' for Active; 'I' for Inactive)
REMARK    1  A    between atoms: C_8  and  C_9
REMARK                            x       y       z     vdW  Elec       q    Type
REMARK                         _______ _______ _______ _____ _____    ______ ____
ROOT
ATOM      1  C   UNL     1      17.902  -7.296  27.532  0.00  0.00    +0.000 C 
ATOM      2  C   UNL     1      19.138  -7.408  26.700  0.00  0.00    +0.000 A 
ATOM      3  C   UNL     1      19.748  -8.630  26.508  0.00  0.00    +0.000 A 
ATOM      4  C   UNL     1      20.894  -8.723  25.736  0.00  0.00    +0.000 A 
ATOM      5  O   UNL     1      21.506  -9.862  25.527  0.00  0.00    +0.000 OA
ATOM      6  C   UNL     1      22.598  -9.955  24.793  0.00  0.00    +0.000 A 
ATOM      7  O   UNL     1      23.182 -11.050  24.594  0.00  0.00    +0.000 OA
ATOM      8  C   UNL     1      23.154  -8.838  24.202  0.00  0.00    +0.000 A 
ATOM      9  C   UNL     1      22.519  -7.636  24.415  0.00  0.00    +0.000 A 
ATOM     10  C   UNL     1      23.063  -6.388  23.810  0.00  0.00    +0.000 C 
ATOM     11  C   UNL     1      21.389  -7.572  25.182  0.00  0.00    +0.000 A 
ATOM     12  C   UNL     1      20.766  -6.333  25.381  0.00  0.00    +0.000 A 
ATOM     13  C   UNL     1      19.628  -6.245  26.148  0.00  0.00    +0.000 A 
ATOM     14 CL   UNL     1      18.821  -4.691  26.413  0.00  0.00    +0.000 Cl
ENDROOT
BRANCH   8  15
ATOM     15  C   UNL     1      24.356  -8.880  23.380  0.00  0.00    +0.000 A 
ATOM     16  C   UNL     1      24.338  -9.167  22.033  0.00  0.00    +0.000 A 
ATOM     17  C   UNL     1      25.511  -9.194  21.290  0.00  0.00    +0.000 A 
ATOM     18  C   UNL     1      26.739  -8.933  21.877  0.00  0.00    +0.000 A 
ATOM     19  O   UNL     1      27.908  -8.963  21.114  0.00  0.00    +0.000 OA
ATOM     20  C   UNL     1      26.750  -8.646  23.225  0.00  0.00    +0.000 A 
ATOM     21  C   UNL     1      25.580  -8.621  23.957  0.00  0.00    +0.000 A 
ENDBRANCH   8  15
TORSDOF 1
ENDMDL
MODEL 8
REMARK VINA RESULT:      -6.3      3.051      7.046
REMARK  Name = 
REMARK  1 active torsions:
REMARK  status: ('A' for Active; 'I' for Inactive)
REMARK    1  A    between atoms: C_8  and  C_9
REMARK                            x       y       z     vdW  Elec       q    Type
REMARK                         _______ _______ _______ _____ _____    ______ ____
ROOT
ATOM      1  C   UNL     1      18.936   8.467  42.603  0.00  0.00    +0.000 C 
ATOM      2  C   UNL     1      18.316   8.966  41.339  0.00  0.00    +0.000 A 
ATOM      3  C   UNL     1      19.004   8.899  40.145  0.00  0.00    +0.000 A 
ATOM      4  C   UNL     1      18.421   9.365  38.978  0.00  0.00    +0.000 A 
ATOM      5  O   UNL     1      19.036   9.322  37.823  0.00  0.00    +0.000 OA
ATOM      6  C   UNL     1      18.485   9.765  36.709  0.00  0.00    +0.000 A 
ATOM      7  O   UNL     1      19.079   9.720  35.603  0.00  0.00    +0.000 OA
ATOM      8  C   UNL     1      17.214  10.304  36.711  0.00  0.00    +0.000 A 
ATOM      9  C   UNL     1      16.558  10.355  37.920  0.00  0.00    +0.000 A 
ATOM     10  C   UNL     1      15.184  10.925  37.999  0.00  0.00    +0.000 C 
ATOM     11  C   UNL     1      17.157   9.888  39.058  0.00  0.00    +0.000 A 
ATOM     12  C   UNL     1      16.463   9.954  40.272  0.00  0.00    +0.000 A 
ATOM     13  C   UNL     1      17.045   9.490  41.429  0.00  0.00    +0.000 A 
ATOM     14 CL   UNL     1      16.189   9.561  42.977  0.00  0.00    +0.000 Cl
ENDROOT
BRANCH   8  15
ATOM     15  C   UNL     1      16.554  10.807  35.514  0.00  0.00    +0.000 A 
ATOM     16  C   UNL     1      16.575  10.144  34.307  0.00  0.00    +0.000 A 
ATOM     17  C   UNL     1      15.930  10.663  33.193  0.00  0.00    +0.000 A 
ATOM     18  C   UNL     1      15.242  11.865  33.255  0.00  0.00    +0.000 A 
ATOM     19  O   UNL     1      14.598  12.371  32.125  0.00  0.00    +0.000 OA
ATOM     20  C   UNL     1      15.225  12.523  34.467  0.00  0.00    +0.000 A 
ATOM     21  C   UNL     1      15.869  12.001  35.570  0.00  0.00    +0.000 A 
ENDBRANCH   8  15
TORSDOF 1
ENDMDL
MODEL 9
REMARK VINA RESULT:      -6.1     18.612     20.132
REMARK  Name = 
REMARK  1 active torsions:
REMARK  status: ('A' for Active; 'I' for Inactive)
REMARK    1  A    between atoms: C_8  and  C_9
REMARK                            x       y       z     vdW  Elec       q    Type
REMARK                         _______ _______ _______ _____ _____    ______ ____
ROOT
ATOM      1  C   UNL     1      33.758  20.922  31.625  0.00  0.00    +0.000 C 
ATOM      2  C   UNL     1      32.606  21.442  30.829  0.00  0.00    +0.000 A 
ATOM      3  C   UNL     1      32.699  21.566  29.458  0.00  0.00    +0.000 A 
ATOM      4  C   UNL     1      31.626  22.050  28.728  0.00  0.00    +0.000 A 
ATOM      5  O   UNL     1      31.668  22.185  27.426  0.00  0.00    +0.000 OA
ATOM      6  C   UNL     1      30.649  22.646  26.728  0.00  0.00    +0.000 A 
ATOM      7  O   UNL     1      30.694  22.773  25.478  0.00  0.00    +0.000 OA
ATOM      8  C   UNL     1      29.472  23.014  27.347  0.00  0.00    +0.000 A 
ATOM      9  C   UNL     1      29.415  22.877  28.716  0.00  0.00    +0.000 A 
ATOM     10  C   UNL     1      28.177  23.255  29.452  0.00  0.00    +0.000 C 
ATOM     11  C   UNL     1      30.489  22.396  29.412  0.00  0.00    +0.000 A 
ATOM     12  C   UNL     1      30.401  22.269  30.804  0.00  0.00    +0.000 A 
ATOM     13  C   UNL     1      31.468  21.787  31.525  0.00  0.00    +0.000 A 
ATOM     14 CL   UNL     1      31.382  21.615  33.285  0.00  0.00    +0.000 Cl
ENDROOT
BRANCH   8  15
ATOM     15  C   UNL     1      28.313  23.527  26.628  0.00  0.00    +0.000 A 
ATOM     16  C   UNL     1      28.099  24.870  26.405  0.00  0.00    +0.000 A 
ATOM     17  C   UNL     1      26.979  25.311  25.713  0.00  0.00    +0.000 A 
ATOM     18  C   UNL     1      26.039  24.418  25.222  0.00  0.00    +0.000 A 
ATOM     19  O   UNL     1      24.920  24.879  24.527  0.00  0.00    +0.000 OA
ATOM     20  C   UNL     1      26.261  23.076  25.448  0.00  0.00    +0.000 A 
ATOM     21  C   UNL     1      27.376  22.645  26.138  0.00  0.00    +0.000 A 
ENDBRANCH   8  15
TORSDOF 1
ENDMDL
MODEL 10
REMARK VINA RESULT:      -6.0     17.613     19.219
REMARK  Name = 
REMARK  1 active torsions:
REMARK  status: ('A' for Active; 'I' for Inactive)
REMARK    1  A    between atoms: C_8  and  C_9
REMARK                            x       y       z     vdW  Elec       q    Type
REMARK                         _______ _______ _______ _____ _____    ______ ____
ROOT
ATOM      1  C   UNL     1      24.368  26.494  33.015  0.00  0.00    +0.000 C 
ATOM      2  C   UNL     1      24.560  26.172  31.568  0.00  0.00    +0.000 A 
ATOM      3  C   UNL     1      25.602  25.365  31.161  0.00  0.00    +0.000 A 
ATOM      4  C   UNL     1      25.771  25.072  29.818  0.00  0.00    +0.000 A 
ATOM      5  O   UNL     1      26.745  24.311  29.385  0.00  0.00    +0.000 OA
ATOM      6  C   UNL     1      26.911  24.030  28.107  0.00  0.00    +0.000 A 
ATOM      7  O   UNL     1      27.846  23.299  27.696  0.00  0.00    +0.000 OA
ATOM      8  C   UNL     1      26.051  24.534  27.152  0.00  0.00    +0.000 A 
ATOM      9  C   UNL     1      25.023  25.335  27.595  0.00  0.00    +0.000 A 
ATOM     10  C   UNL     1      24.057  25.915  26.621  0.00  0.00    +0.000 C 
ATOM     11  C   UNL     1      24.878  25.609  28.927  0.00  0.00    +0.000 A 
ATOM     12  C   UNL     1      23.823  26.428  29.346  0.00  0.00    +0.000 A 
ATOM     13  C   UNL     1      23.658  26.716  30.681  0.00  0.00    +0.000 A 
ATOM     14 CL   UNL     1      22.331  27.748  31.237  0.00  0.00    +0.000 Cl
ENDROOT
BRANCH   8  15
ATOM     15  C   UNL     1      26.183  24.257  25.727  0.00  0.00    +0.000 A 
ATOM     16  C   UNL     1      25.594  23.173  25.113  0.00  0.00    +0.000 A 
ATOM     17  C   UNL     1      25.748  22.951  23.752  0.00  0.00    +0.000 A 
ATOM     18  C   UNL     1      26.496  23.811  22.962  0.00  0.00    +0.000 A 
ATOM     19  O   UNL     1      26.638  23.572  21.595  0.00  0.00    +0.000 OA
ATOM     20  C   UNL     1      27.081  24.894  23.584  0.00  0.00    +0.000 A 
ATOM     21  C   UNL     1      26.924  25.108  24.938  0.00  0.00    +0.000 A 
ENDBRANCH   8  15
TORSDOF 1
ENDMDL
