MODEL 1
REMARK VINA RESULT:      -8.1      0.000      0.000
REMARK  Name = 
REMARK  6 active torsions:
REMARK  status: ('A' for Active; 'I' for Inactive)
REMARK    1  A    between atoms: C_2  and  C_24
REMARK    2  A    between atoms: N_3  and  C_4
REMARK    3  A    between atoms: C_8  and  C_9
REMARK    4  A    between atoms: N_11  and  C_12
REMARK    5  A    between atoms: C_12  and  C_13
REMARK    6  A    between atoms: C_13  and  C_14
REMARK                            x       y       z     vdW  Elec       q    Type
REMARK                         _______ _______ _______ _____ _____    ______ ____
ROOT
ATOM      1  C   UNL     1      38.027   3.291  15.503  0.00  0.00    +0.000 A 
ATOM      2  S   UNL     1      38.931   3.127  13.982  0.00  0.00    +0.000 S 
ATOM      3  C   UNL     1      38.305   1.669  13.444  0.00  0.00    +0.000 A 
ATOM      4  C   UNL     1      37.424   1.326  14.418  0.00  0.00    +0.000 A 
ATOM      5  C   UNL     1      37.272   2.146  15.474  0.00  0.00    +0.000 A 
ATOM      6  C   UNL     1      36.699  -0.017  14.161  0.00  0.00    +0.000 C 
ATOM      7  C   UNL     1      37.796  -0.977  13.665  0.00  0.00    +0.000 C 
ATOM      8  C   UNL     1      38.080  -0.517  12.260  0.00  0.00    +0.000 C 
ATOM      9  C   UNL     1      38.566   0.857  12.222  0.00  0.00    +0.000 C 
ENDROOT
BRANCH   1  12
ATOM     10  O   UNL     1      37.685   6.443  15.788  0.00  0.00    +0.000 OA
ATOM     11  C   UNL     1      38.172   5.643  16.617  0.00  0.00    +0.000 C 
ATOM     12  N   UNL     1      38.223   4.376  16.306  0.00  0.00    +0.000 NA
BRANCH  11  13
ATOM     13  C   UNL     1      38.655   6.245  17.902  0.00  0.00    +0.000 A 
ATOM     14  C   UNL     1      38.059   7.345  18.436  0.00  0.00    +0.000 A 
ATOM     15  C   UNL     1      38.503   7.909  19.628  0.00  0.00    +0.000 A 
ATOM     16  C   UNL     1      39.579   7.329  20.277  0.00  0.00    +0.000 A 
ATOM     17  C   UNL     1      40.200   6.198  19.737  0.00  0.00    +0.000 A 
ATOM     18  C   UNL     1      39.719   5.679  18.552  0.00  0.00    +0.000 A 
ENDBRANCH  11  13
ENDBRANCH   1  12
BRANCH   5  19
ATOM     19  C   UNL     1      36.311   1.811  16.574  0.00  0.00    +0.000 C 
ATOM     20  O   UNL     1      35.192   2.259  16.717  0.00  0.00    +0.000 OA
ATOM     21  N   UNL     1      36.691   0.865  17.606  0.00  0.00    +0.000 NA
BRANCH  21  22
ATOM     22  C   UNL     1      35.787   0.518  18.685  0.00  0.00    +0.000 C 
BRANCH  22  23
ATOM     23  C   UNL     1      36.097  -0.895  19.070  0.00  0.00    +0.000 C 
BRANCH  23  24
ATOM     24  C   UNL     1      36.077  -1.821  17.914  0.00  0.00    +0.000 A 
ATOM     25  C   UNL     1      37.161  -2.552  17.526  0.00  0.00    +0.000 A 
ATOM     26  C   UNL     1      37.052  -3.400  16.424  0.00  0.00    +0.000 A 
ATOM     27  C   UNL     1      35.857  -3.504  15.727  0.00  0.00    +0.000 A 
ATOM     28  C   UNL     1      34.770  -2.772  16.117  0.00  0.00    +0.000 A 
ATOM     29  C   UNL     1      34.908  -1.941  17.211  0.00  0.00    +0.000 A 
ENDBRANCH  23  24
ENDBRANCH  22  23
ENDBRANCH  21  22
ENDBRANCH   5  19
TORSDOF 6
ENDMDL
MODEL 2
REMARK VINA RESULT:      -7.7      1.378      1.928
REMARK  Name = 
REMARK  6 active torsions:
REMARK  status: ('A' for Active; 'I' for Inactive)
REMARK    1  A    between atoms: C_2  and  C_24
REMARK    2  A    between atoms: N_3  and  C_4
REMARK    3  A    between atoms: C_8  and  C_9
REMARK    4  A    between atoms: N_11  and  C_12
REMARK    5  A    between atoms: C_12  and  C_13
REMARK    6  A    between atoms: C_13  and  C_14
REMARK                            x       y       z     vdW  Elec       q    Type
REMARK                         _______ _______ _______ _____ _____    ______ ____
ROOT
ATOM      1  C   UNL     1      38.417   3.554  15.485  0.00  0.00    +0.000 A 
ATOM      2  S   UNL     1      39.214   3.652  13.899  0.00  0.00    +0.000 S 
ATOM      3  C   UNL     1      38.269   2.562  13.046  0.00  0.00    +0.000 A 
ATOM      4  C   UNL     1      37.367   2.139  13.968  0.00  0.00    +0.000 A 
ATOM      5  C   UNL     1      37.431   2.638  15.216  0.00  0.00    +0.000 A 
ATOM      6  C   UNL     1      36.359   1.097  13.424  0.00  0.00    +0.000 C 
ATOM      7  C   UNL     1      37.205   0.119  12.588  0.00  0.00    +0.000 C 
ATOM      8  C   UNL     1      37.536   0.894  11.340  0.00  0.00    +0.000 C 
ATOM      9  C   UNL     1      38.307   2.096  11.632  0.00  0.00    +0.000 C 
ENDROOT
BRANCH   1  12
ATOM     10  O   UNL     1      38.259   4.046  18.625  0.00  0.00    +0.000 OA
ATOM     11  C   UNL     1      38.948   4.662  17.782  0.00  0.00    +0.000 C 
ATOM     12  N   UNL     1      38.870   4.303  16.529  0.00  0.00    +0.000 NA
BRANCH  11  13
ATOM     13  C   UNL     1      39.804   5.770  18.320  0.00  0.00    +0.000 A 
ATOM     14  C   UNL     1      40.891   6.220  17.638  0.00  0.00    +0.000 A 
ATOM     15  C   UNL     1      41.688   7.247  18.133  0.00  0.00    +0.000 A 
ATOM     16  C   UNL     1      41.359   7.817  19.350  0.00  0.00    +0.000 A 
ATOM     17  C   UNL     1      40.243   7.362  20.060  0.00  0.00    +0.000 A 
ATOM     18  C   UNL     1      39.485   6.340  19.524  0.00  0.00    +0.000 A 
ENDBRANCH  11  13
ENDBRANCH   1  12
BRANCH   5  19
ATOM     19  C   UNL     1      36.457   2.202  16.268  0.00  0.00    +0.000 C 
ATOM     20  O   UNL     1      35.412   2.750  16.556  0.00  0.00    +0.000 OA
ATOM     21  N   UNL     1      36.726   1.017  17.060  0.00  0.00    +0.000 NA
BRANCH  21  22
ATOM     22  C   UNL     1      35.806   0.567  18.086  0.00  0.00    +0.000 C 
BRANCH  22  23
ATOM     23  C   UNL     1      35.454  -0.851  17.759  0.00  0.00    +0.000 C 
BRANCH  23  24
ATOM     24  C   UNL     1      36.594  -1.780  17.942  0.00  0.00    +0.000 A 
ATOM     25  C   UNL     1      37.323  -1.845  19.093  0.00  0.00    +0.000 A 
ATOM     26  C   UNL     1      38.380  -2.751  19.178  0.00  0.00    +0.000 A 
ATOM     27  C   UNL     1      38.692  -3.578  18.110  0.00  0.00    +0.000 A 
ATOM     28  C   UNL     1      37.960  -3.512  16.956  0.00  0.00    +0.000 A 
ATOM     29  C   UNL     1      36.920  -2.607  16.900  0.00  0.00    +0.000 A 
ENDBRANCH  23  24
ENDBRANCH  22  23
ENDBRANCH  21  22
ENDBRANCH   5  19
TORSDOF 6
ENDMDL
MODEL 3
REMARK VINA RESULT:      -7.7      3.590      7.520
REMARK  Name = 
REMARK  6 active torsions:
REMARK  status: ('A' for Active; 'I' for Inactive)
REMARK    1  A    between atoms: C_2  and  C_24
REMARK    2  A    between atoms: N_3  and  C_4
REMARK    3  A    between atoms: C_8  and  C_9
REMARK    4  A    between atoms: N_11  and  C_12
REMARK    5  A    between atoms: C_12  and  C_13
REMARK    6  A    between atoms: C_13  and  C_14
REMARK                            x       y       z     vdW  Elec       q    Type
REMARK                         _______ _______ _______ _____ _____    ______ ____
ROOT
ATOM      1  C   UNL     1      38.999  -1.967  14.941  0.00  0.00    +0.000 A 
ATOM      2  S   UNL     1      40.673  -2.564  14.912  0.00  0.00    +0.000 S 
ATOM      3  C   UNL     1      41.462  -1.155  14.467  0.00  0.00    +0.000 A 
ATOM      4  C   UNL     1      40.454  -0.254  14.345  0.00  0.00    +0.000 A 
ATOM      5  C   UNL     1      39.193  -0.656  14.585  0.00  0.00    +0.000 A 
ATOM      6  C   UNL     1      40.925   1.160  13.925  0.00  0.00    +0.000 C 
ATOM      7  C   UNL     1      41.960   0.923  12.809  0.00  0.00    +0.000 C 
ATOM      8  C   UNL     1      43.173   0.407  13.536  0.00  0.00    +0.000 C 
ATOM      9  C   UNL     1      42.901  -0.843  14.237  0.00  0.00    +0.000 C 
ENDROOT
BRANCH   1  12
ATOM     10  O   UNL     1      37.543  -3.542  17.292  0.00  0.00    +0.000 OA
ATOM     11  C   UNL     1      37.244  -3.521  16.077  0.00  0.00    +0.000 C 
ATOM     12  N   UNL     1      37.976  -2.806  15.266  0.00  0.00    +0.000 NA
BRANCH  11  13
ATOM     13  C   UNL     1      36.053  -4.341  15.683  0.00  0.00    +0.000 A 
ATOM     14  C   UNL     1      35.855  -5.590  16.185  0.00  0.00    +0.000 A 
ATOM     15  C   UNL     1      34.752  -6.356  15.822  0.00  0.00    +0.000 A 
ATOM     16  C   UNL     1      33.839  -5.825  14.927  0.00  0.00    +0.000 A 
ATOM     17  C   UNL     1      34.033  -4.542  14.405  0.00  0.00    +0.000 A 
ATOM     18  C   UNL     1      35.144  -3.824  14.798  0.00  0.00    +0.000 A 
ENDBRANCH  11  13
ENDBRANCH   1  12
BRANCH   5  19
ATOM     19  C   UNL     1      38.046   0.301  14.465  0.00  0.00    +0.000 C 
ATOM     20  O   UNL     1      37.237   0.350  13.560  0.00  0.00    +0.000 OA
ATOM     21  N   UNL     1      37.821   1.298  15.495  0.00  0.00    +0.000 NA
BRANCH  21  22
ATOM     22  C   UNL     1      36.723   2.239  15.411  0.00  0.00    +0.000 C 
BRANCH  22  23
ATOM     23  C   UNL     1      36.156   2.366  16.792  0.00  0.00    +0.000 C 
BRANCH  23  24
ATOM     24  C   UNL     1      35.773   1.059  17.375  0.00  0.00    +0.000 A 
ATOM     25  C   UNL     1      36.237   0.618  18.579  0.00  0.00    +0.000 A 
ATOM     26  C   UNL     1      35.823  -0.627  19.053  0.00  0.00    +0.000 A 
ATOM     27  C   UNL     1      34.950  -1.412  18.313  0.00  0.00    +0.000 A 
ATOM     28  C   UNL     1      34.485  -0.968  17.106  0.00  0.00    +0.000 A 
ATOM     29  C   UNL     1      34.912   0.268  16.663  0.00  0.00    +0.000 A 
ENDBRANCH  23  24
ENDBRANCH  22  23
ENDBRANCH  21  22
ENDBRANCH   5  19
TORSDOF 6
ENDMDL
MODEL 4
REMARK VINA RESULT:      -7.5      3.730      7.683
REMARK  Name = 
REMARK  6 active torsions:
REMARK  status: ('A' for Active; 'I' for Inactive)
REMARK    1  A    between atoms: C_2  and  C_24
REMARK    2  A    between atoms: N_3  and  C_4
REMARK    3  A    between atoms: C_8  and  C_9
REMARK    4  A    between atoms: N_11  and  C_12
REMARK    5  A    between atoms: C_12  and  C_13
REMARK    6  A    between atoms: C_13  and  C_14
REMARK                            x       y       z     vdW  Elec       q    Type
REMARK                         _______ _______ _______ _____ _____    ______ ____
ROOT
ATOM      1  C   UNL     1      38.886  -0.989  15.302  0.00  0.00    +0.000 A 
ATOM      2  S   UNL     1      38.098  -2.376  16.086  0.00  0.00    +0.000 S 
ATOM      3  C   UNL     1      36.573  -1.724  16.332  0.00  0.00    +0.000 A 
ATOM      4  C   UNL     1      36.680  -0.472  15.821  0.00  0.00    +0.000 A 
ATOM      5  C   UNL     1      37.855  -0.084  15.292  0.00  0.00    +0.000 A 
ATOM      6  C   UNL     1      35.381   0.363  15.933  0.00  0.00    +0.000 C 
ATOM      7  C   UNL     1      34.852   0.094  17.354  0.00  0.00    +0.000 C 
ATOM      8  C   UNL     1      34.303  -1.306  17.283  0.00  0.00    +0.000 C 
ATOM      9  C   UNL     1      35.333  -2.281  16.942  0.00  0.00    +0.000 C 
ENDROOT
BRANCH   1  12
ATOM     10  O   UNL     1      41.129  -2.847  14.018  0.00  0.00    +0.000 OA
ATOM     11  C   UNL     1      41.239  -1.663  14.407  0.00  0.00    +0.000 C 
ATOM     12  N   UNL     1      40.189  -1.071  14.910  0.00  0.00    +0.000 NA
BRANCH  11  13
ATOM     13  C   UNL     1      42.596  -1.045  14.249  0.00  0.00    +0.000 A 
ATOM     14  C   UNL     1      43.709  -1.641  14.756  0.00  0.00    +0.000 A 
ATOM     15  C   UNL     1      44.970  -1.072  14.613  0.00  0.00    +0.000 A 
ATOM     16  C   UNL     1      45.084   0.130  13.936  0.00  0.00    +0.000 A 
ATOM     17  C   UNL     1      43.946   0.752  13.411  0.00  0.00    +0.000 A 
ATOM     18  C   UNL     1      42.719   0.145  13.581  0.00  0.00    +0.000 A 
ENDBRANCH  11  13
ENDBRANCH   1  12
BRANCH   5  19
ATOM     19  C   UNL     1      38.022   1.288  14.714  0.00  0.00    +0.000 C 
ATOM     20  O   UNL     1      37.709   1.644  13.597  0.00  0.00    +0.000 OA
ATOM     21  N   UNL     1      38.611   2.346  15.515  0.00  0.00    +0.000 NA
BRANCH  21  22
ATOM     22  C   UNL     1      38.787   3.684  14.988  0.00  0.00    +0.000 C 
BRANCH  22  23
ATOM     23  C   UNL     1      38.134   4.619  15.958  0.00  0.00    +0.000 C 
BRANCH  23  24
ATOM     24  C   UNL     1      39.098   5.221  16.910  0.00  0.00    +0.000 A 
ATOM     25  C   UNL     1      38.902   5.232  18.260  0.00  0.00    +0.000 A 
ATOM     26  C   UNL     1      39.863   5.821  19.082  0.00  0.00    +0.000 A 
ATOM     27  C   UNL     1      41.007   6.388  18.540  0.00  0.00    +0.000 A 
ATOM     28  C   UNL     1      41.203   6.376  17.186  0.00  0.00    +0.000 A 
ATOM     29  C   UNL     1      40.234   5.786  16.398  0.00  0.00    +0.000 A 
ENDBRANCH  23  24
ENDBRANCH  22  23
ENDBRANCH  21  22
ENDBRANCH   5  19
TORSDOF 6
ENDMDL
MODEL 5
REMARK VINA RESULT:      -7.5      3.210      4.193
REMARK  Name = 
REMARK  6 active torsions:
REMARK  status: ('A' for Active; 'I' for Inactive)
REMARK    1  A    between atoms: C_2  and  C_24
REMARK    2  A    between atoms: N_3  and  C_4
REMARK    3  A    between atoms: C_8  and  C_9
REMARK    4  A    between atoms: N_11  and  C_12
REMARK    5  A    between atoms: C_12  and  C_13
REMARK    6  A    between atoms: C_13  and  C_14
REMARK                            x       y       z     vdW  Elec       q    Type
REMARK                         _______ _______ _______ _____ _____    ______ ____
ROOT
ATOM      1  C   UNL     1      37.519   2.139  13.774  0.00  0.00    +0.000 A 
ATOM      2  S   UNL     1      38.714   1.738  12.520  0.00  0.00    +0.000 S 
ATOM      3  C   UNL     1      39.210   0.239  13.081  0.00  0.00    +0.000 A 
ATOM      4  C   UNL     1      38.470   0.062  14.204  0.00  0.00    +0.000 A 
ATOM      5  C   UNL     1      37.602   1.024  14.568  0.00  0.00    +0.000 A 
ATOM      6  C   UNL     1      38.749  -1.275  14.934  0.00  0.00    +0.000 C 
ATOM      7  C   UNL     1      40.281  -1.425  14.923  0.00  0.00    +0.000 C 
ATOM      8  C   UNL     1      40.606  -1.788  13.499  0.00  0.00    +0.000 C 
ATOM      9  C   UNL     1      40.201  -0.746  12.562  0.00  0.00    +0.000 C 
ENDROOT
BRANCH   1  12
ATOM     10  O   UNL     1      36.754   4.804  15.337  0.00  0.00    +0.000 OA
ATOM     11  C   UNL     1      36.412   4.462  14.183  0.00  0.00    +0.000 C 
ATOM     12  N   UNL     1      36.835   3.317  13.720  0.00  0.00    +0.000 NA
BRANCH  11  13
ATOM     13  C   UNL     1      35.531   5.428  13.448  0.00  0.00    +0.000 A 
ATOM     14  C   UNL     1      34.471   6.024  14.058  0.00  0.00    +0.000 A 
ATOM     15  C   UNL     1      33.650   6.921  13.381  0.00  0.00    +0.000 A 
ATOM     16  C   UNL     1      33.928   7.206  12.055  0.00  0.00    +0.000 A 
ATOM     17  C   UNL     1      35.015   6.598  11.418  0.00  0.00    +0.000 A 
ATOM     18  C   UNL     1      35.797   5.716  12.136  0.00  0.00    +0.000 A 
ENDBRANCH  11  13
ENDBRANCH   1  12
BRANCH   5  19
ATOM     19  C   UNL     1      36.762   0.874  15.800  0.00  0.00    +0.000 C 
ATOM     20  O   UNL     1      36.902   1.473  16.847  0.00  0.00    +0.000 OA
ATOM     21  N   UNL     1      35.654  -0.063  15.813  0.00  0.00    +0.000 NA
BRANCH  21  22
ATOM     22  C   UNL     1      34.820  -0.233  16.986  0.00  0.00    +0.000 C 
BRANCH  22  23
ATOM     23  C   UNL     1      34.795  -1.699  17.288  0.00  0.00    +0.000 C 
BRANCH  23  24
ATOM     24  C   UNL     1      36.136  -2.240  17.611  0.00  0.00    +0.000 A 
ATOM     25  C   UNL     1      36.968  -1.668  18.527  0.00  0.00    +0.000 A 
ATOM     26  C   UNL     1      38.214  -2.245  18.768  0.00  0.00    +0.000 A 
ATOM     27  C   UNL     1      38.609  -3.389  18.089  0.00  0.00    +0.000 A 
ATOM     28  C   UNL     1      37.773  -3.963  17.171  0.00  0.00    +0.000 A 
ATOM     29  C   UNL     1      36.546  -3.369  16.953  0.00  0.00    +0.000 A 
ENDBRANCH  23  24
ENDBRANCH  22  23
ENDBRANCH  21  22
ENDBRANCH   5  19
TORSDOF 6
ENDMDL
MODEL 6
REMARK VINA RESULT:      -7.4      3.027      8.385
REMARK  Name = 
REMARK  6 active torsions:
REMARK  status: ('A' for Active; 'I' for Inactive)
REMARK    1  A    between atoms: C_2  and  C_24
REMARK    2  A    between atoms: N_3  and  C_4
REMARK    3  A    between atoms: C_8  and  C_9
REMARK    4  A    between atoms: N_11  and  C_12
REMARK    5  A    between atoms: C_12  and  C_13
REMARK    6  A    between atoms: C_13  and  C_14
REMARK                            x       y       z     vdW  Elec       q    Type
REMARK                         _______ _______ _______ _____ _____    ______ ____
ROOT
ATOM      1  C   UNL     1      37.466  -1.102  13.963  0.00  0.00    +0.000 A 
ATOM      2  S   UNL     1      36.611  -2.487  14.677  0.00  0.00    +0.000 S 
ATOM      3  C   UNL     1      35.661  -1.679  15.796  0.00  0.00    +0.000 A 
ATOM      4  C   UNL     1      36.001  -0.378  15.617  0.00  0.00    +0.000 A 
ATOM      5  C   UNL     1      36.920  -0.070  14.684  0.00  0.00    +0.000 A 
ATOM      6  C   UNL     1      35.253   0.599  16.556  0.00  0.00    +0.000 C 
ATOM      7  C   UNL     1      35.276  -0.077  17.939  0.00  0.00    +0.000 C 
ATOM      8  C   UNL     1      34.278  -1.197  17.817  0.00  0.00    +0.000 C 
ATOM      9  C   UNL     1      34.656  -2.158  16.787  0.00  0.00    +0.000 C 
ENDROOT
BRANCH   1  12
ATOM     10  O   UNL     1      38.792   0.125  11.343  0.00  0.00    +0.000 OA
ATOM     11  C   UNL     1      39.039  -0.973  11.890  0.00  0.00    +0.000 C 
ATOM     12  N   UNL     1      38.378  -1.295  12.969  0.00  0.00    +0.000 NA
BRANCH  11  13
ATOM     13  C   UNL     1      40.088  -1.813  11.227  0.00  0.00    +0.000 A 
ATOM     14  C   UNL     1      40.423  -1.628   9.921  0.00  0.00    +0.000 A 
ATOM     15  C   UNL     1      41.396  -2.405   9.301  0.00  0.00    +0.000 A 
ATOM     16  C   UNL     1      42.032  -3.388  10.038  0.00  0.00    +0.000 A 
ATOM     17  C   UNL     1      41.695  -3.588  11.381  0.00  0.00    +0.000 A 
ATOM     18  C   UNL     1      40.723  -2.789  11.948  0.00  0.00    +0.000 A 
ENDBRANCH  11  13
ENDBRANCH   1  12
BRANCH   5  19
ATOM     19  C   UNL     1      37.328   1.353  14.448  0.00  0.00    +0.000 C 
ATOM     20  O   UNL     1      36.992   2.056  13.517  0.00  0.00    +0.000 OA
ATOM     21  N   UNL     1      38.212   2.019  15.387  0.00  0.00    +0.000 NA
BRANCH  21  22
ATOM     22  C   UNL     1      38.627   3.394  15.190  0.00  0.00    +0.000 C 
BRANCH  22  23
ATOM     23  C   UNL     1      38.041   4.187  16.317  0.00  0.00    +0.000 C 
BRANCH  23  24
ATOM     24  C   UNL     1      39.054   4.998  17.032  0.00  0.00    +0.000 A 
ATOM     25  C   UNL     1      40.101   5.604  16.403  0.00  0.00    +0.000 A 
ATOM     26  C   UNL     1      41.008   6.349  17.157  0.00  0.00    +0.000 A 
ATOM     27  C   UNL     1      40.852   6.477  18.529  0.00  0.00    +0.000 A 
ATOM     28  C   UNL     1      39.802   5.869  19.159  0.00  0.00    +0.000 A 
ATOM     29  C   UNL     1      38.920   5.138  18.388  0.00  0.00    +0.000 A 
ENDBRANCH  23  24
ENDBRANCH  22  23
ENDBRANCH  21  22
ENDBRANCH   5  19
TORSDOF 6
ENDMDL
MODEL 7
REMARK VINA RESULT:      -7.2      3.291      7.668
REMARK  Name = 
REMARK  6 active torsions:
REMARK  status: ('A' for Active; 'I' for Inactive)
REMARK    1  A    between atoms: C_2  and  C_24
REMARK    2  A    between atoms: N_3  and  C_4
REMARK    3  A    between atoms: C_8  and  C_9
REMARK    4  A    between atoms: N_11  and  C_12
REMARK    5  A    between atoms: C_12  and  C_13
REMARK    6  A    between atoms: C_13  and  C_14
REMARK                            x       y       z     vdW  Elec       q    Type
REMARK                         _______ _______ _______ _____ _____    ______ ____
ROOT
ATOM      1  C   UNL     1      39.739  -0.739  14.566  0.00  0.00    +0.000 A 
ATOM      2  S   UNL     1      40.821  -2.143  14.695  0.00  0.00    +0.000 S 
ATOM      3  C   UNL     1      42.266  -1.422  14.248  0.00  0.00    +0.000 A 
ATOM      4  C   UNL     1      41.913  -0.134  14.007  0.00  0.00    +0.000 A 
ATOM      5  C   UNL     1      40.627   0.228  14.166  0.00  0.00    +0.000 A 
ATOM      6  C   UNL     1      43.092   0.765  13.560  0.00  0.00    +0.000 C 
ATOM      7  C   UNL     1      43.877  -0.081  12.540  0.00  0.00    +0.000 C 
ATOM      8  C   UNL     1      44.586  -1.108  13.382  0.00  0.00    +0.000 C 
ATOM      9  C   UNL     1      43.651  -1.954  14.116  0.00  0.00    +0.000 C 
ENDROOT
BRANCH   1  12
ATOM     10  O   UNL     1      36.774  -0.304  13.496  0.00  0.00    +0.000 OA
ATOM     11  C   UNL     1      37.134  -0.768  14.600  0.00  0.00    +0.000 C 
ATOM     12  N   UNL     1      38.412  -0.865  14.850  0.00  0.00    +0.000 NA
BRANCH  11  13
ATOM     13  C   UNL     1      36.031  -1.167  15.534  0.00  0.00    +0.000 A 
ATOM     14  C   UNL     1      35.541  -2.436  15.550  0.00  0.00    +0.000 A 
ATOM     15  C   UNL     1      34.517  -2.811  16.414  0.00  0.00    +0.000 A 
ATOM     16  C   UNL     1      33.991  -1.862  17.273  0.00  0.00    +0.000 A 
ATOM     17  C   UNL     1      34.487  -0.554  17.265  0.00  0.00    +0.000 A 
ATOM     18  C   UNL     1      35.504  -0.235  16.388  0.00  0.00    +0.000 A 
ENDBRANCH  11  13
ENDBRANCH   1  12
BRANCH   5  19
ATOM     19  C   UNL     1      40.189   1.638  13.913  0.00  0.00    +0.000 C 
ATOM     20  O   UNL     1      40.364   2.278  12.896  0.00  0.00    +0.000 OA
ATOM     21  N   UNL     1      39.480   2.374  14.944  0.00  0.00    +0.000 NA
BRANCH  21  22
ATOM     22  C   UNL     1      39.042   3.739  14.733  0.00  0.00    +0.000 C 
BRANCH  22  23
ATOM     23  C   UNL     1      38.284   4.143  15.960  0.00  0.00    +0.000 C 
BRANCH  23  24
ATOM     24  C   UNL     1      39.103   4.942  16.902  0.00  0.00    +0.000 A 
ATOM     25  C   UNL     1      38.844   5.010  18.239  0.00  0.00    +0.000 A 
ATOM     26  C   UNL     1      39.669   5.787  19.052  0.00  0.00    +0.000 A 
ATOM     27  C   UNL     1      40.742   6.483  18.514  0.00  0.00    +0.000 A 
ATOM     28  C   UNL     1      41.000   6.414  17.173  0.00  0.00    +0.000 A 
ATOM     29  C   UNL     1      40.167   5.637  16.393  0.00  0.00    +0.000 A 
ENDBRANCH  23  24
ENDBRANCH  22  23
ENDBRANCH  21  22
ENDBRANCH   5  19
TORSDOF 6
ENDMDL
MODEL 8
REMARK VINA RESULT:      -7.2      3.518      4.822
REMARK  Name = 
REMARK  6 active torsions:
REMARK  status: ('A' for Active; 'I' for Inactive)
REMARK    1  A    between atoms: C_2  and  C_24
REMARK    2  A    between atoms: N_3  and  C_4
REMARK    3  A    between atoms: C_8  and  C_9
REMARK    4  A    between atoms: N_11  and  C_12
REMARK    5  A    between atoms: C_12  and  C_13
REMARK    6  A    between atoms: C_13  and  C_14
REMARK                            x       y       z     vdW  Elec       q    Type
REMARK                         _______ _______ _______ _____ _____    ______ ____
ROOT
ATOM      1  C   UNL     1      37.103   6.937  14.804  0.00  0.00    +0.000 A 
ATOM      2  S   UNL     1      36.822   8.656  14.448  0.00  0.00    +0.000 S 
ATOM      3  C   UNL     1      35.630   8.505  13.280  0.00  0.00    +0.000 A 
ATOM      4  C   UNL     1      35.461   7.162  13.174  0.00  0.00    +0.000 A 
ATOM      5  C   UNL     1      36.207   6.351  13.946  0.00  0.00    +0.000 A 
ATOM      6  C   UNL     1      34.395   6.746  12.131  0.00  0.00    +0.000 C 
ATOM      7  C   UNL     1      34.657   7.644  10.908  0.00  0.00    +0.000 C 
ATOM      8  C   UNL     1      34.151   8.997  11.330  0.00  0.00    +0.000 C 
ATOM      9  C   UNL     1      34.868   9.513  12.490  0.00  0.00    +0.000 C 
ENDROOT
BRANCH   1  12
ATOM     10  O   UNL     1      39.070   4.635  15.785  0.00  0.00    +0.000 OA
ATOM     11  C   UNL     1      38.891   5.764  16.293  0.00  0.00    +0.000 C 
ATOM     12  N   UNL     1      38.030   6.571  15.734  0.00  0.00    +0.000 NA
BRANCH  11  13
ATOM     13  C   UNL     1      39.703   6.067  17.516  0.00  0.00    +0.000 A 
ATOM     14  C   UNL     1      39.118   6.216  18.736  0.00  0.00    +0.000 A 
ATOM     15  C   UNL     1      39.867   6.498  19.874  0.00  0.00    +0.000 A 
ATOM     16  C   UNL     1      41.239   6.628  19.751  0.00  0.00    +0.000 A 
ATOM     17  C   UNL     1      41.851   6.478  18.502  0.00  0.00    +0.000 A 
ATOM     18  C   UNL     1      41.062   6.199  17.405  0.00  0.00    +0.000 A 
ENDBRANCH  11  13
ENDBRANCH   1  12
BRANCH   5  19
ATOM     19  C   UNL     1      36.056   4.862  13.866  0.00  0.00    +0.000 C 
ATOM     20  O   UNL     1      36.617   4.121  13.086  0.00  0.00    +0.000 OA
ATOM     21  N   UNL     1      35.167   4.173  14.782  0.00  0.00    +0.000 NA
BRANCH  21  22
ATOM     22  C   UNL     1      34.997   2.734  14.733  0.00  0.00    +0.000 C 
BRANCH  22  23
ATOM     23  C   UNL     1      35.817   2.164  15.849  0.00  0.00    +0.000 C 
BRANCH  23  24
ATOM     24  C   UNL     1      35.610   0.707  16.024  0.00  0.00    +0.000 A 
ATOM     25  C   UNL     1      36.238  -0.231  15.259  0.00  0.00    +0.000 A 
ATOM     26  C   UNL     1      35.983  -1.582  15.493  0.00  0.00    +0.000 A 
ATOM     27  C   UNL     1      35.104  -1.974  16.492  0.00  0.00    +0.000 A 
ATOM     28  C   UNL     1      34.474  -1.032  17.259  0.00  0.00    +0.000 A 
ATOM     29  C   UNL     1      34.746   0.297  17.004  0.00  0.00    +0.000 A 
ENDBRANCH  23  24
ENDBRANCH  22  23
ENDBRANCH  21  22
ENDBRANCH   5  19
TORSDOF 6
ENDMDL
MODEL 9
REMARK VINA RESULT:      -7.2      3.953      7.527
REMARK  Name = 
REMARK  6 active torsions:
REMARK  status: ('A' for Active; 'I' for Inactive)
REMARK    1  A    between atoms: C_2  and  C_24
REMARK    2  A    between atoms: N_3  and  C_4
REMARK    3  A    between atoms: C_8  and  C_9
REMARK    4  A    between atoms: N_11  and  C_12
REMARK    5  A    between atoms: C_12  and  C_13
REMARK    6  A    between atoms: C_13  and  C_14
REMARK                            x       y       z     vdW  Elec       q    Type
REMARK                         _______ _______ _______ _____ _____    ______ ____
ROOT
ATOM      1  C   UNL     1      38.342   0.227  12.774  0.00  0.00    +0.000 A 
ATOM      2  S   UNL     1      37.554   1.732  12.250  0.00  0.00    +0.000 S 
ATOM      3  C   UNL     1      36.807   2.167  13.685  0.00  0.00    +0.000 A 
ATOM      4  C   UNL     1      37.161   1.173  14.539  0.00  0.00    +0.000 A 
ATOM      5  C   UNL     1      37.945   0.178  14.086  0.00  0.00    +0.000 A 
ATOM      6  C   UNL     1      36.582   1.338  15.965  0.00  0.00    +0.000 C 
ATOM      7  C   UNL     1      35.117   1.763  15.757  0.00  0.00    +0.000 C 
ATOM      8  C   UNL     1      35.211   3.197  15.305  0.00  0.00    +0.000 C 
ATOM      9  C   UNL     1      35.951   3.330  14.056  0.00  0.00    +0.000 C 
ENDROOT
BRANCH   1  12
ATOM     10  O   UNL     1      40.865  -1.682  12.429  0.00  0.00    +0.000 OA
ATOM     11  C   UNL     1      40.072  -1.285  11.547  0.00  0.00    +0.000 C 
ATOM     12  N   UNL     1      39.091  -0.498  11.896  0.00  0.00    +0.000 NA
BRANCH  11  13
ATOM     13  C   UNL     1      40.348  -1.770  10.155  0.00  0.00    +0.000 A 
ATOM     14  C   UNL     1      40.650  -3.073   9.905  0.00  0.00    +0.000 A 
ATOM     15  C   UNL     1      40.907  -3.527   8.615  0.00  0.00    +0.000 A 
ATOM     16  C   UNL     1      40.852  -2.624   7.569  0.00  0.00    +0.000 A 
ATOM     17  C   UNL     1      40.543  -1.281   7.814  0.00  0.00    +0.000 A 
ATOM     18  C   UNL     1      40.296  -0.883   9.112  0.00  0.00    +0.000 A 
ENDBRANCH  11  13
ENDBRANCH   1  12
BRANCH   5  19
ATOM     19  C   UNL     1      38.363  -0.941  14.991  0.00  0.00    +0.000 C 
ATOM     20  O   UNL     1      39.235  -0.900  15.834  0.00  0.00    +0.000 OA
ATOM     21  N   UNL     1      37.703  -2.231  14.903  0.00  0.00    +0.000 NA
BRANCH  21  22
ATOM     22  C   UNL     1      38.082  -3.335  15.762  0.00  0.00    +0.000 C 
BRANCH  22  23
ATOM     23  C   UNL     1      36.857  -3.725  16.529  0.00  0.00    +0.000 C 
BRANCH  23  24
ATOM     24  C   UNL     1      36.320  -2.616  17.351  0.00  0.00    +0.000 A 
ATOM     25  C   UNL     1      35.078  -2.084  17.163  0.00  0.00    +0.000 A 
ATOM     26  C   UNL     1      34.653  -1.041  17.985  0.00  0.00    +0.000 A 
ATOM     27  C   UNL     1      35.478  -0.545  18.984  0.00  0.00    +0.000 A 
ATOM     28  C   UNL     1      36.723  -1.079  19.172  0.00  0.00    +0.000 A 
ATOM     29  C   UNL     1      37.116  -2.111  18.344  0.00  0.00    +0.000 A 
ENDBRANCH  23  24
ENDBRANCH  22  23
ENDBRANCH  21  22
ENDBRANCH   5  19
TORSDOF 6
ENDMDL
MODEL 10
REMARK VINA RESULT:      -7.1      2.630      8.131
REMARK  Name = 
REMARK  6 active torsions:
REMARK  status: ('A' for Active; 'I' for Inactive)
REMARK    1  A    between atoms: C_2  and  C_24
REMARK    2  A    between atoms: N_3  and  C_4
REMARK    3  A    between atoms: C_8  and  C_9
REMARK    4  A    between atoms: N_11  and  C_12
REMARK    5  A    between atoms: C_12  and  C_13
REMARK    6  A    between atoms: C_13  and  C_14
REMARK                            x       y       z     vdW  Elec       q    Type
REMARK                         _______ _______ _______ _____ _____    ______ ____
ROOT
ATOM      1  C   UNL     1      36.396   4.512  14.712  0.00  0.00    +0.000 A 
ATOM      2  S   UNL     1      35.515   5.388  13.441  0.00  0.00    +0.000 S 
ATOM      3  C   UNL     1      36.438   6.785  13.377  0.00  0.00    +0.000 A 
ATOM      4  C   UNL     1      37.396   6.573  14.314  0.00  0.00    +0.000 A 
ATOM      5  C   UNL     1      37.387   5.417  15.002  0.00  0.00    +0.000 A 
ATOM      6  C   UNL     1      38.398   7.745  14.462  0.00  0.00    +0.000 C 
ATOM      7  C   UNL     1      37.531   9.017  14.441  0.00  0.00    +0.000 C 
ATOM      8  C   UNL     1      37.118   9.157  13.000  0.00  0.00    +0.000 C 
ATOM      9  C   UNL     1      36.336   8.015  12.541  0.00  0.00    +0.000 C 
ENDROOT
BRANCH   1  12
ATOM     10  O   UNL     1      34.049   2.837  16.059  0.00  0.00    +0.000 OA
ATOM     11  C   UNL     1      35.147   2.418  15.630  0.00  0.00    +0.000 C 
ATOM     12  N   UNL     1      35.982   3.276  15.108  0.00  0.00    +0.000 NA
BRANCH  11  13
ATOM     13  C   UNL     1      35.386   0.944  15.771  0.00  0.00    +0.000 A 
ATOM     14  C   UNL     1      36.203   0.274  14.914  0.00  0.00    +0.000 A 
ATOM     15  C   UNL     1      36.426  -1.093  15.040  0.00  0.00    +0.000 A 
ATOM     16  C   UNL     1      35.797  -1.779  16.064  0.00  0.00    +0.000 A 
ATOM     17  C   UNL     1      34.954  -1.100  16.950  0.00  0.00    +0.000 A 
ATOM     18  C   UNL     1      34.767   0.257  16.781  0.00  0.00    +0.000 A 
ENDBRANCH  11  13
ENDBRANCH   1  12
BRANCH   5  19
ATOM     19  C   UNL     1      38.424   5.136  16.047  0.00  0.00    +0.000 C 
ATOM     20  O   UNL     1      39.568   4.780  15.851  0.00  0.00    +0.000 OA
ATOM     21  N   UNL     1      38.096   5.283  17.453  0.00  0.00    +0.000 NA
BRANCH  21  22
ATOM     22  C   UNL     1      39.075   5.020  18.489  0.00  0.00    +0.000 C 
BRANCH  22  23
ATOM     23  C   UNL     1      39.487   6.349  19.041  0.00  0.00    +0.000 C 
BRANCH  23  24
ATOM     24  C   UNL     1      40.958   6.489  19.154  0.00  0.00    +0.000 A 
ATOM     25  C   UNL     1      41.769   6.711  18.080  0.00  0.00    +0.000 A 
ATOM     26  C   UNL     1      43.144   6.830  18.279  0.00  0.00    +0.000 A 
ATOM     27  C   UNL     1      43.687   6.727  19.551  0.00  0.00    +0.000 A 
ATOM     28  C   UNL     1      42.873   6.505  20.628  0.00  0.00    +0.000 A 
ATOM     29  C   UNL     1      41.516   6.391  20.400  0.00  0.00    +0.000 A 
ENDBRANCH  23  24
ENDBRANCH  22  23
ENDBRANCH  21  22
ENDBRANCH   5  19
TORSDOF 6
ENDMDL
