MODEL 1
REMARK VINA RESULT:      -5.7      0.000      0.000
REMARK  Name = 
REMARK  3 active torsions:
REMARK  status: ('A' for Active; 'I' for Inactive)
REMARK    1  A    between atoms: O_2  and  C_3
REMARK    2  A    between atoms: C_6  and  C_7
REMARK    3  A    between atoms: C_19  and  O_20
REMARK                            x       y       z     vdW  Elec       q    Type
REMARK                         _______ _______ _______ _____ _____    ______ ____
ROOT
ATOM      1  C   UNL     1      28.411  23.218  25.844  0.00  0.00    +0.000 A 
ATOM      2  C   UNL     1      27.191  23.124  26.467  0.00  0.00    +0.000 A 
ATOM      3  C   UNL     1      26.908  22.946  27.943  0.00  0.00    +0.000 C 
ATOM      4  S   UNL     1      26.084  23.265  25.178  0.00  0.00    +0.000 S 
ATOM      5  C   UNL     1      27.185  23.437  23.892  0.00  0.00    +0.000 A 
ATOM      6  N   UNL     1      27.022  23.603  22.546  0.00  0.00    +0.000 NA
ATOM      7  C   UNL     1      28.109  23.723  21.744  0.00  0.00    +0.000 A 
ATOM      8  N   UNL     1      29.303  23.671  22.321  0.00  0.00    +0.000 NA
ATOM      9  C   UNL     1      29.496  23.509  23.632  0.00  0.00    +0.000 A 
ATOM     10  N   UNL     1      30.857  23.483  24.125  0.00  0.00    +0.000 NA
ATOM     11  C   UNL     1      28.403  23.381  24.503  0.00  0.00    +0.000 A 
ENDROOT
BRANCH   1  15
ATOM     12  C   UNL     1      31.929  23.219  28.179  0.00  0.00    +0.000 A 
ATOM     13  C   UNL     1      31.409  22.024  27.755  0.00  0.00    +0.000 A 
ATOM     14  C   UNL     1      30.257  21.976  26.998  0.00  0.00    +0.000 A 
ATOM     15  C   UNL     1      29.634  23.148  26.674  0.00  0.00    +0.000 A 
ATOM     16  C   UNL     1      30.153  24.338  27.096  0.00  0.00    +0.000 A 
ATOM     17  C   UNL     1      31.294  24.383  27.844  0.00  0.00    +0.000 A 
BRANCH  12  19
ATOM     18  C   UNL     1      33.556  22.015  29.537  0.00  0.00    +0.000 C 
ATOM     19  O   UNL     1      33.091  23.218  28.937  0.00  0.00    +0.000 OA
ENDBRANCH  12  19
BRANCH  17  20
ATOM     20  O   UNL     1      31.840  25.607  28.284  0.00  0.00    +0.000 OA
ATOM     21  C   UNL     1      32.525  26.397  27.340  0.00  0.00    +0.000 C 
ENDBRANCH  17  20
ENDBRANCH   1  15
TORSDOF 3
ENDMDL
MODEL 2
REMARK VINA RESULT:      -5.6      2.807      4.277
REMARK  Name = 
REMARK  3 active torsions:
REMARK  status: ('A' for Active; 'I' for Inactive)
REMARK    1  A    between atoms: O_2  and  C_3
REMARK    2  A    between atoms: C_6  and  C_7
REMARK    3  A    between atoms: C_19  and  O_20
REMARK                            x       y       z     vdW  Elec       q    Type
REMARK                         _______ _______ _______ _____ _____    ______ ____
ROOT
ATOM      1  C   UNL     1      29.297  23.865  25.805  0.00  0.00    +0.000 A 
ATOM      2  C   UNL     1      30.556  24.346  26.063  0.00  0.00    +0.000 A 
ATOM      3  C   UNL     1      31.225  24.536  27.408  0.00  0.00    +0.000 C 
ATOM      4  S   UNL     1      31.179  24.664  24.508  0.00  0.00    +0.000 S 
ATOM      5  C   UNL     1      29.838  24.185  23.576  0.00  0.00    +0.000 A 
ATOM      6  N   UNL     1      29.606  24.153  22.231  0.00  0.00    +0.000 NA
ATOM      7  C   UNL     1      28.416  23.704  21.761  0.00  0.00    +0.000 A 
ATOM      8  N   UNL     1      27.516  23.308  22.654  0.00  0.00    +0.000 NA
ATOM      9  C   UNL     1      27.712  23.327  23.974  0.00  0.00    +0.000 A 
ATOM     10  N   UNL     1      26.644  22.853  24.830  0.00  0.00    +0.000 NA
ATOM     11  C   UNL     1      28.927  23.783  24.509  0.00  0.00    +0.000 A 
ENDROOT
BRANCH   1  15
ATOM     12  C   UNL     1      26.828  22.917  29.097  0.00  0.00    +0.000 A 
ATOM     13  C   UNL     1      27.684  21.966  28.607  0.00  0.00    +0.000 A 
ATOM     14  C   UNL     1      28.501  22.229  27.529  0.00  0.00    +0.000 A 
ATOM     15  C   UNL     1      28.446  23.463  26.948  0.00  0.00    +0.000 A 
ATOM     16  C   UNL     1      27.594  24.411  27.435  0.00  0.00    +0.000 A 
ATOM     17  C   UNL     1      26.786  24.149  28.504  0.00  0.00    +0.000 A 
BRANCH  12  19
ATOM     18  C   UNL     1      26.043  21.298  30.741  0.00  0.00    +0.000 C 
ATOM     19  O   UNL     1      26.025  22.607  30.185  0.00  0.00    +0.000 OA
ENDBRANCH  12  19
BRANCH  17  20
ATOM     20  O   UNL     1      25.903  25.122  29.018  0.00  0.00    +0.000 OA
ATOM     21  C   UNL     1      24.923  25.643  28.150  0.00  0.00    +0.000 C 
ENDBRANCH  17  20
ENDBRANCH   1  15
TORSDOF 3
ENDMDL
MODEL 3
REMARK VINA RESULT:      -5.6      3.087      4.948
REMARK  Name = 
REMARK  3 active torsions:
REMARK  status: ('A' for Active; 'I' for Inactive)
REMARK    1  A    between atoms: O_2  and  C_3
REMARK    2  A    between atoms: C_6  and  C_7
REMARK    3  A    between atoms: C_19  and  O_20
REMARK                            x       y       z     vdW  Elec       q    Type
REMARK                         _______ _______ _______ _____ _____    ______ ____
ROOT
ATOM      1  C   UNL     1      28.397  23.479  26.403  0.00  0.00    +0.000 A 
ATOM      2  C   UNL     1      29.666  22.961  26.478  0.00  0.00    +0.000 A 
ATOM      3  C   UNL     1      30.512  22.739  27.714  0.00  0.00    +0.000 C 
ATOM      4  S   UNL     1      30.047  22.625  24.851  0.00  0.00    +0.000 S 
ATOM      5  C   UNL     1      28.600  23.145  24.121  0.00  0.00    +0.000 A 
ATOM      6  N   UNL     1      28.173  23.175  22.824  0.00  0.00    +0.000 NA
ATOM      7  C   UNL     1      26.937  23.649  22.531  0.00  0.00    +0.000 A 
ATOM      8  N   UNL     1      26.188  24.070  23.543  0.00  0.00    +0.000 NA
ATOM      9  C   UNL     1      26.577  24.055  24.820  0.00  0.00    +0.000 A 
ATOM     10  N   UNL     1      25.648  24.535  25.823  0.00  0.00    +0.000 NA
ATOM     11  C   UNL     1      27.846  23.573  25.174  0.00  0.00    +0.000 A 
ENDROOT
BRANCH   1  15
ATOM     12  C   UNL     1      26.369  24.456  29.976  0.00  0.00    +0.000 A 
ATOM     13  C   UNL     1      27.061  25.434  29.312  0.00  0.00    +0.000 A 
ATOM     14  C   UNL     1      27.745  25.158  28.147  0.00  0.00    +0.000 A 
ATOM     15  C   UNL     1      27.724  23.883  27.658  0.00  0.00    +0.000 A 
ATOM     16  C   UNL     1      27.034  22.908  28.320  0.00  0.00    +0.000 A 
ATOM     17  C   UNL     1      26.357  23.184  29.472  0.00  0.00    +0.000 A 
BRANCH  12  19
ATOM     18  C   UNL     1      24.931  25.978  31.223  0.00  0.00    +0.000 C 
ATOM     19  O   UNL     1      25.694  24.780  31.144  0.00  0.00    +0.000 OA
ENDBRANCH  12  19
BRANCH  17  20
ATOM     20  O   UNL     1      25.638  22.185  30.163  0.00  0.00    +0.000 OA
ATOM     21  C   UNL     1      26.375  21.155  30.781  0.00  0.00    +0.000 C 
ENDBRANCH  17  20
ENDBRANCH   1  15
TORSDOF 3
ENDMDL
MODEL 4
REMARK VINA RESULT:      -5.6      2.342      2.755
REMARK  Name = 
REMARK  3 active torsions:
REMARK  status: ('A' for Active; 'I' for Inactive)
REMARK    1  A    between atoms: O_2  and  C_3
REMARK    2  A    between atoms: C_6  and  C_7
REMARK    3  A    between atoms: C_19  and  O_20
REMARK                            x       y       z     vdW  Elec       q    Type
REMARK                         _______ _______ _______ _____ _____    ______ ____
ROOT
ATOM      1  C   UNL     1      28.825  23.596  24.975  0.00  0.00    +0.000 A 
ATOM      2  C   UNL     1      28.262  23.275  26.185  0.00  0.00    +0.000 A 
ATOM      3  C   UNL     1      28.926  23.242  27.545  0.00  0.00    +0.000 C 
ATOM      4  S   UNL     1      26.640  22.934  25.782  0.00  0.00    +0.000 S 
ATOM      5  C   UNL     1      26.716  23.204  24.104  0.00  0.00    +0.000 A 
ATOM      6  N   UNL     1      25.784  23.128  23.108  0.00  0.00    +0.000 NA
ATOM      7  C   UNL     1      26.136  23.412  21.830  0.00  0.00    +0.000 A 
ATOM      8  N   UNL     1      27.398  23.759  21.606  0.00  0.00    +0.000 NA
ATOM      9  C   UNL     1      28.332  23.842  22.557  0.00  0.00    +0.000 A 
ATOM     10  N   UNL     1      29.668  24.245  22.168  0.00  0.00    +0.000 NA
ATOM     11  C   UNL     1      28.016  23.557  23.894  0.00  0.00    +0.000 A 
ENDROOT
BRANCH   1  15
ATOM     12  C   UNL     1      32.854  24.856  24.865  0.00  0.00    +0.000 A 
ATOM     13  C   UNL     1      32.558  23.540  24.623  0.00  0.00    +0.000 A 
ATOM     14  C   UNL     1      31.258  23.083  24.657  0.00  0.00    +0.000 A 
ATOM     15  C   UNL     1      30.257  23.968  24.940  0.00  0.00    +0.000 A 
ATOM     16  C   UNL     1      30.551  25.279  25.181  0.00  0.00    +0.000 A 
ATOM     17  C   UNL     1      31.839  25.730  25.145  0.00  0.00    +0.000 A 
BRANCH  12  19
ATOM     18  C   UNL     1      35.170  24.435  24.236  0.00  0.00    +0.000 C 
ATOM     19  O   UNL     1      34.177  25.270  24.818  0.00  0.00    +0.000 OA
ENDBRANCH  12  19
BRANCH  17  20
ATOM     20  O   UNL     1      32.155  27.083  25.391  0.00  0.00    +0.000 OA
ATOM     21  C   UNL     1      31.128  28.035  25.236  0.00  0.00    +0.000 C 
ENDBRANCH  17  20
ENDBRANCH   1  15
TORSDOF 3
ENDMDL
MODEL 5
REMARK VINA RESULT:      -5.6      3.533      5.490
REMARK  Name = 
REMARK  3 active torsions:
REMARK  status: ('A' for Active; 'I' for Inactive)
REMARK    1  A    between atoms: O_2  and  C_3
REMARK    2  A    between atoms: C_6  and  C_7
REMARK    3  A    between atoms: C_19  and  O_20
REMARK                            x       y       z     vdW  Elec       q    Type
REMARK                         _______ _______ _______ _____ _____    ______ ____
ROOT
ATOM      1  C   UNL     1      26.650  24.518  27.179  0.00  0.00    +0.000 A 
ATOM      2  C   UNL     1      25.830  25.612  27.294  0.00  0.00    +0.000 A 
ATOM      3  C   UNL     1      25.565  26.692  26.266  0.00  0.00    +0.000 C 
ATOM      4  S   UNL     1      25.182  25.452  28.863  0.00  0.00    +0.000 S 
ATOM      5  C   UNL     1      25.960  24.013  29.331  0.00  0.00    +0.000 A 
ATOM      6  N   UNL     1      25.922  23.266  30.475  0.00  0.00    +0.000 NA
ATOM      7  C   UNL     1      26.662  22.134  30.567  0.00  0.00    +0.000 A 
ATOM      8  N   UNL     1      27.402  21.800  29.516  0.00  0.00    +0.000 NA
ATOM      9  C   UNL     1      27.462  22.508  28.386  0.00  0.00    +0.000 A 
ATOM     10  N   UNL     1      28.305  22.017  27.316  0.00  0.00    +0.000 NA
ATOM     11  C   UNL     1      26.715  23.688  28.243  0.00  0.00    +0.000 A 
ENDROOT
BRANCH   1  15
ATOM     12  C   UNL     1      28.875  24.103  23.615  0.00  0.00    +0.000 A 
ATOM     13  C   UNL     1      27.660  23.478  23.721  0.00  0.00    +0.000 A 
ATOM     14  C   UNL     1      26.904  23.579  24.869  0.00  0.00    +0.000 A 
ATOM     15  C   UNL     1      27.387  24.317  25.912  0.00  0.00    +0.000 A 
ATOM     16  C   UNL     1      28.597  24.940  25.806  0.00  0.00    +0.000 A 
ATOM     17  C   UNL     1      29.344  24.839  24.668  0.00  0.00    +0.000 A 
BRANCH  12  19
ATOM     18  C   UNL     1      29.276  24.768  21.305  0.00  0.00    +0.000 C 
ATOM     19  O   UNL     1      29.600  23.974  22.439  0.00  0.00    +0.000 OA
ENDBRANCH  12  19
BRANCH  17  20
ATOM     20  O   UNL     1      30.595  25.480  24.546  0.00  0.00    +0.000 OA
ATOM     21  C   UNL     1      31.715  24.849  25.123  0.00  0.00    +0.000 C 
ENDBRANCH  17  20
ENDBRANCH   1  15
TORSDOF 3
ENDMDL
MODEL 6
REMARK VINA RESULT:      -5.5      3.928      5.478
REMARK  Name = 
REMARK  3 active torsions:
REMARK  status: ('A' for Active; 'I' for Inactive)
REMARK    1  A    between atoms: O_2  and  C_3
REMARK    2  A    between atoms: C_6  and  C_7
REMARK    3  A    between atoms: C_19  and  O_20
REMARK                            x       y       z     vdW  Elec       q    Type
REMARK                         _______ _______ _______ _____ _____    ______ ____
ROOT
ATOM      1  C   UNL     1      28.887  26.870  22.744  0.00  0.00    +0.000 A 
ATOM      2  C   UNL     1      28.624  28.085  23.325  0.00  0.00    +0.000 A 
ATOM      3  C   UNL     1      28.211  28.367  24.754  0.00  0.00    +0.000 C 
ATOM      4  S   UNL     1      28.884  29.190  22.053  0.00  0.00    +0.000 S 
ATOM      5  C   UNL     1      29.315  28.093  20.826  0.00  0.00    +0.000 A 
ATOM      6  N   UNL     1      29.669  28.256  19.516  0.00  0.00    +0.000 NA
ATOM      7  C   UNL     1      29.975  27.174  18.759  0.00  0.00    +0.000 A 
ATOM      8  N   UNL     1      29.915  25.983  19.343  0.00  0.00    +0.000 NA
ATOM      9  C   UNL     1      29.572  25.790  20.619  0.00  0.00    +0.000 A 
ATOM     10  N   UNL     1      29.561  24.433  21.126  0.00  0.00    +0.000 NA
ATOM     11  C   UNL     1      29.247  26.878  21.443  0.00  0.00    +0.000 A 
ENDROOT
BRANCH   1  15
ATOM     12  C   UNL     1      28.358  23.416  25.116  0.00  0.00    +0.000 A 
ATOM     13  C   UNL     1      29.607  23.969  25.010  0.00  0.00    +0.000 A 
ATOM     14  C   UNL     1      29.828  25.091  24.239  0.00  0.00    +0.000 A 
ATOM     15  C   UNL     1      28.773  25.650  23.576  0.00  0.00    +0.000 A 
ATOM     16  C   UNL     1      27.529  25.099  23.682  0.00  0.00    +0.000 A 
ATOM     17  C   UNL     1      27.312  23.989  24.446  0.00  0.00    +0.000 A 
BRANCH  12  19
ATOM     18  C   UNL     1      28.198  22.393  27.322  0.00  0.00    +0.000 C 
ATOM     19  O   UNL     1      28.184  22.288  25.904  0.00  0.00    +0.000 OA
ENDBRANCH  12  19
BRANCH  17  20
ATOM     20  O   UNL     1      26.030  23.413  24.564  0.00  0.00    +0.000 OA
ATOM     21  C   UNL     1      25.350  23.076  23.377  0.00  0.00    +0.000 C 
ENDBRANCH  17  20
ENDBRANCH   1  15
TORSDOF 3
ENDMDL
MODEL 7
REMARK VINA RESULT:      -5.4      2.069      2.876
REMARK  Name = 
REMARK  3 active torsions:
REMARK  status: ('A' for Active; 'I' for Inactive)
REMARK    1  A    between atoms: O_2  and  C_3
REMARK    2  A    between atoms: C_6  and  C_7
REMARK    3  A    between atoms: C_19  and  O_20
REMARK                            x       y       z     vdW  Elec       q    Type
REMARK                         _______ _______ _______ _____ _____    ______ ____
ROOT
ATOM      1  C   UNL     1      29.613  23.451  25.235  0.00  0.00    +0.000 A 
ATOM      2  C   UNL     1      30.500  23.845  24.265  0.00  0.00    +0.000 A 
ATOM      3  C   UNL     1      31.990  24.074  24.400  0.00  0.00    +0.000 C 
ATOM      4  S   UNL     1      29.518  24.003  22.880  0.00  0.00    +0.000 S 
ATOM      5  C   UNL     1      28.020  23.570  23.560  0.00  0.00    +0.000 A 
ATOM      6  N   UNL     1      26.760  23.464  23.041  0.00  0.00    +0.000 NA
ATOM      7  C   UNL     1      25.732  23.081  23.837  0.00  0.00    +0.000 A 
ATOM      8  N   UNL     1      26.008  22.822  25.110  0.00  0.00    +0.000 NA
ATOM      9  C   UNL     1      27.226  22.916  25.647  0.00  0.00    +0.000 A 
ATOM     10  N   UNL     1      27.382  22.590  27.050  0.00  0.00    +0.000 NA
ATOM     11  C   UNL     1      28.322  23.309  24.864  0.00  0.00    +0.000 A 
ENDROOT
BRANCH   1  15
ATOM     12  C   UNL     1      31.085  22.936  29.160  0.00  0.00    +0.000 A 
ATOM     13  C   UNL     1      31.106  21.875  28.293  0.00  0.00    +0.000 A 
ATOM     14  C   UNL     1      30.628  21.995  27.006  0.00  0.00    +0.000 A 
ATOM     15  C   UNL     1      30.126  23.200  26.601  0.00  0.00    +0.000 A 
ATOM     16  C   UNL     1      30.105  24.256  27.464  0.00  0.00    +0.000 A 
ATOM     17  C   UNL     1      30.580  24.136  28.738  0.00  0.00    +0.000 A 
BRANCH  12  19
ATOM     18  C   UNL     1      32.009  21.487  30.887  0.00  0.00    +0.000 C 
ATOM     19  O   UNL     1      31.578  22.769  30.445  0.00  0.00    +0.000 OA
ENDBRANCH  12  19
BRANCH  17  20
ATOM     20  O   UNL     1      30.565  25.222  29.638  0.00  0.00    +0.000 OA
ATOM     21  C   UNL     1      29.334  25.565  30.233  0.00  0.00    +0.000 C 
ENDBRANCH  17  20
ENDBRANCH   1  15
TORSDOF 3
ENDMDL
MODEL 8
REMARK VINA RESULT:      -5.4      3.613      5.692
REMARK  Name = 
REMARK  3 active torsions:
REMARK  status: ('A' for Active; 'I' for Inactive)
REMARK    1  A    between atoms: O_2  and  C_3
REMARK    2  A    between atoms: C_6  and  C_7
REMARK    3  A    between atoms: C_19  and  O_20
REMARK                            x       y       z     vdW  Elec       q    Type
REMARK                         _______ _______ _______ _____ _____    ______ ____
ROOT
ATOM      1  C   UNL     1      30.298  23.197  27.876  0.00  0.00    +0.000 A 
ATOM      2  C   UNL     1      31.502  23.401  28.501  0.00  0.00    +0.000 A 
ATOM      3  C   UNL     1      32.819  23.812  27.879  0.00  0.00    +0.000 C 
ATOM      4  S   UNL     1      31.148  23.088  30.140  0.00  0.00    +0.000 S 
ATOM      5  C   UNL     1      29.496  22.708  29.992  0.00  0.00    +0.000 A 
ATOM      6  N   UNL     1      28.540  22.355  30.901  0.00  0.00    +0.000 NA
ATOM      7  C   UNL     1      27.272  22.112  30.488  0.00  0.00    +0.000 A 
ATOM      8  N   UNL     1      27.018  22.233  29.190  0.00  0.00    +0.000 NA
ATOM      9  C   UNL     1      27.930  22.575  28.277  0.00  0.00    +0.000 A 
ATOM     10  N   UNL     1      27.508  22.679  26.895  0.00  0.00    +0.000 NA
ATOM     11  C   UNL     1      29.256  22.836  28.656  0.00  0.00    +0.000 A 
ENDROOT
BRANCH   1  15
ATOM     12  C   UNL     1      29.984  23.942  23.731  0.00  0.00    +0.000 A 
ATOM     13  C   UNL     1      30.279  22.676  24.162  0.00  0.00    +0.000 A 
ATOM     14  C   UNL     1      30.400  22.389  25.505  0.00  0.00    +0.000 A 
ATOM     15  C   UNL     1      30.220  23.395  26.411  0.00  0.00    +0.000 A 
ATOM     16  C   UNL     1      29.926  24.657  25.982  0.00  0.00    +0.000 A 
ATOM     17  C   UNL     1      29.806  24.939  24.651  0.00  0.00    +0.000 A 
BRANCH  12  19
ATOM     18  C   UNL     1      28.616  24.037  21.716  0.00  0.00    +0.000 C 
ATOM     19  O   UNL     1      29.871  24.183  22.370  0.00  0.00    +0.000 OA
ENDBRANCH  12  19
BRANCH  17  20
ATOM     20  O   UNL     1      29.500  26.239  24.196  0.00  0.00    +0.000 OA
ATOM     21  C   UNL     1      28.176  26.694  24.352  0.00  0.00    +0.000 C 
ENDBRANCH  17  20
ENDBRANCH   1  15
TORSDOF 3
ENDMDL
MODEL 9
REMARK VINA RESULT:      -5.4     33.388     34.507
REMARK  Name = 
REMARK  3 active torsions:
REMARK  status: ('A' for Active; 'I' for Inactive)
REMARK    1  A    between atoms: O_2  and  C_3
REMARK    2  A    between atoms: C_6  and  C_7
REMARK    3  A    between atoms: C_19  and  O_20
REMARK                            x       y       z     vdW  Elec       q    Type
REMARK                         _______ _______ _______ _____ _____    ______ ____
ROOT
ATOM      1  C   UNL     1      17.751  -9.783  26.638  0.00  0.00    +0.000 A 
ATOM      2  C   UNL     1      16.951 -10.215  25.609  0.00  0.00    +0.000 A 
ATOM      3  C   UNL     1      17.143  -9.996  24.124  0.00  0.00    +0.000 C 
ATOM      4  S   UNL     1      15.705 -11.058  26.411  0.00  0.00    +0.000 S 
ATOM      5  C   UNL     1      16.223 -10.845  28.017  0.00  0.00    +0.000 A 
ATOM      6  N   UNL     1      15.718 -11.254  29.219  0.00  0.00    +0.000 NA
ATOM      7  C   UNL     1      16.364 -10.935  30.367  0.00  0.00    +0.000 A 
ATOM      8  N   UNL     1      17.480 -10.224  30.264  0.00  0.00    +0.000 NA
ATOM      9  C   UNL     1      17.999  -9.808  29.106  0.00  0.00    +0.000 A 
ATOM     10  N   UNL     1      19.232  -9.049  29.144  0.00  0.00    +0.000 NA
ATOM     11  C   UNL     1      17.368 -10.113  27.891  0.00  0.00    +0.000 A 
ENDROOT
BRANCH   1  15
ATOM     12  C   UNL     1      21.101  -7.411  25.648  0.00  0.00    +0.000 A 
ATOM     13  C   UNL     1      21.262  -8.763  25.803  0.00  0.00    +0.000 A 
ATOM     14  C   UNL     1      20.197  -9.575  26.135  0.00  0.00    +0.000 A 
ATOM     15  C   UNL     1      18.967  -9.007  26.310  0.00  0.00    +0.000 A 
ATOM     16  C   UNL     1      18.808  -7.660  26.155  0.00  0.00    +0.000 A 
ATOM     17  C   UNL     1      19.862  -6.859  25.825  0.00  0.00    +0.000 A 
BRANCH  12  19
ATOM     18  C   UNL     1      22.583  -6.482  23.951  0.00  0.00    +0.000 C 
ATOM     19  O   UNL     1      22.201  -6.635  25.312  0.00  0.00    +0.000 OA
ENDBRANCH  12  19
BRANCH  17  20
ATOM     20  O   UNL     1      19.708  -5.466  25.661  0.00  0.00    +0.000 OA
ATOM     21  C   UNL     1      18.889  -4.783  26.581  0.00  0.00    +0.000 C 
ENDBRANCH  17  20
ENDBRANCH   1  15
TORSDOF 3
ENDMDL
MODEL 10
REMARK VINA RESULT:      -5.3     20.589     21.989
REMARK  Name = 
REMARK  3 active torsions:
REMARK  status: ('A' for Active; 'I' for Inactive)
REMARK    1  A    between atoms: O_2  and  C_3
REMARK    2  A    between atoms: C_6  and  C_7
REMARK    3  A    between atoms: C_19  and  O_20
REMARK                            x       y       z     vdW  Elec       q    Type
REMARK                         _______ _______ _______ _____ _____    ______ ____
ROOT
ATOM      1  C   UNL     1      27.007   5.621  16.842  0.00  0.00    +0.000 A 
ATOM      2  C   UNL     1      27.892   6.116  17.767  0.00  0.00    +0.000 A 
ATOM      3  C   UNL     1      27.930   5.851  19.257  0.00  0.00    +0.000 C 
ATOM      4  S   UNL     1      28.934   7.086  16.830  0.00  0.00    +0.000 S 
ATOM      5  C   UNL     1      28.228   6.844  15.301  0.00  0.00    +0.000 A 
ATOM      6  N   UNL     1      28.533   7.308  14.053  0.00  0.00    +0.000 NA
ATOM      7  C   UNL     1      27.780   6.933  12.990  0.00  0.00    +0.000 A 
ATOM      8  N   UNL     1      26.761   6.114  13.221  0.00  0.00    +0.000 NA
ATOM      9  C   UNL     1      26.437   5.644  14.428  0.00  0.00    +0.000 A 
ATOM     10  N   UNL     1      25.304   4.747  14.530  0.00  0.00    +0.000 NA
ATOM     11  C   UNL     1      27.186   6.003  15.559  0.00  0.00    +0.000 A 
ENDROOT
BRANCH   1  15
ATOM     12  C   UNL     1      24.058   2.857  18.065  0.00  0.00    +0.000 A 
ATOM     13  C   UNL     1      23.798   4.199  18.162  0.00  0.00    +0.000 A 
ATOM     14  C   UNL     1      24.735   5.137  17.783  0.00  0.00    +0.000 A 
ATOM     15  C   UNL     1      25.940   4.706  17.304  0.00  0.00    +0.000 A 
ATOM     16  C   UNL     1      26.199   3.370  17.208  0.00  0.00    +0.000 A 
ATOM     17  C   UNL     1      25.270   2.443  17.583  0.00  0.00    +0.000 A 
BRANCH  12  19
ATOM     18  C   UNL     1      21.876   1.830  17.718  0.00  0.00    +0.000 C 
ATOM     19  O   UNL     1      23.085   1.951  18.458  0.00  0.00    +0.000 OA
ENDBRANCH  12  19
BRANCH  17  20
ATOM     20  O   UNL     1      25.526   1.059  17.486  0.00  0.00    +0.000 OA
ATOM     21  C   UNL     1      26.780   0.657  16.985  0.00  0.00    +0.000 C 
ENDBRANCH  17  20
ENDBRANCH   1  15
TORSDOF 3
ENDMDL
