MODEL 1
REMARK VINA RESULT:      -6.5      0.000      0.000
REMARK  Name = 
REMARK  3 active torsions:
REMARK  status: ('A' for Active; 'I' for Inactive)
REMARK    1  A    between atoms: N_2  and  C_4
REMARK    2  A    between atoms: C_7  and  N_8
REMARK    3  A    between atoms: N_9  and  C_10
REMARK                            x       y       z     vdW  Elec       q    Type
REMARK                         _______ _______ _______ _____ _____    ______ ____
ROOT
ATOM      1  N   UNL     1      17.258  10.393  37.526  0.00  0.00    +0.000 NA
ATOM      2  N   UNL     1      16.490  11.391  37.558  0.00  0.00    +0.000 NA
ENDROOT
BRANCH   2   3
ATOM      3  C   UNL     1      15.090  11.343  37.571  0.00  0.00    +0.000 A 
ATOM      4  C   UNL     1      14.449  10.795  38.671  0.00  0.00    +0.000 A 
ATOM      5  C   UNL     1      13.069  10.738  38.704  0.00  0.00    +0.000 A 
ATOM      6  C   UNL     1      12.281  11.213  37.673  0.00  0.00    +0.000 A 
ATOM      7  N   UNL     1      10.848  11.144  37.729  0.00  0.00    +0.000 NA
ATOM      8  C   UNL     1      12.945  11.755  36.589  0.00  0.00    +0.000 A 
ATOM      9  C   UNL     1      14.321  11.823  36.531  0.00  0.00    +0.000 A 
ATOM     10 CL   UNL     1      15.165  12.510  35.160  0.00  0.00    +0.000 Cl
ENDBRANCH   2   3
BRANCH   1  14
ATOM     11  C   UNL     1      21.462  10.984  37.558  0.00  0.00    +0.000 A 
ATOM     12  C   UNL     1      20.886   9.923  36.891  0.00  0.00    +0.000 A 
ATOM     13  C   UNL     1      19.525   9.698  36.858  0.00  0.00    +0.000 A 
ATOM     14  C   UNL     1      18.667  10.561  37.516  0.00  0.00    +0.000 A 
ATOM     15  C   UNL     1      19.241  11.617  38.180  0.00  0.00    +0.000 A 
ATOM     16  C   UNL     1      20.590  11.844  38.216  0.00  0.00    +0.000 A 
BRANCH  11  18
ATOM     17  C   UNL     1      23.626  10.692  36.437  0.00  0.00    +0.000 C 
ATOM     18  N   UNL     1      22.863  11.176  37.564  0.00  0.00    +0.000 N 
ATOM     19  C   UNL     1      23.549  11.834  38.653  0.00  0.00    +0.000 C 
ENDBRANCH  11  18
ENDBRANCH   1  14
TORSDOF 3
ENDMDL
MODEL 2
REMARK VINA RESULT:      -6.4      3.780      6.990
REMARK  Name = 
REMARK  3 active torsions:
REMARK  status: ('A' for Active; 'I' for Inactive)
REMARK    1  A    between atoms: N_2  and  C_4
REMARK    2  A    between atoms: C_7  and  N_8
REMARK    3  A    between atoms: N_9  and  C_10
REMARK                            x       y       z     vdW  Elec       q    Type
REMARK                         _______ _______ _______ _____ _____    ______ ____
ROOT
ATOM      1  N   UNL     1      16.922  10.011  36.023  0.00  0.00    +0.000 NA
ATOM      2  N   UNL     1      17.385  10.604  37.034  0.00  0.00    +0.000 NA
ENDROOT
BRANCH   2   3
ATOM      3  C   UNL     1      17.963   9.985  38.150  0.00  0.00    +0.000 A 
ATOM      4  C   UNL     1      17.193   9.806  39.290  0.00  0.00    +0.000 A 
ATOM      5  C   UNL     1      17.743   9.199  40.402  0.00  0.00    +0.000 A 
ATOM      6  C   UNL     1      19.050   8.751  40.433  0.00  0.00    +0.000 A 
ATOM      7  N   UNL     1      19.601   8.122  41.600  0.00  0.00    +0.000 NA
ATOM      8  C   UNL     1      19.796   8.941  39.285  0.00  0.00    +0.000 A 
ATOM      9  C   UNL     1      19.270   9.545  38.162  0.00  0.00    +0.000 A 
ATOM     10 CL   UNL     1      20.211   9.786  36.705  0.00  0.00    +0.000 Cl
ENDBRANCH   2   3
BRANCH   1  14
ATOM     11  C   UNL     1      15.167  12.253  32.875  0.00  0.00    +0.000 A 
ATOM     12  C   UNL     1      16.142  11.307  32.633  0.00  0.00    +0.000 A 
ATOM     13  C   UNL     1      16.735  10.558  33.629  0.00  0.00    +0.000 A 
ATOM     14  C   UNL     1      16.357  10.742  34.947  0.00  0.00    +0.000 A 
ATOM     15  C   UNL     1      15.387  11.684  35.187  0.00  0.00    +0.000 A 
ATOM     16  C   UNL     1      14.796  12.429  34.203  0.00  0.00    +0.000 A 
BRANCH  11  18
ATOM     17  C   UNL     1      13.717  14.100  32.161  0.00  0.00    +0.000 C 
ATOM     18  N   UNL     1      14.586  12.996  31.821  0.00  0.00    +0.000 N 
ATOM     19  C   UNL     1      14.830  12.689  30.431  0.00  0.00    +0.000 C 
ENDBRANCH  11  18
ENDBRANCH   1  14
TORSDOF 3
ENDMDL
MODEL 3
REMARK VINA RESULT:      -6.4      3.662      4.901
REMARK  Name = 
REMARK  3 active torsions:
REMARK  status: ('A' for Active; 'I' for Inactive)
REMARK    1  A    between atoms: N_2  and  C_4
REMARK    2  A    between atoms: C_7  and  N_8
REMARK    3  A    between atoms: N_9  and  C_10
REMARK                            x       y       z     vdW  Elec       q    Type
REMARK                         _______ _______ _______ _____ _____    ______ ____
ROOT
ATOM      1  N   UNL     1      17.343  11.140  35.696  0.00  0.00    +0.000 NA
ATOM      2  N   UNL     1      16.339  10.753  35.041  0.00  0.00    +0.000 NA
ENDROOT
BRANCH   2   3
ATOM      3  C   UNL     1      15.878  11.318  33.844  0.00  0.00    +0.000 A 
ATOM      4  C   UNL     1      16.376  10.838  32.643  0.00  0.00    +0.000 A 
ATOM      5  C   UNL     1      15.935  11.380  31.451  0.00  0.00    +0.000 A 
ATOM      6  C   UNL     1      15.001  12.397  31.398  0.00  0.00    +0.000 A 
ATOM      7  N   UNL     1      14.556  12.945  30.149  0.00  0.00    +0.000 NA
ATOM      8  C   UNL     1      14.520  12.857  32.610  0.00  0.00    +0.000 A 
ATOM      9  C   UNL     1      14.944  12.333  33.813  0.00  0.00    +0.000 A 
ATOM     10 CL   UNL     1      14.337  12.912  35.349  0.00  0.00    +0.000 Cl
ENDBRANCH   2   3
BRANCH   1  14
ATOM     11  C   UNL     1      18.372   9.228  39.344  0.00  0.00    +0.000 A 
ATOM     12  C   UNL     1      19.229   9.232  38.263  0.00  0.00    +0.000 A 
ATOM     13  C   UNL     1      18.931   9.843  37.062  0.00  0.00    +0.000 A 
ATOM     14  C   UNL     1      17.719  10.491  36.901  0.00  0.00    +0.000 A 
ATOM     15  C   UNL     1      16.865  10.486  37.977  0.00  0.00    +0.000 A 
ATOM     16  C   UNL     1      17.157   9.882  39.170  0.00  0.00    +0.000 A 
BRANCH  11  18
ATOM     17  C   UNL     1      18.436   9.274  41.797  0.00  0.00    +0.000 C 
ATOM     18  N   UNL     1      18.720   8.589  40.557  0.00  0.00    +0.000 N 
ATOM     19  C   UNL     1      19.346   7.287  40.594  0.00  0.00    +0.000 C 
ENDBRANCH  11  18
ENDBRANCH   1  14
TORSDOF 3
ENDMDL
MODEL 4
REMARK VINA RESULT:      -6.2     22.161     23.586
REMARK  Name = 
REMARK  3 active torsions:
REMARK  status: ('A' for Active; 'I' for Inactive)
REMARK    1  A    between atoms: N_2  and  C_4
REMARK    2  A    between atoms: C_7  and  N_8
REMARK    3  A    between atoms: N_9  and  C_10
REMARK                            x       y       z     vdW  Elec       q    Type
REMARK                         _______ _______ _______ _____ _____    ______ ____
ROOT
ATOM      1  N   UNL     1      22.379  -7.538  23.954  0.00  0.00    +0.000 NA
ATOM      2  N   UNL     1      22.120  -7.247  25.152  0.00  0.00    +0.000 NA
ENDROOT
BRANCH   2   3
ATOM      3  C   UNL     1      20.839  -7.078  25.693  0.00  0.00    +0.000 A 
ATOM      4  C   UNL     1      20.259  -5.819  25.657  0.00  0.00    +0.000 A 
ATOM      5  C   UNL     1      18.996  -5.630  26.184  0.00  0.00    +0.000 A 
ATOM      6  C   UNL     1      18.269  -6.656  26.757  0.00  0.00    +0.000 A 
ATOM      7  N   UNL     1      16.958  -6.437  27.299  0.00  0.00    +0.000 NA
ATOM      8  C   UNL     1      18.870  -7.901  26.779  0.00  0.00    +0.000 A 
ATOM      9  C   UNL     1      20.129  -8.116  26.260  0.00  0.00    +0.000 A 
ATOM     10 CL   UNL     1      20.893  -9.691  26.286  0.00  0.00    +0.000 Cl
ENDBRANCH   2   3
BRANCH   1  14
ATOM     11  C   UNL     1      26.365  -8.073  22.594  0.00  0.00    +0.000 A 
ATOM     12  C   UNL     1      25.991  -6.959  23.316  0.00  0.00    +0.000 A 
ATOM     13  C   UNL     1      24.707  -6.750  23.775  0.00  0.00    +0.000 A 
ATOM     14  C   UNL     1      23.721  -7.684  23.515  0.00  0.00    +0.000 A 
ATOM     15  C   UNL     1      24.094  -8.794  22.795  0.00  0.00    +0.000 A 
ATOM     16  C   UNL     1      25.366  -9.005  22.338  0.00  0.00    +0.000 A 
BRANCH  11  18
ATOM     17  C   UNL     1      28.475  -7.068  21.842  0.00  0.00    +0.000 C 
ATOM     18  N   UNL     1      27.695  -8.246  22.144  0.00  0.00    +0.000 N 
ATOM     19  C   UNL     1      28.291  -9.552  21.978  0.00  0.00    +0.000 C 
ENDBRANCH  11  18
ENDBRANCH   1  14
TORSDOF 3
ENDMDL
MODEL 5
REMARK VINA RESULT:      -5.9      3.783      5.456
REMARK  Name = 
REMARK  3 active torsions:
REMARK  status: ('A' for Active; 'I' for Inactive)
REMARK    1  A    between atoms: N_2  and  C_4
REMARK    2  A    between atoms: C_7  and  N_8
REMARK    3  A    between atoms: N_9  and  C_10
REMARK                            x       y       z     vdW  Elec       q    Type
REMARK                         _______ _______ _______ _____ _____    ______ ____
ROOT
ATOM      1  N   UNL     1      17.428  10.095  37.791  0.00  0.00    +0.000 NA
ATOM      2  N   UNL     1      16.428  10.597  37.214  0.00  0.00    +0.000 NA
ENDROOT
BRANCH   2   3
ATOM      3  C   UNL     1      16.320  10.853  35.841  0.00  0.00    +0.000 A 
ATOM      4  C   UNL     1      17.221  10.250  34.975  0.00  0.00    +0.000 A 
ATOM      5  C   UNL     1      17.133  10.489  33.618  0.00  0.00    +0.000 A 
ATOM      6  C   UNL     1      16.170  11.314  33.069  0.00  0.00    +0.000 A 
ATOM      7  N   UNL     1      16.096  11.548  31.655  0.00  0.00    +0.000 NA
ATOM      8  C   UNL     1      15.284  11.902  33.953  0.00  0.00    +0.000 A 
ATOM      9  C   UNL     1      15.351  11.681  35.313  0.00  0.00    +0.000 A 
ATOM     10 CL   UNL     1      14.231  12.422  36.435  0.00  0.00    +0.000 Cl
ENDBRANCH   2   3
BRANCH   1  14
ATOM     11  C   UNL     1      17.313   9.451  41.986  0.00  0.00    +0.000 A 
ATOM     12  C   UNL     1      18.507   9.576  41.306  0.00  0.00    +0.000 A 
ATOM     13  C   UNL     1      18.585   9.786  39.944  0.00  0.00    +0.000 A 
ATOM     14  C   UNL     1      17.427   9.881  39.194  0.00  0.00    +0.000 A 
ATOM     15  C   UNL     1      16.238   9.756  39.871  0.00  0.00    +0.000 A 
ATOM     16  C   UNL     1      16.156   9.548  41.221  0.00  0.00    +0.000 A 
BRANCH  11  18
ATOM     17  C   UNL     1      16.275   8.348  43.917  0.00  0.00    +0.000 C 
ATOM     18  N   UNL     1      17.281   9.238  43.383  0.00  0.00    +0.000 N 
ATOM     19  C   UNL     1      18.212   9.876  44.286  0.00  0.00    +0.000 C 
ENDBRANCH  11  18
ENDBRANCH   1  14
TORSDOF 3
ENDMDL
MODEL 6
REMARK VINA RESULT:      -5.9      3.487      4.299
REMARK  Name = 
REMARK  3 active torsions:
REMARK  status: ('A' for Active; 'I' for Inactive)
REMARK    1  A    between atoms: N_2  and  C_4
REMARK    2  A    between atoms: C_7  and  N_8
REMARK    3  A    between atoms: N_9  and  C_10
REMARK                            x       y       z     vdW  Elec       q    Type
REMARK                         _______ _______ _______ _____ _____    ______ ____
ROOT
ATOM      1  N   UNL     1      18.132   9.940  35.636  0.00  0.00    +0.000 NA
ATOM      2  N   UNL     1      17.233  10.806  35.467  0.00  0.00    +0.000 NA
ENDROOT
BRANCH   2   3
ATOM      3  C   UNL     1      16.550  11.050  34.268  0.00  0.00    +0.000 A 
ATOM      4  C   UNL     1      16.947  10.376  33.122  0.00  0.00    +0.000 A 
ATOM      5  C   UNL     1      16.288  10.602  31.930  0.00  0.00    +0.000 A 
ATOM      6  C   UNL     1      15.229  11.483  31.822  0.00  0.00    +0.000 A 
ATOM      7  N   UNL     1      14.557  11.702  30.572  0.00  0.00    +0.000 NA
ATOM      8  C   UNL     1      14.852  12.141  32.978  0.00  0.00    +0.000 A 
ATOM      9  C   UNL     1      15.494  11.933  34.181  0.00  0.00    +0.000 A 
ATOM     10 CL   UNL     1      15.020  12.763  35.648  0.00  0.00    +0.000 Cl
ENDBRANCH   2   3
BRANCH   1  14
ATOM     11  C   UNL     1      20.103   9.478  39.368  0.00  0.00    +0.000 A 
ATOM     12  C   UNL     1      18.731   9.397  39.260  0.00  0.00    +0.000 A 
ATOM     13  C   UNL     1      18.054   9.541  38.066  0.00  0.00    +0.000 A 
ATOM     14  C   UNL     1      18.759   9.781  36.900  0.00  0.00    +0.000 A 
ATOM     15  C   UNL     1      20.126   9.862  37.007  0.00  0.00    +0.000 A 
ATOM     16  C   UNL     1      20.800   9.719  38.189  0.00  0.00    +0.000 A 
BRANCH  11  18
ATOM     17  C   UNL     1      20.484   8.130  41.384  0.00  0.00    +0.000 C 
ATOM     18  N   UNL     1      20.755   9.322  40.613  0.00  0.00    +0.000 N 
ATOM     19  C   UNL     1      21.673  10.309  41.135  0.00  0.00    +0.000 C 
ENDBRANCH  11  18
ENDBRANCH   1  14
TORSDOF 3
ENDMDL
MODEL 7
REMARK VINA RESULT:      -5.9     19.193     20.968
REMARK  Name = 
REMARK  3 active torsions:
REMARK  status: ('A' for Active; 'I' for Inactive)
REMARK    1  A    between atoms: N_2  and  C_4
REMARK    2  A    between atoms: C_7  and  N_8
REMARK    3  A    between atoms: N_9  and  C_10
REMARK                            x       y       z     vdW  Elec       q    Type
REMARK                         _______ _______ _______ _____ _____    ______ ____
ROOT
ATOM      1  N   UNL     1      30.926  21.829  27.418  0.00  0.00    +0.000 NA
ATOM      2  N   UNL     1      30.924  22.441  28.519  0.00  0.00    +0.000 NA
ENDROOT
BRANCH   2   3
ATOM      3  C   UNL     1      31.708  22.117  29.634  0.00  0.00    +0.000 A 
ATOM      4  C   UNL     1      33.064  21.886  29.456  0.00  0.00    +0.000 A 
ATOM      5  C   UNL     1      33.854  21.565  30.542  0.00  0.00    +0.000 A 
ATOM      6  C   UNL     1      33.349  21.462  31.824  0.00  0.00    +0.000 A 
ATOM      7  N   UNL     1      34.190  21.128  32.939  0.00  0.00    +0.000 NA
ATOM      8  C   UNL     1      31.995  21.697  31.975  0.00  0.00    +0.000 A 
ATOM      9  C   UNL     1      31.184  22.019  30.907  0.00  0.00    +0.000 A 
ATOM     10 CL   UNL     1      29.470  22.318  31.094  0.00  0.00    +0.000 Cl
ENDBRANCH   2   3
BRANCH   1  14
ATOM     11  C   UNL     1      28.329  23.074  24.299  0.00  0.00    +0.000 A 
ATOM     12  C   UNL     1      29.685  22.929  24.096  0.00  0.00    +0.000 A 
ATOM     13  C   UNL     1      30.561  22.526  25.084  0.00  0.00    +0.000 A 
ATOM     14  C   UNL     1      30.086  22.247  26.353  0.00  0.00    +0.000 A 
ATOM     15  C   UNL     1      28.736  22.392  26.555  0.00  0.00    +0.000 A 
ATOM     16  C   UNL     1      27.864  22.791  25.578  0.00  0.00    +0.000 A 
BRANCH  11  18
ATOM     17  C   UNL     1      28.061  23.959  22.025  0.00  0.00    +0.000 C 
ATOM     18  N   UNL     1      27.468  23.489  23.256  0.00  0.00    +0.000 N 
ATOM     19  C   UNL     1      26.029  23.459  23.383  0.00  0.00    +0.000 C 
ENDBRANCH  11  18
ENDBRANCH   1  14
TORSDOF 3
ENDMDL
MODEL 8
REMARK VINA RESULT:      -5.9     17.978     19.748
REMARK  Name = 
REMARK  3 active torsions:
REMARK  status: ('A' for Active; 'I' for Inactive)
REMARK    1  A    between atoms: N_2  and  C_4
REMARK    2  A    between atoms: C_7  and  N_8
REMARK    3  A    between atoms: N_9  and  C_10
REMARK                            x       y       z     vdW  Elec       q    Type
REMARK                         _______ _______ _______ _____ _____    ______ ____
ROOT
ATOM      1  N   UNL     1      29.302  23.289  27.726  0.00  0.00    +0.000 NA
ATOM      2  N   UNL     1      28.922  22.447  26.869  0.00  0.00    +0.000 NA
ENDROOT
BRANCH   2   3
ATOM      3  C   UNL     1      28.387  22.748  25.610  0.00  0.00    +0.000 A 
ATOM      4  C   UNL     1      27.016  22.922  25.490  0.00  0.00    +0.000 A 
ATOM      5  C   UNL     1      26.467  23.219  24.258  0.00  0.00    +0.000 A 
ATOM      6  C   UNL     1      27.234  23.355  23.116  0.00  0.00    +0.000 A 
ATOM      7  N   UNL     1      26.642  23.665  21.846  0.00  0.00    +0.000 NA
ATOM      8  C   UNL     1      28.597  23.177  23.263  0.00  0.00    +0.000 A 
ATOM      9  C   UNL     1      29.170  22.880  24.482  0.00  0.00    +0.000 A 
ATOM     10 CL   UNL     1      30.895  22.654  24.672  0.00  0.00    +0.000 Cl
ENDBRANCH   2   3
BRANCH   1  14
ATOM     11  C   UNL     1      30.980  22.014  31.411  0.00  0.00    +0.000 A 
ATOM     12  C   UNL     1      29.661  22.404  31.314  0.00  0.00    +0.000 A 
ATOM     13  C   UNL     1      29.079  22.824  30.135  0.00  0.00    +0.000 A 
ATOM     14  C   UNL     1      29.830  22.868  28.974  0.00  0.00    +0.000 A 
ATOM     15  C   UNL     1      31.144  22.480  29.071  0.00  0.00    +0.000 A 
ATOM     16  C   UNL     1      31.725  22.063  30.238  0.00  0.00    +0.000 A 
BRANCH  11  18
ATOM     17  C   UNL     1      32.972  21.498  32.750  0.00  0.00    +0.000 C 
ATOM     18  N   UNL     1      31.534  21.589  32.641  0.00  0.00    +0.000 N 
ATOM     19  C   UNL     1      30.714  21.247  33.781  0.00  0.00    +0.000 C 
ENDBRANCH  11  18
ENDBRANCH   1  14
TORSDOF 3
ENDMDL
MODEL 9
REMARK VINA RESULT:      -5.8      2.430      8.234
REMARK  Name = 
REMARK  3 active torsions:
REMARK  status: ('A' for Active; 'I' for Inactive)
REMARK    1  A    between atoms: N_2  and  C_4
REMARK    2  A    between atoms: C_7  and  N_8
REMARK    3  A    between atoms: N_9  and  C_10
REMARK                            x       y       z     vdW  Elec       q    Type
REMARK                         _______ _______ _______ _____ _____    ______ ____
ROOT
ATOM      1  N   UNL     1      19.651  10.260  38.081  0.00  0.00    +0.000 NA
ATOM      2  N   UNL     1      20.462  10.799  37.282  0.00  0.00    +0.000 NA
ENDROOT
BRANCH   2   3
ATOM      3  C   UNL     1      21.848  10.593  37.263  0.00  0.00    +0.000 A 
ATOM      4  C   UNL     1      22.354   9.509  36.561  0.00  0.00    +0.000 A 
ATOM      5  C   UNL     1      23.717   9.288  36.530  0.00  0.00    +0.000 A 
ATOM      6  C   UNL     1      24.619  10.112  37.175  0.00  0.00    +0.000 A 
ATOM      7  N   UNL     1      26.032   9.863  37.128  0.00  0.00    +0.000 NA
ATOM      8  C   UNL     1      24.089  11.185  37.866  0.00  0.00    +0.000 A 
ATOM      9  C   UNL     1      22.732  11.428  37.914  0.00  0.00    +0.000 A 
ATOM     10 CL   UNL     1      22.058  12.787  38.788  0.00  0.00    +0.000 Cl
ENDBRANCH   2   3
BRANCH   1  14
ATOM     11  C   UNL     1      15.482  11.050  37.955  0.00  0.00    +0.000 A 
ATOM     12  C   UNL     1      16.341  11.550  36.999  0.00  0.00    +0.000 A 
ATOM     13  C   UNL     1      17.701  11.315  37.006  0.00  0.00    +0.000 A 
ATOM     14  C   UNL     1      18.262  10.544  38.008  0.00  0.00    +0.000 A 
ATOM     15  C   UNL     1      17.406  10.047  38.960  0.00  0.00    +0.000 A 
ATOM     16  C   UNL     1      16.057  10.277  38.957  0.00  0.00    +0.000 A 
BRANCH  11  18
ATOM     17  C   UNL     1      13.607  12.241  36.910  0.00  0.00    +0.000 C 
ATOM     18  N   UNL     1      14.093  11.316  37.908  0.00  0.00    +0.000 N 
ATOM     19  C   UNL     1      13.156  10.699  38.818  0.00  0.00    +0.000 C 
ENDBRANCH  11  18
ENDBRANCH   1  14
TORSDOF 3
ENDMDL
MODEL 10
REMARK VINA RESULT:      -5.8     18.241     20.601
REMARK  Name = 
REMARK  3 active torsions:
REMARK  status: ('A' for Active; 'I' for Inactive)
REMARK    1  A    between atoms: N_2  and  C_4
REMARK    2  A    between atoms: C_7  and  N_8
REMARK    3  A    between atoms: N_9  and  C_10
REMARK                            x       y       z     vdW  Elec       q    Type
REMARK                         _______ _______ _______ _____ _____    ______ ____
ROOT
ATOM      1  N   UNL     1      32.772  -0.039  34.906  0.00  0.00    +0.000 NA
ATOM      2  N   UNL     1      33.795   0.685  34.779  0.00  0.00    +0.000 NA
ENDROOT
BRANCH   2   3
ATOM      3  C   UNL     1      33.875   2.049  35.090  0.00  0.00    +0.000 A 
ATOM      4  C   UNL     1      33.961   2.427  36.421  0.00  0.00    +0.000 A 
ATOM      5  C   UNL     1      34.040   3.766  36.750  0.00  0.00    +0.000 A 
ATOM      6  C   UNL     1      34.041   4.767  35.797  0.00  0.00    +0.000 A 
ATOM      7  N   UNL     1      34.125   6.153  36.161  0.00  0.00    +0.000 NA
ATOM      8  C   UNL     1      33.956   4.363  34.478  0.00  0.00    +0.000 A 
ATOM      9  C   UNL     1      33.874   3.033  34.123  0.00  0.00    +0.000 A 
ATOM     10 CL   UNL     1      33.767   2.516  32.454  0.00  0.00    +0.000 Cl
ENDBRANCH   2   3
BRANCH   1  14
ATOM     11  C   UNL     1      32.799  -4.173  33.942  0.00  0.00    +0.000 A 
ATOM     12  C   UNL     1      33.587  -3.267  33.264  0.00  0.00    +0.000 A 
ATOM     13  C   UNL     1      33.607  -1.917  33.548  0.00  0.00    +0.000 A 
ATOM     14  C   UNL     1      32.805  -1.414  34.557  0.00  0.00    +0.000 A 
ATOM     15  C   UNL     1      32.020  -2.316  35.233  0.00  0.00    +0.000 A 
ATOM     16  C   UNL     1      31.998  -3.655  34.954  0.00  0.00    +0.000 A 
BRANCH  11  18
ATOM     17  C   UNL     1      33.868  -6.371  34.162  0.00  0.00    +0.000 C 
ATOM     18  N   UNL     1      32.812  -5.549  33.618  0.00  0.00    +0.000 N 
ATOM     19  C   UNL     1      31.813  -6.153  32.765  0.00  0.00    +0.000 C 
ENDBRANCH  11  18
ENDBRANCH   1  14
TORSDOF 3
ENDMDL
