MODEL 1
REMARK VINA RESULT:      -6.9      0.000      0.000
REMARK  Name = 
REMARK  3 active torsions:
REMARK  status: ('A' for Active; 'I' for Inactive)
REMARK    1  A    between atoms: C_2  and  C_3
REMARK    2  A    between atoms: C_3  and  C_4
REMARK    3  A    between atoms: C_6  and  C_7
REMARK                            x       y       z     vdW  Elec       q    Type
REMARK                         _______ _______ _______ _____ _____    ______ ____
ROOT
ATOM      1  C   UNL     1      17.386   9.508  40.485  0.00  0.00    +0.000 A 
ATOM      2  C   UNL     1      16.634  10.000  39.444  0.00  0.00    +0.000 A 
ATOM      3  C   UNL     1      17.215  10.546  38.320  0.00  0.00    +0.000 A 
ATOM      4  C   UNL     1      18.588  10.597  38.249  0.00  0.00    +0.000 A 
ATOM      5  C   UNL     1      19.345  10.107  39.289  0.00  0.00    +0.000 A 
ATOM      6  C   UNL     1      18.744   9.567  40.396  0.00  0.00    +0.000 A 
ATOM      7  O   UNL     1      19.585   9.090  41.411  0.00  0.00    +0.000 OA
ENDROOT
BRANCH   3   8
ATOM      8  C   UNL     1      16.375  11.049  37.240  0.00  0.00    +0.000 A 
ATOM      9  N   UNL     1      15.249  11.818  37.341  0.00  0.00    +0.000 NA
ATOM     10  O   UNL     1      14.783  12.073  36.167  0.00  0.00    +0.000 OA
ATOM     11  C   UNL     1      15.519  11.525  35.219  0.00  0.00    +0.000 A 
ATOM     12  C   UNL     1      15.423  11.521  33.833  0.00  0.00    +0.000 A 
ATOM     13  C   UNL     1      16.363  10.843  33.060  0.00  0.00    +0.000 A 
ATOM     14  O   UNL     1      16.275  10.832  31.665  0.00  0.00    +0.000 OA
ATOM     15  C   UNL     1      17.377  10.189  33.722  0.00  0.00    +0.000 A 
ATOM     16  C   UNL     1      17.454  10.207  35.105  0.00  0.00    +0.000 A 
ATOM     17  C   UNL     1      16.534  10.871  35.882  0.00  0.00    +0.000 A 
ENDBRANCH   3   8
BRANCH   1  18
ATOM     18  C   UNL     1      16.713   8.940  41.661  0.00  0.00    +0.000 C 
BRANCH  18  20
ATOM     19  C   UNL     1      16.940   6.569  41.201  0.00  0.00    +0.000 C 
ATOM     20  C   UNL     1      15.910   7.701  41.337  0.00  0.00    +0.000 C 
ENDBRANCH  18  20
ENDBRANCH   1  18
TORSDOF 3
ENDMDL
MODEL 2
REMARK VINA RESULT:      -6.9     17.786     19.761
REMARK  Name = 
REMARK  3 active torsions:
REMARK  status: ('A' for Active; 'I' for Inactive)
REMARK    1  A    between atoms: C_2  and  C_3
REMARK    2  A    between atoms: C_3  and  C_4
REMARK    3  A    between atoms: C_6  and  C_7
REMARK                            x       y       z     vdW  Elec       q    Type
REMARK                         _______ _______ _______ _____ _____    ______ ____
ROOT
ATOM      1  C   UNL     1      34.832   5.180  35.780  0.00  0.00    +0.000 A 
ATOM      2  C   UNL     1      34.785   3.921  35.228  0.00  0.00    +0.000 A 
ATOM      3  C   UNL     1      33.860   3.584  34.263  0.00  0.00    +0.000 A 
ATOM      4  C   UNL     1      32.964   4.541  33.848  0.00  0.00    +0.000 A 
ATOM      5  C   UNL     1      33.008   5.802  34.398  0.00  0.00    +0.000 A 
ATOM      6  C   UNL     1      33.937   6.115  35.356  0.00  0.00    +0.000 A 
ATOM      7  O   UNL     1      33.916   7.420  35.865  0.00  0.00    +0.000 OA
ENDROOT
BRANCH   3   8
ATOM      8  C   UNL     1      33.854   2.238  33.704  0.00  0.00    +0.000 A 
ATOM      9  N   UNL     1      34.077   1.867  32.407  0.00  0.00    +0.000 NA
ATOM     10  O   UNL     1      33.999   0.585  32.296  0.00  0.00    +0.000 OA
ATOM     11  C   UNL     1      33.729   0.009  33.451  0.00  0.00    +0.000 A 
ATOM     12  C   UNL     1      33.554  -1.317  33.828  0.00  0.00    +0.000 A 
ATOM     13  C   UNL     1      33.270  -1.646  35.151  0.00  0.00    +0.000 A 
ATOM     14  O   UNL     1      33.091  -2.976  35.541  0.00  0.00    +0.000 OA
ATOM     15  C   UNL     1      33.175  -0.613  36.056  0.00  0.00    +0.000 A 
ATOM     16  C   UNL     1      33.354   0.702  35.660  0.00  0.00    +0.000 A 
ATOM     17  C   UNL     1      33.633   1.044  34.357  0.00  0.00    +0.000 A 
ENDBRANCH   3   8
BRANCH   1  18
ATOM     18  C   UNL     1      35.837   5.484  36.808  0.00  0.00    +0.000 C 
BRANCH  18  20
ATOM     19  C   UNL     1      37.938   4.433  37.410  0.00  0.00    +0.000 C 
ATOM     20  C   UNL     1      37.254   5.278  36.324  0.00  0.00    +0.000 C 
ENDBRANCH  18  20
ENDBRANCH   1  18
TORSDOF 3
ENDMDL
MODEL 3
REMARK VINA RESULT:      -6.8      1.717      3.351
REMARK  Name = 
REMARK  3 active torsions:
REMARK  status: ('A' for Active; 'I' for Inactive)
REMARK    1  A    between atoms: C_2  and  C_3
REMARK    2  A    between atoms: C_3  and  C_4
REMARK    3  A    between atoms: C_6  and  C_7
REMARK                            x       y       z     vdW  Elec       q    Type
REMARK                         _______ _______ _______ _____ _____    ______ ____
ROOT
ATOM      1  C   UNL     1      19.505  11.567  38.401  0.00  0.00    +0.000 A 
ATOM      2  C   UNL     1      18.559  11.917  37.466  0.00  0.00    +0.000 A 
ATOM      3  C   UNL     1      17.325  11.305  37.414  0.00  0.00    +0.000 A 
ATOM      4  C   UNL     1      17.042  10.318  38.329  0.00  0.00    +0.000 A 
ATOM      5  C   UNL     1      17.987   9.965  39.267  0.00  0.00    +0.000 A 
ATOM      6  C   UNL     1      19.207  10.588  39.299  0.00  0.00    +0.000 A 
ATOM      7  O   UNL     1      20.111  10.171  40.284  0.00  0.00    +0.000 OA
ENDROOT
BRANCH   3   8
ATOM      8  C   UNL     1      16.354  11.715  36.408  0.00  0.00    +0.000 A 
ATOM      9  N   UNL     1      15.245  12.495  36.581  0.00  0.00    +0.000 NA
ATOM     10  O   UNL     1      14.635  12.649  35.456  0.00  0.00    +0.000 OA
ATOM     11  C   UNL     1      15.249  12.016  34.475  0.00  0.00    +0.000 A 
ATOM     12  C   UNL     1      14.981  11.890  33.118  0.00  0.00    +0.000 A 
ATOM     13  C   UNL     1      15.821  11.142  32.296  0.00  0.00    +0.000 A 
ATOM     14  O   UNL     1      15.560  11.008  30.930  0.00  0.00    +0.000 OA
ATOM     15  C   UNL     1      16.914  10.544  32.881  0.00  0.00    +0.000 A 
ATOM     16  C   UNL     1      17.163  10.683  34.236  0.00  0.00    +0.000 A 
ATOM     17  C   UNL     1      16.343  11.417  35.061  0.00  0.00    +0.000 A 
ENDBRANCH   3   8
BRANCH   1  18
ATOM     18  C   UNL     1      20.806  12.250  38.408  0.00  0.00    +0.000 C 
BRANCH  18  20
ATOM     19  C   UNL     1      20.990  14.061  40.011  0.00  0.00    +0.000 C 
ATOM     20  C   UNL     1      20.681  13.751  38.538  0.00  0.00    +0.000 C 
ENDBRANCH  18  20
ENDBRANCH   1  18
TORSDOF 3
ENDMDL
MODEL 4
REMARK VINA RESULT:      -6.8     18.693     20.855
REMARK  Name = 
REMARK  3 active torsions:
REMARK  status: ('A' for Active; 'I' for Inactive)
REMARK    1  A    between atoms: C_2  and  C_3
REMARK    2  A    between atoms: C_3  and  C_4
REMARK    3  A    between atoms: C_6  and  C_7
REMARK                            x       y       z     vdW  Elec       q    Type
REMARK                         _______ _______ _______ _____ _____    ______ ____
ROOT
ATOM      1  C   UNL     1      26.431  23.374  28.531  0.00  0.00    +0.000 A 
ATOM      2  C   UNL     1      26.529  23.166  27.175  0.00  0.00    +0.000 A 
ATOM      3  C   UNL     1      25.864  23.961  26.266  0.00  0.00    +0.000 A 
ATOM      4  C   UNL     1      25.083  24.989  26.740  0.00  0.00    +0.000 A 
ATOM      5  C   UNL     1      24.982  25.200  28.097  0.00  0.00    +0.000 A 
ATOM      6  C   UNL     1      25.653  24.397  28.981  0.00  0.00    +0.000 A 
ATOM      7  O   UNL     1      25.498  24.678  30.345  0.00  0.00    +0.000 OA
ENDROOT
BRANCH   3   8
ATOM      8  C   UNL     1      26.004  23.704  24.838  0.00  0.00    +0.000 A 
ATOM      9  N   UNL     1      25.109  23.096  24.003  0.00  0.00    +0.000 NA
ATOM     10  O   UNL     1      25.580  23.058  22.805  0.00  0.00    +0.000 OA
ATOM     11  C   UNL     1      26.776  23.610  22.731  0.00  0.00    +0.000 A 
ATOM     12  C   UNL     1      27.663  23.804  21.680  0.00  0.00    +0.000 A 
ATOM     13  C   UNL     1      28.888  24.433  21.894  0.00  0.00    +0.000 A 
ATOM     14  O   UNL     1      29.789  24.633  20.844  0.00  0.00    +0.000 OA
ATOM     15  C   UNL     1      29.173  24.849  23.175  0.00  0.00    +0.000 A 
ATOM     16  C   UNL     1      28.274  24.646  24.208  0.00  0.00    +0.000 A 
ATOM     17  C   UNL     1      27.061  24.026  24.013  0.00  0.00    +0.000 A 
ENDBRANCH   3   8
BRANCH   1  18
ATOM     18  C   UNL     1      27.159  22.494  29.454  0.00  0.00    +0.000 C 
BRANCH  18  20
ATOM     19  C   UNL     1      28.842  23.422  30.934  0.00  0.00    +0.000 C 
ATOM     20  C   UNL     1      28.633  22.818  29.536  0.00  0.00    +0.000 C 
ENDBRANCH  18  20
ENDBRANCH   1  18
TORSDOF 3
ENDMDL
MODEL 5
REMARK VINA RESULT:      -6.7     21.525     22.809
REMARK  Name = 
REMARK  3 active torsions:
REMARK  status: ('A' for Active; 'I' for Inactive)
REMARK    1  A    between atoms: C_2  and  C_3
REMARK    2  A    between atoms: C_3  and  C_4
REMARK    3  A    between atoms: C_6  and  C_7
REMARK                            x       y       z     vdW  Elec       q    Type
REMARK                         _______ _______ _______ _____ _____    ______ ____
ROOT
ATOM      1  C   UNL     1      33.899  -1.742  34.174  0.00  0.00    +0.000 A 
ATOM      2  C   UNL     1      33.320  -2.765  33.460  0.00  0.00    +0.000 A 
ATOM      3  C   UNL     1      33.595  -4.088  33.729  0.00  0.00    +0.000 A 
ATOM      4  C   UNL     1      34.475  -4.384  34.744  0.00  0.00    +0.000 A 
ATOM      5  C   UNL     1      35.057  -3.363  35.462  0.00  0.00    +0.000 A 
ATOM      6  C   UNL     1      34.768  -2.054  35.176  0.00  0.00    +0.000 A 
ATOM      7  O   UNL     1      35.402  -1.075  35.953  0.00  0.00    +0.000 OA
ENDROOT
BRANCH   3   8
ATOM      8  C   UNL     1      32.951  -5.136  32.947  0.00  0.00    +0.000 A 
ATOM      9  N   UNL     1      31.971  -6.001  33.349  0.00  0.00    +0.000 NA
ATOM     10  O   UNL     1      31.645  -6.780  32.376  0.00  0.00    +0.000 OA
ATOM     11  C   UNL     1      32.343  -6.522  31.287  0.00  0.00    +0.000 A 
ATOM     12  C   UNL     1      32.349  -7.079  30.014  0.00  0.00    +0.000 A 
ATOM     13  C   UNL     1      33.213  -6.596  29.034  0.00  0.00    +0.000 A 
ATOM     14  O   UNL     1      33.227  -7.149  27.750  0.00  0.00    +0.000 OA
ATOM     15  C   UNL     1      34.046  -5.555  29.377  0.00  0.00    +0.000 A 
ATOM     16  C   UNL     1      34.023  -5.014  30.652  0.00  0.00    +0.000 A 
ATOM     17  C   UNL     1      33.177  -5.480  31.632  0.00  0.00    +0.000 A 
ENDBRANCH   3   8
BRANCH   1  18
ATOM     18  C   UNL     1      33.573  -0.349  33.842  0.00  0.00    +0.000 C 
BRANCH  18  20
ATOM     19  C   UNL     1      34.026   1.662  32.563  0.00  0.00    +0.000 C 
ATOM     20  C   UNL     1      34.312   0.153  32.623  0.00  0.00    +0.000 C 
ENDBRANCH  18  20
ENDBRANCH   1  18
TORSDOF 3
ENDMDL
MODEL 6
REMARK VINA RESULT:      -6.7     18.829     20.872
REMARK  Name = 
REMARK  3 active torsions:
REMARK  status: ('A' for Active; 'I' for Inactive)
REMARK    1  A    between atoms: C_2  and  C_3
REMARK    2  A    between atoms: C_3  and  C_4
REMARK    3  A    between atoms: C_6  and  C_7
REMARK                            x       y       z     vdW  Elec       q    Type
REMARK                         _______ _______ _______ _____ _____    ______ ____
ROOT
ATOM      1  C   UNL     1      26.653  23.671  28.908  0.00  0.00    +0.000 A 
ATOM      2  C   UNL     1      26.439  23.719  27.550  0.00  0.00    +0.000 A 
ATOM      3  C   UNL     1      27.273  23.082  26.658  0.00  0.00    +0.000 A 
ATOM      4  C   UNL     1      28.348  22.379  27.150  0.00  0.00    +0.000 A 
ATOM      5  C   UNL     1      28.566  22.327  28.509  0.00  0.00    +0.000 A 
ATOM      6  C   UNL     1      27.722  22.970  29.377  0.00  0.00    +0.000 A 
ATOM      7  O   UNL     1      28.013  22.868  30.743  0.00  0.00    +0.000 OA
ENDROOT
BRANCH   3   8
ATOM      8  C   UNL     1      27.001  23.158  25.228  0.00  0.00    +0.000 A 
ATOM      9  N   UNL     1      25.844  22.833  24.575  0.00  0.00    +0.000 NA
ATOM     10  O   UNL     1      25.978  23.043  23.311  0.00  0.00    +0.000 OA
ATOM     11  C   UNL     1      27.178  23.504  23.015  0.00  0.00    +0.000 A 
ATOM     12  C   UNL     1      27.780  23.871  21.819  0.00  0.00    +0.000 A 
ATOM     13  C   UNL     1      29.094  24.336  21.800  0.00  0.00    +0.000 A 
ATOM     14  O   UNL     1      29.709  24.708  20.602  0.00  0.00    +0.000 OA
ATOM     15  C   UNL     1      29.756  24.416  23.004  0.00  0.00    +0.000 A 
ATOM     16  C   UNL     1      29.136  24.045  24.185  0.00  0.00    +0.000 A 
ATOM     17  C   UNL     1      27.841  23.583  24.221  0.00  0.00    +0.000 A 
ENDBRANCH   3   8
BRANCH   1  18
ATOM     18  C   UNL     1      25.733  24.372  29.813  0.00  0.00    +0.000 C 
BRANCH  18  20
ATOM     19  C   UNL     1      24.336  26.284  29.289  0.00  0.00    +0.000 C 
ATOM     20  C   UNL     1      25.773  25.874  29.644  0.00  0.00    +0.000 C 
ENDBRANCH  18  20
ENDBRANCH   1  18
TORSDOF 3
ENDMDL
MODEL 7
REMARK VINA RESULT:      -6.4     20.713     22.532
REMARK  Name = 
REMARK  3 active torsions:
REMARK  status: ('A' for Active; 'I' for Inactive)
REMARK    1  A    between atoms: C_2  and  C_3
REMARK    2  A    between atoms: C_3  and  C_4
REMARK    3  A    between atoms: C_6  and  C_7
REMARK                            x       y       z     vdW  Elec       q    Type
REMARK                         _______ _______ _______ _____ _____    ______ ____
ROOT
ATOM      1  C   UNL     1      18.845  -7.722  26.709  0.00  0.00    +0.000 A 
ATOM      2  C   UNL     1      20.068  -7.837  26.088  0.00  0.00    +0.000 A 
ATOM      3  C   UNL     1      20.715  -6.747  25.546  0.00  0.00    +0.000 A 
ATOM      4  C   UNL     1      20.112  -5.514  25.633  0.00  0.00    +0.000 A 
ATOM      5  C   UNL     1      18.888  -5.394  26.254  0.00  0.00    +0.000 A 
ATOM      6  C   UNL     1      18.264  -6.492  26.786  0.00  0.00    +0.000 A 
ATOM      7  O   UNL     1      17.022  -6.286  27.400  0.00  0.00    +0.000 OA
ENDROOT
BRANCH   3   8
ATOM      8  C   UNL     1      22.012  -6.919  24.903  0.00  0.00    +0.000 A 
ATOM      9  N   UNL     1      23.189  -6.297  25.211  0.00  0.00    +0.000 NA
ATOM     10  O   UNL     1      24.125  -6.714  24.429  0.00  0.00    +0.000 OA
ATOM     11  C   UNL     1      23.681  -7.609  23.568  0.00  0.00    +0.000 A 
ATOM     12  C   UNL     1      24.297  -8.330  22.553  0.00  0.00    +0.000 A 
ATOM     13  C   UNL     1      23.567  -9.231  21.781  0.00  0.00    +0.000 A 
ATOM     14  O   UNL     1      24.177  -9.961  20.757  0.00  0.00    +0.000 OA
ATOM     15  C   UNL     1      22.228  -9.375  22.067  0.00  0.00    +0.000 A 
ATOM     16  C   UNL     1      21.635  -8.647  23.084  0.00  0.00    +0.000 A 
ATOM     17  C   UNL     1      22.341  -7.752  23.855  0.00  0.00    +0.000 A 
ENDBRANCH   3   8
BRANCH   1  18
ATOM     18  C   UNL     1      18.199  -8.917  27.266  0.00  0.00    +0.000 C 
BRANCH  18  20
ATOM     19  C   UNL     1      17.819  -9.635  29.551  0.00  0.00    +0.000 C 
ATOM     20  C   UNL     1      18.911  -9.455  28.486  0.00  0.00    +0.000 C 
ENDBRANCH  18  20
ENDBRANCH   1  18
TORSDOF 3
ENDMDL
MODEL 8
REMARK VINA RESULT:      -6.2     20.391     22.122
REMARK  Name = 
REMARK  3 active torsions:
REMARK  status: ('A' for Active; 'I' for Inactive)
REMARK    1  A    between atoms: C_2  and  C_3
REMARK    2  A    between atoms: C_3  and  C_4
REMARK    3  A    between atoms: C_6  and  C_7
REMARK                            x       y       z     vdW  Elec       q    Type
REMARK                         _______ _______ _______ _____ _____    ______ ____
ROOT
ATOM      1  C   UNL     1      14.489  -9.827  26.259  0.00  0.00    +0.000 A 
ATOM      2  C   UNL     1      15.324  -8.739  26.150  0.00  0.00    +0.000 A 
ATOM      3  C   UNL     1      16.527  -8.674  26.820  0.00  0.00    +0.000 A 
ATOM      4  C   UNL     1      16.893  -9.733  27.617  0.00  0.00    +0.000 A 
ATOM      5  C   UNL     1      16.060 -10.824  27.729  0.00  0.00    +0.000 A 
ATOM      6  C   UNL     1      14.869 -10.866  27.053  0.00  0.00    +0.000 A 
ATOM      7  O   UNL     1      14.080 -12.011  27.220  0.00  0.00    +0.000 OA
ENDROOT
BRANCH   3   8
ATOM      8  C   UNL     1      17.380  -7.502  26.668  0.00  0.00    +0.000 A 
ATOM      9  N   UNL     1      17.105  -6.212  27.029  0.00  0.00    +0.000 NA
ATOM     10  O   UNL     1      18.107  -5.452  26.747  0.00  0.00    +0.000 OA
ATOM     11  C   UNL     1      19.096  -6.131  26.197  0.00  0.00    +0.000 A 
ATOM     12  C   UNL     1      20.352  -5.761  25.734  0.00  0.00    +0.000 A 
ATOM     13  C   UNL     1      21.213  -6.710  25.187  0.00  0.00    +0.000 A 
ATOM     14  O   UNL     1      22.479  -6.349  24.717  0.00  0.00    +0.000 OA
ATOM     15  C   UNL     1      20.769  -8.012  25.129  0.00  0.00    +0.000 A 
ATOM     16  C   UNL     1      19.513  -8.359  25.597  0.00  0.00    +0.000 A 
ATOM     17  C   UNL     1      18.651  -7.434  26.139  0.00  0.00    +0.000 A 
ENDBRANCH   3   8
BRANCH   1  18
ATOM     18  C   UNL     1      13.217  -9.841  25.525  0.00  0.00    +0.000 C 
BRANCH  18  20
ATOM     19  C   UNL     1      11.669  -9.057  27.219  0.00  0.00    +0.000 C 
ATOM     20  C   UNL     1      12.320  -8.678  25.880  0.00  0.00    +0.000 C 
ENDBRANCH  18  20
ENDBRANCH   1  18
TORSDOF 3
ENDMDL
MODEL 9
REMARK VINA RESULT:      -6.2     20.698     22.357
REMARK  Name = 
REMARK  3 active torsions:
REMARK  status: ('A' for Active; 'I' for Inactive)
REMARK    1  A    between atoms: C_2  and  C_3
REMARK    2  A    between atoms: C_3  and  C_4
REMARK    3  A    between atoms: C_6  and  C_7
REMARK                            x       y       z     vdW  Elec       q    Type
REMARK                         _______ _______ _______ _____ _____    ______ ____
ROOT
ATOM      1  C   UNL     1      17.347  -7.777  27.225  0.00  0.00    +0.000 A 
ATOM      2  C   UNL     1      16.227  -7.699  26.431  0.00  0.00    +0.000 A 
ATOM      3  C   UNL     1      15.425  -8.794  26.194  0.00  0.00    +0.000 A 
ATOM      4  C   UNL     1      15.763  -9.994  26.774  0.00  0.00    +0.000 A 
ATOM      5  C   UNL     1      16.884 -10.077  27.570  0.00  0.00    +0.000 A 
ATOM      6  C   UNL     1      17.666  -8.973  27.791  0.00  0.00    +0.000 A 
ATOM      7  O   UNL     1      18.788  -9.140  28.614  0.00  0.00    +0.000 OA
ENDROOT
BRANCH   3   8
ATOM      8  C   UNL     1      14.245  -8.660  25.349  0.00  0.00    +0.000 A 
ATOM      9  N   UNL     1      14.195  -8.319  24.026  0.00  0.00    +0.000 NA
ATOM     10  O   UNL     1      12.973  -8.313  23.618  0.00  0.00    +0.000 OA
ATOM     11  C   UNL     1      12.133  -8.634  24.584  0.00  0.00    +0.000 A 
ATOM     12  C   UNL     1      10.751  -8.761  24.630  0.00  0.00    +0.000 A 
ATOM     13  C   UNL     1      10.112  -9.122  25.815  0.00  0.00    +0.000 A 
ATOM     14  O   UNL     1       8.721  -9.252  25.873  0.00  0.00    +0.000 OA
ATOM     15  C   UNL     1      10.901  -9.346  26.920  0.00  0.00    +0.000 A 
ATOM     16  C   UNL     1      12.278  -9.214  26.851  0.00  0.00    +0.000 A 
ATOM     17  C   UNL     1      12.924  -8.858  25.690  0.00  0.00    +0.000 A 
ENDBRANCH   3   8
BRANCH   1  18
ATOM     18  C   UNL     1      18.169  -6.578  27.441  0.00  0.00    +0.000 C 
BRANCH  18  20
ATOM     19  C   UNL     1      19.050  -4.601  26.347  0.00  0.00    +0.000 C 
ATOM     20  C   UNL     1      18.880  -6.119  26.189  0.00  0.00    +0.000 C 
ENDBRANCH  18  20
ENDBRANCH   1  18
TORSDOF 3
ENDMDL
MODEL 10
REMARK VINA RESULT:      -6.2     21.632     23.410
REMARK  Name = 
REMARK  3 active torsions:
REMARK  status: ('A' for Active; 'I' for Inactive)
REMARK    1  A    between atoms: C_2  and  C_3
REMARK    2  A    between atoms: C_3  and  C_4
REMARK    3  A    between atoms: C_6  and  C_7
REMARK                            x       y       z     vdW  Elec       q    Type
REMARK                         _______ _______ _______ _____ _____    ______ ____
ROOT
ATOM      1  C   UNL     1      24.406   1.764  17.829  0.00  0.00    +0.000 A 
ATOM      2  C   UNL     1      25.417   2.697  17.831  0.00  0.00    +0.000 A 
ATOM      3  C   UNL     1      25.176   4.032  18.073  0.00  0.00    +0.000 A 
ATOM      4  C   UNL     1      23.883   4.433  18.319  0.00  0.00    +0.000 A 
ATOM      5  C   UNL     1      22.868   3.502  18.318  0.00  0.00    +0.000 A 
ATOM      6  C   UNL     1      23.132   2.180  18.075  0.00  0.00    +0.000 A 
ATOM      7  O   UNL     1      22.044   1.297  18.093  0.00  0.00    +0.000 OA
ENDROOT
BRANCH   3   8
ATOM      8  C   UNL     1      26.282   4.981  18.069  0.00  0.00    +0.000 A 
ATOM      9  N   UNL     1      27.110   5.308  19.107  0.00  0.00    +0.000 NA
ATOM     10  O   UNL     1      27.977   6.179  18.720  0.00  0.00    +0.000 OA
ATOM     11  C   UNL     1      27.817   6.500  17.451  0.00  0.00    +0.000 A 
ATOM     12  C   UNL     1      28.491   7.371  16.604  0.00  0.00    +0.000 A 
ATOM     13  C   UNL     1      28.096   7.515  15.276  0.00  0.00    +0.000 A 
ATOM     14  O   UNL     1      28.767   8.389  14.415  0.00  0.00    +0.000 OA
ATOM     15  C   UNL     1      27.025   6.764  14.846  0.00  0.00    +0.000 A 
ATOM     16  C   UNL     1      26.368   5.901  15.707  0.00  0.00    +0.000 A 
ATOM     17  C   UNL     1      26.745   5.748  17.021  0.00  0.00    +0.000 A 
ENDBRANCH   3   8
BRANCH   1  18
ATOM     18  C   UNL     1      24.719   0.354  17.562  0.00  0.00    +0.000 C 
BRANCH  18  20
ATOM     19  C   UNL     1      26.155  -1.204  16.382  0.00  0.00    +0.000 C 
ATOM     20  C   UNL     1      26.149   0.144  17.119  0.00  0.00    +0.000 C 
ENDBRANCH  18  20
ENDBRANCH   1  18
TORSDOF 3
ENDMDL
