MODEL 1
REMARK VINA RESULT:      -8.6      0.000      0.000
REMARK  Name = 
REMARK  6 active torsions:
REMARK  status: ('A' for Active; 'I' for Inactive)
REMARK    1  A    between atoms: O_2  and  C_3
REMARK    2  A    between atoms: C_6  and  C_7
REMARK    3  A    between atoms: C_9  and  C_10
REMARK    4  A    between atoms: N_12  and  C_13
REMARK    5  A    between atoms: C_13  and  C_15
REMARK    6  A    between atoms: C_23  and  C_24
REMARK                            x       y       z     vdW  Elec       q    Type
REMARK                         _______ _______ _______ _____ _____    ______ ____
ROOT
ATOM      1  C   UNL     1      40.896  -1.563  14.613  0.00  0.00    +0.000 A 
ATOM      2  C   UNL     1      40.417  -0.322  14.275  0.00  0.00    +0.000 A 
ATOM      3  C   UNL     1      39.172   0.087  14.794  0.00  0.00    +0.000 A 
ATOM      4  C   UNL     1      38.490  -0.774  15.616  0.00  0.00    +0.000 A 
ATOM      5  C   UNL     1      37.256  -0.366  16.132  0.00  0.00    +0.000 A 
ATOM      6  C   UNL     1      36.511  -1.172  16.966  0.00  0.00    +0.000 A 
ATOM      7  C   UNL     1      37.056  -2.422  17.270  0.00  0.00    +0.000 A 
ATOM      8  C   UNL     1      38.275  -2.820  16.759  0.00  0.00    +0.000 A 
ATOM      9  C   UNL     1      38.997  -2.005  15.934  0.00  0.00    +0.000 A 
ATOM     10  N   UNL     1      40.194  -2.369  15.420  0.00  0.00    +0.000 NA
ENDROOT
BRANCH   1  14
ATOM     11  C   UNL     1      44.621  -2.805  13.049  0.00  0.00    +0.000 A 
ATOM     12  C   UNL     1      44.605  -1.892  14.080  0.00  0.00    +0.000 A 
ATOM     13  C   UNL     1      43.381  -1.503  14.574  0.00  0.00    +0.000 A 
ATOM     14  C   UNL     1      42.170  -1.991  14.077  0.00  0.00    +0.000 A 
ATOM     15  C   UNL     1      42.265  -2.900  13.048  0.00  0.00    +0.000 A 
ATOM     16  C   UNL     1      43.453  -3.312  12.529  0.00  0.00    +0.000 A 
BRANCH  11  18
ATOM     17  C   UNL     1      45.953  -4.571  12.093  0.00  0.00    +0.000 C 
ATOM     18  O   UNL     1      45.817  -3.229  12.517  0.00  0.00    +0.000 OA
ENDBRANCH  11  18
ENDBRANCH   1  14
BRANCH   3  19
ATOM     19  C   UNL     1      38.676   1.405  14.431  0.00  0.00    +0.000 C 
ATOM     20  O   UNL     1      38.146   1.567  13.326  0.00  0.00    +0.000 OA
ATOM     21  N   UNL     1      38.798   2.458  15.310  0.00  0.00    +0.000 NA
BRANCH  21  22
ATOM     22  C   UNL     1      38.277   3.888  14.952  0.00  0.00    +0.000 C 
ATOM     23  C   UNL     1      36.801   3.689  15.677  0.00  0.00    +0.000 C 
BRANCH  22  24
ATOM     24  C   UNL     1      38.963   4.667  16.159  0.00  0.00    +0.000 A 
ATOM     25  C   UNL     1      38.408   4.492  17.387  0.00  0.00    +0.000 A 
ATOM     26  C   UNL     1      38.967   5.142  18.490  0.00  0.00    +0.000 A 
ATOM     27  C   UNL     1      40.070   5.947  18.306  0.00  0.00    +0.000 A 
ATOM     28  C   UNL     1      40.595   6.093  17.047  0.00  0.00    +0.000 A 
ATOM     29  C   UNL     1      40.030   5.443  15.969  0.00  0.00    +0.000 A 
ENDBRANCH  22  24
ENDBRANCH  21  22
ENDBRANCH   3  19
BRANCH   6  30
ATOM     30  C   UNL     1      35.212  -0.716  17.494  0.00  0.00    +0.000 C 
ATOM     31  C   UNL     1      34.098  -1.717  17.270  0.00  0.00    +0.000 C 
ATOM     32  C   UNL     1      34.829   0.657  17.006  0.00  0.00    +0.000 C 
ENDBRANCH   6  30
TORSDOF 6
ENDMDL
MODEL 2
REMARK VINA RESULT:      -8.4      4.301      8.735
REMARK  Name = 
REMARK  6 active torsions:
REMARK  status: ('A' for Active; 'I' for Inactive)
REMARK    1  A    between atoms: O_2  and  C_3
REMARK    2  A    between atoms: C_6  and  C_7
REMARK    3  A    between atoms: C_9  and  C_10
REMARK    4  A    between atoms: N_12  and  C_13
REMARK    5  A    between atoms: C_13  and  C_15
REMARK    6  A    between atoms: C_23  and  C_24
REMARK                            x       y       z     vdW  Elec       q    Type
REMARK                         _______ _______ _______ _____ _____    ______ ____
ROOT
ATOM      1  C   UNL     1      38.436   4.982  16.922  0.00  0.00    +0.000 A 
ATOM      2  C   UNL     1      37.531   3.997  17.230  0.00  0.00    +0.000 A 
ATOM      3  C   UNL     1      37.255   3.006  16.267  0.00  0.00    +0.000 A 
ATOM      4  C   UNL     1      37.904   3.069  15.059  0.00  0.00    +0.000 A 
ATOM      5  C   UNL     1      37.631   2.084  14.105  0.00  0.00    +0.000 A 
ATOM      6  C   UNL     1      38.242   2.075  12.869  0.00  0.00    +0.000 A 
ATOM      7  C   UNL     1      39.153   3.106  12.620  0.00  0.00    +0.000 A 
ATOM      8  C   UNL     1      39.419   4.076  13.566  0.00  0.00    +0.000 A 
ATOM      9  C   UNL     1      38.802   4.065  14.784  0.00  0.00    +0.000 A 
ATOM     10  N   UNL     1      39.045   5.001  15.730  0.00  0.00    +0.000 NA
ENDROOT
BRANCH   1  14
ATOM     11  C   UNL     1      39.258   7.968  19.799  0.00  0.00    +0.000 A 
ATOM     12  C   UNL     1      39.855   6.734  19.934  0.00  0.00    +0.000 A 
ATOM     13  C   UNL     1      39.574   5.778  18.985  0.00  0.00    +0.000 A 
ATOM     14  C   UNL     1      38.718   6.007  17.905  0.00  0.00    +0.000 A 
ATOM     15  C   UNL     1      38.159   7.263  17.837  0.00  0.00    +0.000 A 
ATOM     16  C   UNL     1      38.408   8.237  18.753  0.00  0.00    +0.000 A 
BRANCH  11  18
ATOM     17  C   UNL     1      38.491   9.901  21.016  0.00  0.00    +0.000 C 
ATOM     18  O   UNL     1      39.505   8.960  20.720  0.00  0.00    +0.000 OA
ENDBRANCH  11  18
ENDBRANCH   1  14
BRANCH   3  19
ATOM     19  C   UNL     1      36.296   1.967  16.605  0.00  0.00    +0.000 C 
ATOM     20  O   UNL     1      35.088   2.202  16.497  0.00  0.00    +0.000 OA
ATOM     21  N   UNL     1      36.734   0.737  17.042  0.00  0.00    +0.000 NA
BRANCH  21  22
ATOM     22  C   UNL     1      35.731  -0.404  17.416  0.00  0.00    +0.000 C 
ATOM     23  C   UNL     1      35.738  -1.099  15.913  0.00  0.00    +0.000 C 
BRANCH  22  24
ATOM     24  C   UNL     1      36.784  -1.398  18.075  0.00  0.00    +0.000 A 
ATOM     25  C   UNL     1      37.658  -2.005  17.230  0.00  0.00    +0.000 A 
ATOM     26  C   UNL     1      38.612  -2.884  17.745  0.00  0.00    +0.000 A 
ATOM     27  C   UNL     1      38.646  -3.116  19.104  0.00  0.00    +0.000 A 
ATOM     28  C   UNL     1      37.744  -2.480  19.918  0.00  0.00    +0.000 A 
ATOM     29  C   UNL     1      36.808  -1.614  19.390  0.00  0.00    +0.000 A 
ENDBRANCH  22  24
ENDBRANCH  21  22
ENDBRANCH   3  19
BRANCH   6  30
ATOM     30  C   UNL     1      37.934   1.025  11.881  0.00  0.00    +0.000 C 
ATOM     31  C   UNL     1      37.749  -0.341  12.508  0.00  0.00    +0.000 C 
ATOM     32  C   UNL     1      38.921   0.983  10.743  0.00  0.00    +0.000 C 
ENDBRANCH   6  30
TORSDOF 6
ENDMDL
MODEL 3
REMARK VINA RESULT:      -8.2      3.425      8.441
REMARK  Name = 
REMARK  6 active torsions:
REMARK  status: ('A' for Active; 'I' for Inactive)
REMARK    1  A    between atoms: O_2  and  C_3
REMARK    2  A    between atoms: C_6  and  C_7
REMARK    3  A    between atoms: C_9  and  C_10
REMARK    4  A    between atoms: N_12  and  C_13
REMARK    5  A    between atoms: C_13  and  C_15
REMARK    6  A    between atoms: C_23  and  C_24
REMARK                            x       y       z     vdW  Elec       q    Type
REMARK                         _______ _______ _______ _____ _____    ______ ____
ROOT
ATOM      1  C   UNL     1      39.612   6.036  17.201  0.00  0.00    +0.000 A 
ATOM      2  C   UNL     1      39.023   4.798  17.138  0.00  0.00    +0.000 A 
ATOM      3  C   UNL     1      37.961   4.599  16.233  0.00  0.00    +0.000 A 
ATOM      4  C   UNL     1      37.559   5.654  15.452  0.00  0.00    +0.000 A 
ATOM      5  C   UNL     1      36.507   5.455  14.554  0.00  0.00    +0.000 A 
ATOM      6  C   UNL     1      36.047   6.463  13.734  0.00  0.00    +0.000 A 
ATOM      7  C   UNL     1      36.690   7.698  13.848  0.00  0.00    +0.000 A 
ATOM      8  C   UNL     1      37.730   7.890  14.737  0.00  0.00    +0.000 A 
ATOM      9  C   UNL     1      38.170   6.876  15.540  0.00  0.00    +0.000 A 
ATOM     10  N   UNL     1      39.186   7.035  16.418  0.00  0.00    +0.000 NA
ENDROOT
BRANCH   1  14
ATOM     11  C   UNL     1      42.778   6.660  19.931  0.00  0.00    +0.000 A 
ATOM     12  C   UNL     1      41.515   6.413  20.424  0.00  0.00    +0.000 A 
ATOM     13  C   UNL     1      40.501   6.212  19.516  0.00  0.00    +0.000 A 
ATOM     14  C   UNL     1      40.698   6.248  18.134  0.00  0.00    +0.000 A 
ATOM     15  C   UNL     1      41.986   6.499  17.717  0.00  0.00    +0.000 A 
ATOM     16  C   UNL     1      43.018   6.705  18.578  0.00  0.00    +0.000 A 
BRANCH  11  18
ATOM     17  C   UNL     1      44.214   5.838  21.683  0.00  0.00    +0.000 C 
ATOM     18  O   UNL     1      43.830   6.868  20.794  0.00  0.00    +0.000 OA
ENDBRANCH  11  18
ENDBRANCH   1  14
BRANCH   3  19
ATOM     19  C   UNL     1      37.345   3.283  16.174  0.00  0.00    +0.000 C 
ATOM     20  O   UNL     1      36.350   3.050  16.869  0.00  0.00    +0.000 OA
ATOM     21  N   UNL     1      37.870   2.310  15.353  0.00  0.00    +0.000 NA
BRANCH  21  22
ATOM     22  C   UNL     1      37.235   0.883  15.266  0.00  0.00    +0.000 C 
ATOM     23  C   UNL     1      36.815   1.011  13.668  0.00  0.00    +0.000 C 
BRANCH  22  24
ATOM     24  C   UNL     1      38.583   0.071  15.029  0.00  0.00    +0.000 A 
ATOM     25  C   UNL     1      38.618  -1.200  15.509  0.00  0.00    +0.000 A 
ATOM     26  C   UNL     1      39.770  -1.969  15.329  0.00  0.00    +0.000 A 
ATOM     27  C   UNL     1      40.847  -1.419  14.668  0.00  0.00    +0.000 A 
ATOM     28  C   UNL     1      40.765  -0.133  14.201  0.00  0.00    +0.000 A 
ATOM     29  C   UNL     1      39.618   0.613  14.388  0.00  0.00    +0.000 A 
ENDBRANCH  22  24
ENDBRANCH  21  22
ENDBRANCH   3  19
BRANCH   6  30
ATOM     30  C   UNL     1      34.934   6.226  12.796  0.00  0.00    +0.000 C 
ATOM     31  C   UNL     1      35.309   6.493  11.353  0.00  0.00    +0.000 C 
ATOM     32  C   UNL     1      33.674   6.955  13.185  0.00  0.00    +0.000 C 
ENDBRANCH   6  30
TORSDOF 6
ENDMDL
MODEL 4
REMARK VINA RESULT:      -8.0      2.480      4.967
REMARK  Name = 
REMARK  6 active torsions:
REMARK  status: ('A' for Active; 'I' for Inactive)
REMARK    1  A    between atoms: O_2  and  C_3
REMARK    2  A    between atoms: C_6  and  C_7
REMARK    3  A    between atoms: C_9  and  C_10
REMARK    4  A    between atoms: N_12  and  C_13
REMARK    5  A    between atoms: C_13  and  C_15
REMARK    6  A    between atoms: C_23  and  C_24
REMARK                            x       y       z     vdW  Elec       q    Type
REMARK                         _______ _______ _______ _____ _____    ______ ____
ROOT
ATOM      1  C   UNL     1      42.167  -1.708  13.969  0.00  0.00    +0.000 A 
ATOM      2  C   UNL     1      41.215  -2.448  14.624  0.00  0.00    +0.000 A 
ATOM      3  C   UNL     1      40.003  -1.825  14.985  0.00  0.00    +0.000 A 
ATOM      4  C   UNL     1      39.827  -0.502  14.666  0.00  0.00    +0.000 A 
ATOM      5  C   UNL     1      38.624   0.115  15.023  0.00  0.00    +0.000 A 
ATOM      6  C   UNL     1      38.370   1.439  14.736  0.00  0.00    +0.000 A 
ATOM      7  C   UNL     1      39.380   2.134  14.068  0.00  0.00    +0.000 A 
ATOM      8  C   UNL     1      40.567   1.521  13.717  0.00  0.00    +0.000 A 
ATOM      9  C   UNL     1      40.798   0.207  14.011  0.00  0.00    +0.000 A 
ATOM     10  N   UNL     1      41.949  -0.420  13.678  0.00  0.00    +0.000 NA
ENDROOT
BRANCH   1  14
ATOM     11  C   UNL     1      45.810  -3.565  12.897  0.00  0.00    +0.000 A 
ATOM     12  C   UNL     1      44.664  -3.910  12.215  0.00  0.00    +0.000 A 
ATOM     13  C   UNL     1      43.489  -3.291  12.581  0.00  0.00    +0.000 A 
ATOM     14  C   UNL     1      43.416  -2.341  13.602  0.00  0.00    +0.000 A 
ATOM     15  C   UNL     1      44.601  -2.048  14.237  0.00  0.00    +0.000 A 
ATOM     16  C   UNL     1      45.784  -2.635  13.909  0.00  0.00    +0.000 A 
BRANCH  11  18
ATOM     17  C   UNL     1      48.092  -4.072  13.481  0.00  0.00    +0.000 C 
ATOM     18  O   UNL     1      47.012  -4.152  12.573  0.00  0.00    +0.000 OA
ENDBRANCH  11  18
ENDBRANCH   1  14
BRANCH   3  19
ATOM     19  C   UNL     1      39.001  -2.620  15.677  0.00  0.00    +0.000 C 
ATOM     20  O   UNL     1      38.202  -3.292  15.016  0.00  0.00    +0.000 OA
ATOM     21  N   UNL     1      38.946  -2.619  17.053  0.00  0.00    +0.000 NA
BRANCH  21  22
ATOM     22  C   UNL     1      37.881  -3.460  17.830  0.00  0.00    +0.000 C 
ATOM     23  C   UNL     1      38.568  -3.219  19.318  0.00  0.00    +0.000 C 
BRANCH  22  24
ATOM     24  C   UNL     1      36.774  -2.324  17.960  0.00  0.00    +0.000 A 
ATOM     25  C   UNL     1      37.083  -1.263  18.752  0.00  0.00    +0.000 A 
ATOM     26  C   UNL     1      36.158  -0.228  18.903  0.00  0.00    +0.000 A 
ATOM     27  C   UNL     1      34.949  -0.308  18.244  0.00  0.00    +0.000 A 
ATOM     28  C   UNL     1      34.683  -1.398  17.456  0.00  0.00    +0.000 A 
ATOM     29  C   UNL     1      35.610  -2.411  17.318  0.00  0.00    +0.000 A 
ENDBRANCH  22  24
ENDBRANCH  21  22
ENDBRANCH   3  19
BRANCH   6  30
ATOM     30  C   UNL     1      37.092   2.064  15.126  0.00  0.00    +0.000 C 
ATOM     31  C   UNL     1      35.901   1.150  14.928  0.00  0.00    +0.000 C 
ATOM     32  C   UNL     1      36.874   3.406  14.476  0.00  0.00    +0.000 C 
ENDBRANCH   6  30
TORSDOF 6
ENDMDL
MODEL 5
REMARK VINA RESULT:      -7.9      3.367      8.536
REMARK  Name = 
REMARK  6 active torsions:
REMARK  status: ('A' for Active; 'I' for Inactive)
REMARK    1  A    between atoms: O_2  and  C_3
REMARK    2  A    between atoms: C_6  and  C_7
REMARK    3  A    between atoms: C_9  and  C_10
REMARK    4  A    between atoms: N_12  and  C_13
REMARK    5  A    between atoms: C_13  and  C_15
REMARK    6  A    between atoms: C_23  and  C_24
REMARK                            x       y       z     vdW  Elec       q    Type
REMARK                         _______ _______ _______ _____ _____    ______ ____
ROOT
ATOM      1  C   UNL     1      35.588   4.157  14.406  0.00  0.00    +0.000 A 
ATOM      2  C   UNL     1      36.419   3.489  13.542  0.00  0.00    +0.000 A 
ATOM      3  C   UNL     1      36.657   2.117  13.758  0.00  0.00    +0.000 A 
ATOM      4  C   UNL     1      36.047   1.506  14.825  0.00  0.00    +0.000 A 
ATOM      5  C   UNL     1      36.283   0.144  15.036  0.00  0.00    +0.000 A 
ATOM      6  C   UNL     1      35.706  -0.542  16.083  0.00  0.00    +0.000 A 
ATOM      7  C   UNL     1      34.871   0.197  16.924  0.00  0.00    +0.000 A 
ATOM      8  C   UNL     1      34.641   1.542  16.711  0.00  0.00    +0.000 A 
ATOM      9  C   UNL     1      35.223   2.202  15.667  0.00  0.00    +0.000 A 
ATOM     10  N   UNL     1      35.014   3.518  15.433  0.00  0.00    +0.000 NA
ENDROOT
BRANCH   1  14
ATOM     11  C   UNL     1      34.888   8.281  13.793  0.00  0.00    +0.000 A 
ATOM     12  C   UNL     1      36.188   7.835  13.888  0.00  0.00    +0.000 A 
ATOM     13  C   UNL     1      36.392   6.488  14.086  0.00  0.00    +0.000 A 
ATOM     14  C   UNL     1      35.345   5.568  14.194  0.00  0.00    +0.000 A 
ATOM     15  C   UNL     1      34.075   6.088  14.089  0.00  0.00    +0.000 A 
ATOM     16  C   UNL     1      33.828   7.411  13.894  0.00  0.00    +0.000 A 
BRANCH  11  18
ATOM     17  C   UNL     1      34.700  10.154  12.288  0.00  0.00    +0.000 C 
ATOM     18  O   UNL     1      34.627   9.617  13.595  0.00  0.00    +0.000 OA
ENDBRANCH  11  18
ENDBRANCH   1  14
BRANCH   3  19
ATOM     19  C   UNL     1      37.538   1.419  12.835  0.00  0.00    +0.000 C 
ATOM     20  O   UNL     1      37.101   1.062  11.736  0.00  0.00    +0.000 OA
ATOM     21  N   UNL     1      38.844   1.161  13.186  0.00  0.00    +0.000 NA
BRANCH  21  22
ATOM     22  C   UNL     1      39.819   0.411  12.220  0.00  0.00    +0.000 C 
ATOM     23  C   UNL     1      41.137   1.343  12.596  0.00  0.00    +0.000 C 
BRANCH  22  24
ATOM     24  C   UNL     1      40.178  -0.801  13.186  0.00  0.00    +0.000 A 
ATOM     25  C   UNL     1      39.709  -0.722  14.459  0.00  0.00    +0.000 A 
ATOM     26  C   UNL     1      39.983  -1.756  15.356  0.00  0.00    +0.000 A 
ATOM     27  C   UNL     1      40.725  -2.836  14.928  0.00  0.00    +0.000 A 
ATOM     28  C   UNL     1      41.177  -2.872  13.634  0.00  0.00    +0.000 A 
ATOM     29  C   UNL     1      40.896  -1.840  12.761  0.00  0.00    +0.000 A 
ENDBRANCH  22  24
ENDBRANCH  21  22
ENDBRANCH   3  19
BRANCH   6  30
ATOM     30  C   UNL     1      35.973  -1.979  16.283  0.00  0.00    +0.000 C 
ATOM     31  C   UNL     1      36.944  -2.248  17.414  0.00  0.00    +0.000 C 
ATOM     32  C   UNL     1      36.391  -2.679  15.016  0.00  0.00    +0.000 C 
ENDBRANCH   6  30
TORSDOF 6
ENDMDL
MODEL 6
REMARK VINA RESULT:      -7.9      3.550      8.131
REMARK  Name = 
REMARK  6 active torsions:
REMARK  status: ('A' for Active; 'I' for Inactive)
REMARK    1  A    between atoms: O_2  and  C_3
REMARK    2  A    between atoms: C_6  and  C_7
REMARK    3  A    between atoms: C_9  and  C_10
REMARK    4  A    between atoms: N_12  and  C_13
REMARK    5  A    between atoms: C_13  and  C_15
REMARK    6  A    between atoms: C_23  and  C_24
REMARK                            x       y       z     vdW  Elec       q    Type
REMARK                         _______ _______ _______ _____ _____    ______ ____
ROOT
ATOM      1  C   UNL     1      36.496   3.724  13.151  0.00  0.00    +0.000 A 
ATOM      2  C   UNL     1      37.189   2.599  12.782  0.00  0.00    +0.000 A 
ATOM      3  C   UNL     1      37.069   1.440  13.575  0.00  0.00    +0.000 A 
ATOM      4  C   UNL     1      36.264   1.487  14.686  0.00  0.00    +0.000 A 
ATOM      5  C   UNL     1      36.145   0.336  15.471  0.00  0.00    +0.000 A 
ATOM      6  C   UNL     1      35.355   0.302  16.599  0.00  0.00    +0.000 A 
ATOM      7  C   UNL     1      34.676   1.481  16.918  0.00  0.00    +0.000 A 
ATOM      8  C   UNL     1      34.797   2.615  16.139  0.00  0.00    +0.000 A 
ATOM      9  C   UNL     1      35.586   2.626  15.025  0.00  0.00    +0.000 A 
ATOM     10  N   UNL     1      35.722   3.722  14.243  0.00  0.00    +0.000 NA
ENDROOT
BRANCH   1  14
ATOM     11  C   UNL     1      36.871   7.215  10.796  0.00  0.00    +0.000 A 
ATOM     12  C   UNL     1      37.864   6.263  10.734  0.00  0.00    +0.000 A 
ATOM     13  C   UNL     1      37.720   5.133  11.508  0.00  0.00    +0.000 A 
ATOM     14  C   UNL     1      36.621   4.919  12.344  0.00  0.00    +0.000 A 
ATOM     15  C   UNL     1      35.670   5.914  12.353  0.00  0.00    +0.000 A 
ATOM     16  C   UNL     1      35.772   7.046  11.605  0.00  0.00    +0.000 A 
BRANCH  11  18
ATOM     17  C   UNL     1      35.819   9.175   9.869  0.00  0.00    +0.000 C 
ATOM     18  O   UNL     1      36.964   8.363  10.043  0.00  0.00    +0.000 OA
ENDBRANCH  11  18
ENDBRANCH   1  14
BRANCH   3  19
ATOM     19  C   UNL     1      37.807   0.253  13.174  0.00  0.00    +0.000 C 
ATOM     20  O   UNL     1      37.507  -0.316  12.119  0.00  0.00    +0.000 OA
ATOM     21  N   UNL     1      38.827  -0.229  13.964  0.00  0.00    +0.000 NA
BRANCH  21  22
ATOM     22  C   UNL     1      39.641  -1.503  13.564  0.00  0.00    +0.000 C 
ATOM     23  C   UNL     1      40.954  -1.136  14.504  0.00  0.00    +0.000 C 
BRANCH  22  24
ATOM     24  C   UNL     1      38.964  -2.512  14.591  0.00  0.00    +0.000 A 
ATOM     25  C   UNL     1      39.606  -2.694  15.775  0.00  0.00    +0.000 A 
ATOM     26  C   UNL     1      39.060  -3.561  16.724  0.00  0.00    +0.000 A 
ATOM     27  C   UNL     1      37.881  -4.215  16.436  0.00  0.00    +0.000 A 
ATOM     28  C   UNL     1      37.269  -3.999  15.228  0.00  0.00    +0.000 A 
ATOM     29  C   UNL     1      37.823  -3.138  14.303  0.00  0.00    +0.000 A 
ENDBRANCH  22  24
ENDBRANCH  21  22
ENDBRANCH   3  19
BRANCH   6  30
ATOM     30  C   UNL     1      35.248  -0.926  17.410  0.00  0.00    +0.000 C 
ATOM     31  C   UNL     1      36.529  -1.263  18.144  0.00  0.00    +0.000 C 
ATOM     32  C   UNL     1      34.734  -2.104  16.624  0.00  0.00    +0.000 C 
ENDBRANCH   6  30
TORSDOF 6
ENDMDL
MODEL 7
REMARK VINA RESULT:      -7.7     23.633     28.937
REMARK  Name = 
REMARK  6 active torsions:
REMARK  status: ('A' for Active; 'I' for Inactive)
REMARK    1  A    between atoms: O_2  and  C_3
REMARK    2  A    between atoms: C_6  and  C_7
REMARK    3  A    between atoms: C_9  and  C_10
REMARK    4  A    between atoms: N_12  and  C_13
REMARK    5  A    between atoms: C_13  and  C_15
REMARK    6  A    between atoms: C_23  and  C_24
REMARK                            x       y       z     vdW  Elec       q    Type
REMARK                         _______ _______ _______ _____ _____    ______ ____
ROOT
ATOM      1  C   UNL     1      12.096  -2.657  26.449  0.00  0.00    +0.000 A 
ATOM      2  C   UNL     1      13.212  -1.980  26.872  0.00  0.00    +0.000 A 
ATOM      3  C   UNL     1      13.164  -0.573  26.940  0.00  0.00    +0.000 A 
ATOM      4  C   UNL     1      12.002   0.061  26.579  0.00  0.00    +0.000 A 
ATOM      5  C   UNL     1      11.955   1.457  26.649  0.00  0.00    +0.000 A 
ATOM      6  C   UNL     1      10.825   2.167  26.306  0.00  0.00    +0.000 A 
ATOM      7  C   UNL     1       9.724   1.416  25.884  0.00  0.00    +0.000 A 
ATOM      8  C   UNL     1       9.775   0.038  25.817  0.00  0.00    +0.000 A 
ATOM      9  C   UNL     1      10.906  -0.646  26.162  0.00  0.00    +0.000 A 
ATOM     10  N   UNL     1      10.984  -1.995  26.107  0.00  0.00    +0.000 NA
ENDROOT
BRANCH   1  14
ATOM     11  C   UNL     1      12.239  -6.876  26.221  0.00  0.00    +0.000 A 
ATOM     12  C   UNL     1      12.827  -6.249  27.298  0.00  0.00    +0.000 A 
ATOM     13  C   UNL     1      12.766  -4.875  27.351  0.00  0.00    +0.000 A 
ATOM     14  C   UNL     1      12.142  -4.102  26.369  0.00  0.00    +0.000 A 
ATOM     15  C   UNL     1      11.578  -4.798  25.325  0.00  0.00    +0.000 A 
ATOM     16  C   UNL     1      11.614  -6.155  25.231  0.00  0.00    +0.000 A 
BRANCH  11  18
ATOM     17  C   UNL     1      13.474  -8.939  26.386  0.00  0.00    +0.000 C 
ATOM     18  O   UNL     1      12.270  -8.248  26.117  0.00  0.00    +0.000 OA
ENDBRANCH  11  18
ENDBRANCH   1  14
BRANCH   3  19
ATOM     19  C   UNL     1      14.352   0.134  27.391  0.00  0.00    +0.000 C 
ATOM     20  O   UNL     1      14.355   0.655  28.512  0.00  0.00    +0.000 OA
ATOM     21  N   UNL     1      15.458   0.220  26.576  0.00  0.00    +0.000 NA
BRANCH  21  22
ATOM     22  C   UNL     1      16.752   0.973  27.028  0.00  0.00    +0.000 C 
ATOM     23  C   UNL     1      17.132  -0.104  28.228  0.00  0.00    +0.000 C 
BRANCH  22  24
ATOM     24  C   UNL     1      17.736   0.371  25.932  0.00  0.00    +0.000 A 
ATOM     25  C   UNL     1      17.836  -0.983  25.884  0.00  0.00    +0.000 A 
ATOM     26  C   UNL     1      18.677  -1.575  24.940  0.00  0.00    +0.000 A 
ATOM     27  C   UNL     1      19.389  -0.770  24.077  0.00  0.00    +0.000 A 
ATOM     28  C   UNL     1      19.256   0.592  24.163  0.00  0.00    +0.000 A 
ATOM     29  C   UNL     1      18.419   1.160  25.102  0.00  0.00    +0.000 A 
ENDBRANCH  22  24
ENDBRANCH  21  22
ENDBRANCH   3  19
BRANCH   6  30
ATOM     30  C   UNL     1      10.804   3.639  26.388  0.00  0.00    +0.000 C 
ATOM     31  C   UNL     1      12.162   4.234  26.695  0.00  0.00    +0.000 C 
ATOM     32  C   UNL     1       9.746   4.159  27.327  0.00  0.00    +0.000 C 
ENDBRANCH   6  30
TORSDOF 6
ENDMDL
MODEL 8
REMARK VINA RESULT:      -7.5     27.189     30.576
REMARK  Name = 
REMARK  6 active torsions:
REMARK  status: ('A' for Active; 'I' for Inactive)
REMARK    1  A    between atoms: O_2  and  C_3
REMARK    2  A    between atoms: C_6  and  C_7
REMARK    3  A    between atoms: C_9  and  C_10
REMARK    4  A    between atoms: N_12  and  C_13
REMARK    5  A    between atoms: C_13  and  C_15
REMARK    6  A    between atoms: C_23  and  C_24
REMARK                            x       y       z     vdW  Elec       q    Type
REMARK                         _______ _______ _______ _____ _____    ______ ____
ROOT
ATOM      1  C   UNL     1      11.565   0.830   7.644  0.00  0.00    +0.000 A 
ATOM      2  C   UNL     1      11.452   2.181   7.860  0.00  0.00    +0.000 A 
ATOM      3  C   UNL     1      10.632   2.631   8.914  0.00  0.00    +0.000 A 
ATOM      4  C   UNL     1       9.979   1.698   9.680  0.00  0.00    +0.000 A 
ATOM      5  C   UNL     1       9.167   2.146  10.727  0.00  0.00    +0.000 A 
ATOM      6  C   UNL     1       8.480   1.272  11.542  0.00  0.00    +0.000 A 
ATOM      7  C   UNL     1       8.639  -0.089  11.267  0.00  0.00    +0.000 A 
ATOM      8  C   UNL     1       9.442  -0.526  10.233  0.00  0.00    +0.000 A 
ATOM      9  C   UNL     1      10.114   0.357   9.437  0.00  0.00    +0.000 A 
ATOM     10  N   UNL     1      10.909  -0.042   8.418  0.00  0.00    +0.000 NA
ENDROOT
BRANCH   1  14
ATOM     11  C   UNL     1      14.013  -0.536   4.480  0.00  0.00    +0.000 A 
ATOM     12  C   UNL     1      14.207  -1.055   5.741  0.00  0.00    +0.000 A 
ATOM     13  C   UNL     1      13.397  -0.597   6.755  0.00  0.00    +0.000 A 
ATOM     14  C   UNL     1      12.401   0.363   6.558  0.00  0.00    +0.000 A 
ATOM     15  C   UNL     1      12.267   0.835   5.272  0.00  0.00    +0.000 A 
ATOM     16  C   UNL     1      13.045   0.410   4.241  0.00  0.00    +0.000 A 
BRANCH  11  18
ATOM     17  C   UNL     1      16.023  -1.607   3.693  0.00  0.00    +0.000 C 
ATOM     18  O   UNL     1      14.794  -0.959   3.429  0.00  0.00    +0.000 OA
ENDBRANCH  11  18
ENDBRANCH   1  14
BRANCH   3  19
ATOM     19  C   UNL     1      10.521   4.064   9.135  0.00  0.00    +0.000 C 
ATOM     20  O   UNL     1      11.377   4.637   9.817  0.00  0.00    +0.000 OA
ATOM     21  N   UNL     1       9.472   4.770   8.589  0.00  0.00    +0.000 NA
BRANCH  21  22
ATOM     22  C   UNL     1       9.321   6.311   8.807  0.00  0.00    +0.000 C 
ATOM     23  C   UNL     1       8.735   6.613   7.288  0.00  0.00    +0.000 C 
BRANCH  22  24
ATOM     24  C   UNL     1       7.907   6.279   9.538  0.00  0.00    +0.000 A 
ATOM     25  C   UNL     1       7.907   5.891  10.841  0.00  0.00    +0.000 A 
ATOM     26  C   UNL     1       6.700   5.848  11.542  0.00  0.00    +0.000 A 
ATOM     27  C   UNL     1       5.535   6.200  10.894  0.00  0.00    +0.000 A 
ATOM     28  C   UNL     1       5.585   6.584   9.579  0.00  0.00    +0.000 A 
ATOM     29  C   UNL     1       6.788   6.622   8.902  0.00  0.00    +0.000 A 
ENDBRANCH  22  24
ENDBRANCH  21  22
ENDBRANCH   3  19
BRANCH   6  30
ATOM     30  C   UNL     1       7.629   1.772  12.638  0.00  0.00    +0.000 C 
ATOM     31  C   UNL     1       6.280   2.269  12.160  0.00  0.00    +0.000 C 
ATOM     32  C   UNL     1       8.323   2.796  13.498  0.00  0.00    +0.000 C 
ENDBRANCH   6  30
TORSDOF 6
ENDMDL
MODEL 9
REMARK VINA RESULT:      -7.5     25.564     30.312
REMARK  Name = 
REMARK  6 active torsions:
REMARK  status: ('A' for Active; 'I' for Inactive)
REMARK    1  A    between atoms: O_2  and  C_3
REMARK    2  A    between atoms: C_6  and  C_7
REMARK    3  A    between atoms: C_9  and  C_10
REMARK    4  A    between atoms: N_12  and  C_13
REMARK    5  A    between atoms: C_13  and  C_15
REMARK    6  A    between atoms: C_23  and  C_24
REMARK                            x       y       z     vdW  Elec       q    Type
REMARK                         _______ _______ _______ _____ _____    ______ ____
ROOT
ATOM      1  C   UNL     1      14.198   0.649  27.720  0.00  0.00    +0.000 A 
ATOM      2  C   UNL     1      13.839   0.453  29.029  0.00  0.00    +0.000 A 
ATOM      3  C   UNL     1      12.626   1.006  29.488  0.00  0.00    +0.000 A 
ATOM      4  C   UNL     1      11.855   1.718  28.604  0.00  0.00    +0.000 A 
ATOM      5  C   UNL     1      10.651   2.264  29.061  0.00  0.00    +0.000 A 
ATOM      6  C   UNL     1       9.820   2.990  28.235  0.00  0.00    +0.000 A 
ATOM      7  C   UNL     1      10.245   3.152  26.914  0.00  0.00    +0.000 A 
ATOM      8  C   UNL     1      11.434   2.610  26.468  0.00  0.00    +0.000 A 
ATOM      9  C   UNL     1      12.243   1.894  27.304  0.00  0.00    +0.000 A 
ATOM     10  N   UNL     1      13.412   1.351  26.894  0.00  0.00    +0.000 NA
ENDROOT
BRANCH   1  14
ATOM     11  C   UNL     1      17.847  -0.973  26.335  0.00  0.00    +0.000 A 
ATOM     12  C   UNL     1      17.859  -0.175  27.458  0.00  0.00    +0.000 A 
ATOM     13  C   UNL     1      16.659   0.340  27.891  0.00  0.00    +0.000 A 
ATOM     14  C   UNL     1      15.446   0.091  27.245  0.00  0.00    +0.000 A 
ATOM     15  C   UNL     1      15.513  -0.715  26.131  0.00  0.00    +0.000 A 
ATOM     16  C   UNL     1      16.677  -1.245  25.667  0.00  0.00    +0.000 A 
BRANCH  11  18
ATOM     17  C   UNL     1      19.341  -2.857  26.170  0.00  0.00    +0.000 C 
ATOM     18  O   UNL     1      19.019  -1.516  25.859  0.00  0.00    +0.000 OA
ENDBRANCH  11  18
ENDBRANCH   1  14
BRANCH   3  19
ATOM     19  C   UNL     1      12.255   0.790  30.878  0.00  0.00    +0.000 C 
ATOM     20  O   UNL     1      11.531  -0.169  31.168  0.00  0.00    +0.000 OA
ATOM     21  N   UNL     1      12.705   1.648  31.856  0.00  0.00    +0.000 NA
BRANCH  21  22
ATOM     22  C   UNL     1      12.325   1.448  33.360  0.00  0.00    +0.000 C 
ATOM     23  C   UNL     1      13.832   0.938  33.822  0.00  0.00    +0.000 C 
BRANCH  22  24
ATOM     24  C   UNL     1      12.501   2.960  33.821  0.00  0.00    +0.000 A 
ATOM     25  C   UNL     1      13.750   3.486  33.717  0.00  0.00    +0.000 A 
ATOM     26  C   UNL     1      13.970   4.811  34.099  0.00  0.00    +0.000 A 
ATOM     27  C   UNL     1      12.913   5.556  34.575  0.00  0.00    +0.000 A 
ATOM     28  C   UNL     1      11.670   4.983  34.663  0.00  0.00    +0.000 A 
ATOM     29  C   UNL     1      11.471   3.672  34.280  0.00  0.00    +0.000 A 
ENDBRANCH  22  24
ENDBRANCH  21  22
ENDBRANCH   3  19
BRANCH   6  30
ATOM     30  C   UNL     1       8.556   3.556  28.743  0.00  0.00    +0.000 C 
ATOM     31  C   UNL     1       7.981   4.626  27.839  0.00  0.00    +0.000 C 
ATOM     32  C   UNL     1       8.659   4.032  30.169  0.00  0.00    +0.000 C 
ENDBRANCH   6  30
TORSDOF 6
ENDMDL
MODEL 10
REMARK VINA RESULT:      -7.3     22.129     26.206
REMARK  Name = 
REMARK  6 active torsions:
REMARK  status: ('A' for Active; 'I' for Inactive)
REMARK    1  A    between atoms: O_2  and  C_3
REMARK    2  A    between atoms: C_6  and  C_7
REMARK    3  A    between atoms: C_9  and  C_10
REMARK    4  A    between atoms: N_12  and  C_13
REMARK    5  A    between atoms: C_13  and  C_15
REMARK    6  A    between atoms: C_23  and  C_24
REMARK                            x       y       z     vdW  Elec       q    Type
REMARK                         _______ _______ _______ _____ _____    ______ ____
ROOT
ATOM      1  C   UNL     1      16.537  -3.170   4.780  0.00  0.00    +0.000 A 
ATOM      2  C   UNL     1      16.671  -3.694   6.040  0.00  0.00    +0.000 A 
ATOM      3  C   UNL     1      15.846  -4.774   6.415  0.00  0.00    +0.000 A 
ATOM      4  C   UNL     1      14.942  -5.256   5.501  0.00  0.00    +0.000 A 
ATOM      5  C   UNL     1      14.127  -6.329   5.873  0.00  0.00    +0.000 A 
ATOM      6  C   UNL     1      13.197  -6.870   5.012  0.00  0.00    +0.000 A 
ATOM      7  C   UNL     1      13.112  -6.290   3.744  0.00  0.00    +0.000 A 
ATOM      8  C   UNL     1      13.921  -5.231   3.381  0.00  0.00    +0.000 A 
ATOM      9  C   UNL     1      14.836  -4.709   4.250  0.00  0.00    +0.000 A 
ATOM     10  N   UNL     1      15.642  -3.673   3.922  0.00  0.00    +0.000 NA
ENDROOT
BRANCH   1  14
ATOM     11  C   UNL     1      18.980   0.091   3.652  0.00  0.00    +0.000 A 
ATOM     12  C   UNL     1      18.219   0.196   4.795  0.00  0.00    +0.000 A 
ATOM     13  C   UNL     1      17.433  -0.879   5.144  0.00  0.00    +0.000 A 
ATOM     14  C   UNL     1      17.376  -2.055   4.392  0.00  0.00    +0.000 A 
ATOM     15  C   UNL     1      18.164  -2.086   3.264  0.00  0.00    +0.000 A 
ATOM     16  C   UNL     1      18.955  -1.048   2.882  0.00  0.00    +0.000 A 
BRANCH  11  18
ATOM     17  C   UNL     1      19.876   1.462   1.885  0.00  0.00    +0.000 C 
ATOM     18  O   UNL     1      19.785   1.135   3.257  0.00  0.00    +0.000 OA
ENDBRANCH  11  18
ENDBRANCH   1  14
BRANCH   3  19
ATOM     19  C   UNL     1      15.997  -5.323   7.753  0.00  0.00    +0.000 C 
ATOM     20  O   UNL     1      15.330  -4.849   8.679  0.00  0.00    +0.000 OA
ATOM     21  N   UNL     1      16.877  -6.357   7.982  0.00  0.00    +0.000 NA
BRANCH  21  22
ATOM     22  C   UNL     1      17.067  -6.971   9.408  0.00  0.00    +0.000 C 
ATOM     23  C   UNL     1      16.312  -8.401   9.049  0.00  0.00    +0.000 C 
BRANCH  22  24
ATOM     24  C   UNL     1      18.554  -7.501   9.209  0.00  0.00    +0.000 A 
ATOM     25  C   UNL     1      18.800  -8.206   8.074  0.00  0.00    +0.000 A 
ATOM     26  C   UNL     1      20.087  -8.694   7.836  0.00  0.00    +0.000 A 
ATOM     27  C   UNL     1      21.079  -8.448   8.761  0.00  0.00    +0.000 A 
ATOM     28  C   UNL     1      20.783  -7.731   9.891  0.00  0.00    +0.000 A 
ATOM     29  C   UNL     1      19.505  -7.257  10.110  0.00  0.00    +0.000 A 
ENDBRANCH  22  24
ENDBRANCH  21  22
ENDBRANCH   3  19
BRANCH   6  30
ATOM     30  C   UNL     1      12.348  -8.001   5.431  0.00  0.00    +0.000 C 
ATOM     31  C   UNL     1      10.945  -7.578   5.814  0.00  0.00    +0.000 C 
ATOM     32  C   UNL     1      12.985  -8.845   6.505  0.00  0.00    +0.000 C 
ENDBRANCH   6  30
TORSDOF 6
ENDMDL
