MODEL 1
REMARK VINA RESULT:      -8.4      0.000      0.000
REMARK  Name = 
REMARK  6 active torsions:
REMARK  status: ('A' for Active; 'I' for Inactive)
REMARK    1  A    between atoms: C_2  and  C_3
REMARK    2  A    between atoms: C_3  and  C_4
REMARK    3  A    between atoms: N_14  and  C_15
REMARK    4  A    between atoms: C_19  and  C_20
REMARK    5  A    between atoms: N_22  and  C_23
REMARK    6  A    between atoms: C_23  and  C_24
REMARK                            x       y       z     vdW  Elec       q    Type
REMARK                         _______ _______ _______ _____ _____    ______ ____
ROOT
ATOM      1  C   UNL     1      40.830  -0.045  13.260  0.00  0.00    +0.000 A 
ATOM      2  S   UNL     1      42.028   1.099  12.842  0.00  0.00    +0.000 S 
ATOM      3  C   UNL     1      43.357   0.414  13.639  0.00  0.00    +0.000 A 
ATOM      4  C   UNL     1      42.839  -0.696  14.216  0.00  0.00    +0.000 A 
ATOM      5  C   UNL     1      41.513  -0.953  14.029  0.00  0.00    +0.000 A 
ATOM      6  C   UNL     1      43.985  -1.367  14.950  0.00  0.00    +0.000 C 
ATOM      7  C   UNL     1      44.964  -0.282  15.218  0.00  0.00    +0.000 C 
ATOM      8  C   UNL     1      44.834   0.550  13.949  0.00  0.00    +0.000 C 
ENDROOT
BRANCH   1  11
ATOM      9  O   UNL     1      38.964   1.125  14.799  0.00  0.00    +0.000 OA
ATOM     10  C   UNL     1      38.506   0.590  13.759  0.00  0.00    +0.000 C 
ATOM     11  N   UNL     1      39.426  -0.051  12.891  0.00  0.00    +0.000 NA
BRANCH  10  12
ATOM     12  C   UNL     1      37.048   0.647  13.483  0.00  0.00    +0.000 C 
BRANCH  12  13
ATOM     13  C   UNL     1      36.326   0.830  14.762  0.00  0.00    +0.000 A 
ATOM     14  C   UNL     1      36.111   2.085  15.287  0.00  0.00    +0.000 A 
ATOM     15  C   UNL     1      35.425   2.223  16.498  0.00  0.00    +0.000 A 
ATOM     16  C   UNL     1      34.967   1.108  17.162  0.00  0.00    +0.000 A 
ATOM     17  C   UNL     1      35.185  -0.145  16.632  0.00  0.00    +0.000 A 
ATOM     18  C   UNL     1      34.730  -1.264  17.290  0.00  0.00    +0.000 A 
ATOM     19  C   UNL     1      34.942  -2.522  16.768  0.00  0.00    +0.000 A 
ATOM     20  C   UNL     1      35.614  -2.681  15.578  0.00  0.00    +0.000 A 
ATOM     21  C   UNL     1      36.066  -1.559  14.927  0.00  0.00    +0.000 A 
ATOM     22  C   UNL     1      35.867  -0.287  15.426  0.00  0.00    +0.000 A 
ENDBRANCH  12  13
ENDBRANCH  10  12
ENDBRANCH   1  11
BRANCH   5  23
ATOM     23  C   UNL     1      40.775  -2.127  14.588  0.00  0.00    +0.000 C 
ATOM     24  O   UNL     1      40.865  -3.230  14.049  0.00  0.00    +0.000 OA
ATOM     25  N   UNL     1      39.955  -2.010  15.740  0.00  0.00    +0.000 NA
BRANCH  25  26
ATOM     26  C   UNL     1      39.230  -3.141  16.298  0.00  0.00    +0.000 C 
BRANCH  26  27
ATOM     27  C   UNL     1      38.643  -2.710  17.615  0.00  0.00    +0.000 A 
ATOM     28  C   UNL     1      38.419  -3.433  18.746  0.00  0.00    +0.000 A 
ATOM     29  C   UNL     1      37.867  -2.610  19.688  0.00  0.00    +0.000 A 
ATOM     30  C   UNL     1      37.770  -1.366  19.077  0.00  0.00    +0.000 A 
ATOM     31  O   UNL     1      38.238  -1.477  17.862  0.00  0.00    +0.000 OA
ENDBRANCH  26  27
ENDBRANCH  25  26
ENDBRANCH   5  23
TORSDOF 6
ENDMDL
MODEL 2
REMARK VINA RESULT:      -7.9      4.273      7.364
REMARK  Name = 
REMARK  6 active torsions:
REMARK  status: ('A' for Active; 'I' for Inactive)
REMARK    1  A    between atoms: C_2  and  C_3
REMARK    2  A    between atoms: C_3  and  C_4
REMARK    3  A    between atoms: N_14  and  C_15
REMARK    4  A    between atoms: C_19  and  C_20
REMARK    5  A    between atoms: N_22  and  C_23
REMARK    6  A    between atoms: C_23  and  C_24
REMARK                            x       y       z     vdW  Elec       q    Type
REMARK                         _______ _______ _______ _____ _____    ______ ____
ROOT
ATOM      1  C   UNL     1      36.258   2.080  15.806  0.00  0.00    +0.000 A 
ATOM      2  S   UNL     1      34.946   1.629  16.803  0.00  0.00    +0.000 S 
ATOM      3  C   UNL     1      35.091  -0.057  16.707  0.00  0.00    +0.000 A 
ATOM      4  C   UNL     1      36.162  -0.234  15.898  0.00  0.00    +0.000 A 
ATOM      5  C   UNL     1      36.788   0.877  15.414  0.00  0.00    +0.000 A 
ATOM      6  C   UNL     1      36.355  -1.733  15.770  0.00  0.00    +0.000 C 
ATOM      7  C   UNL     1      35.021  -2.323  16.058  0.00  0.00    +0.000 C 
ATOM      8  C   UNL     1      34.518  -1.387  17.149  0.00  0.00    +0.000 C 
ENDROOT
BRANCH   1  11
ATOM      9  O   UNL     1      37.914   3.476  17.397  0.00  0.00    +0.000 OA
ATOM     10  C   UNL     1      37.576   4.086  16.352  0.00  0.00    +0.000 C 
ATOM     11  N   UNL     1      36.701   3.419  15.457  0.00  0.00    +0.000 NA
BRANCH  10  12
ATOM     12  C   UNL     1      38.092   5.454  16.098  0.00  0.00    +0.000 C 
BRANCH  12  13
ATOM     13  C   UNL     1      39.098   5.786  17.132  0.00  0.00    +0.000 A 
ATOM     14  C   UNL     1      38.761   5.836  18.466  0.00  0.00    +0.000 A 
ATOM     15  C   UNL     1      39.736   6.154  19.417  0.00  0.00    +0.000 A 
ATOM     16  C   UNL     1      41.028   6.415  19.021  0.00  0.00    +0.000 A 
ATOM     17  C   UNL     1      41.359   6.363  17.684  0.00  0.00    +0.000 A 
ATOM     18  C   UNL     1      42.648   6.624  17.280  0.00  0.00    +0.000 A 
ATOM     19  C   UNL     1      42.990   6.575  15.945  0.00  0.00    +0.000 A 
ATOM     20  C   UNL     1      42.047   6.265  14.992  0.00  0.00    +0.000 A 
ATOM     21  C   UNL     1      40.762   6.006  15.404  0.00  0.00    +0.000 A 
ATOM     22  C   UNL     1      40.392   6.048  16.733  0.00  0.00    +0.000 A 
ENDBRANCH  12  13
ENDBRANCH  10  12
ENDBRANCH   1  11
BRANCH   5  23
ATOM     23  C   UNL     1      37.981   0.872  14.513  0.00  0.00    +0.000 C 
ATOM     24  O   UNL     1      37.835   0.861  13.291  0.00  0.00    +0.000 OA
ATOM     25  N   UNL     1      39.303   0.876  15.029  0.00  0.00    +0.000 NA
BRANCH  25  26
ATOM     26  C   UNL     1      40.475   0.871  14.168  0.00  0.00    +0.000 C 
BRANCH  26  27
ATOM     27  C   UNL     1      40.826  -0.562  13.873  0.00  0.00    +0.000 A 
ATOM     28  C   UNL     1      40.906  -1.629  14.713  0.00  0.00    +0.000 A 
ATOM     29  C   UNL     1      41.262  -2.732  13.987  0.00  0.00    +0.000 A 
ATOM     30  C   UNL     1      41.391  -2.282  12.678  0.00  0.00    +0.000 A 
ATOM     31  O   UNL     1      41.125  -1.003  12.664  0.00  0.00    +0.000 OA
ENDBRANCH  26  27
ENDBRANCH  25  26
ENDBRANCH   5  23
TORSDOF 6
ENDMDL
MODEL 3
REMARK VINA RESULT:      -7.7      2.569      5.753
REMARK  Name = 
REMARK  6 active torsions:
REMARK  status: ('A' for Active; 'I' for Inactive)
REMARK    1  A    between atoms: C_2  and  C_3
REMARK    2  A    between atoms: C_3  and  C_4
REMARK    3  A    between atoms: N_14  and  C_15
REMARK    4  A    between atoms: C_19  and  C_20
REMARK    5  A    between atoms: N_22  and  C_23
REMARK    6  A    between atoms: C_23  and  C_24
REMARK                            x       y       z     vdW  Elec       q    Type
REMARK                         _______ _______ _______ _____ _____    ______ ____
ROOT
ATOM      1  C   UNL     1      35.456   1.629  15.306  0.00  0.00    +0.000 A 
ATOM      2  S   UNL     1      34.832   3.219  15.347  0.00  0.00    +0.000 S 
ATOM      3  C   UNL     1      35.738   3.906  14.091  0.00  0.00    +0.000 A 
ATOM      4  C   UNL     1      36.511   2.880  13.664  0.00  0.00    +0.000 A 
ATOM      5  C   UNL     1      36.378   1.676  14.291  0.00  0.00    +0.000 A 
ATOM      6  C   UNL     1      37.354   3.427  12.527  0.00  0.00    +0.000 C 
ATOM      7  C   UNL     1      37.415   4.894  12.760  0.00  0.00    +0.000 C 
ATOM      8  C   UNL     1      36.014   5.164  13.293  0.00  0.00    +0.000 C 
ENDROOT
BRANCH   1  11
ATOM      9  O   UNL     1      36.527   1.298  17.749  0.00  0.00    +0.000 OA
ATOM     10  C   UNL     1      35.709   0.401  17.424  0.00  0.00    +0.000 C 
ATOM     11  N   UNL     1      35.098   0.502  16.148  0.00  0.00    +0.000 NA
BRANCH  10  12
ATOM     12  C   UNL     1      35.418  -0.707  18.368  0.00  0.00    +0.000 C 
BRANCH  12  13
ATOM     13  C   UNL     1      36.463  -1.745  18.224  0.00  0.00    +0.000 A 
ATOM     14  C   UNL     1      37.609  -1.714  18.987  0.00  0.00    +0.000 A 
ATOM     15  C   UNL     1      38.578  -2.710  18.825  0.00  0.00    +0.000 A 
ATOM     16  C   UNL     1      38.386  -3.717  17.907  0.00  0.00    +0.000 A 
ATOM     17  C   UNL     1      37.237  -3.742  17.147  0.00  0.00    +0.000 A 
ATOM     18  C   UNL     1      37.038  -4.745  16.226  0.00  0.00    +0.000 A 
ATOM     19  C   UNL     1      35.892  -4.780  15.461  0.00  0.00    +0.000 A 
ATOM     20  C   UNL     1      34.926  -3.811  15.603  0.00  0.00    +0.000 A 
ATOM     21  C   UNL     1      35.132  -2.812  16.524  0.00  0.00    +0.000 A 
ATOM     22  C   UNL     1      36.269  -2.753  17.304  0.00  0.00    +0.000 A 
ENDBRANCH  12  13
ENDBRANCH  10  12
ENDBRANCH   1  11
BRANCH   5  23
ATOM     23  C   UNL     1      37.145   0.438  13.954  0.00  0.00    +0.000 C 
ATOM     24  O   UNL     1      37.006  -0.098  12.855  0.00  0.00    +0.000 OA
ATOM     25  N   UNL     1      38.045  -0.154  14.878  0.00  0.00    +0.000 NA
BRANCH  25  26
ATOM     26  C   UNL     1      38.800  -1.358  14.568  0.00  0.00    +0.000 C 
BRANCH  26  27
ATOM     27  C   UNL     1      40.239  -0.964  14.375  0.00  0.00    +0.000 A 
ATOM     28  C   UNL     1      41.374  -1.690  14.567  0.00  0.00    +0.000 A 
ATOM     29  C   UNL     1      42.452  -0.907  14.261  0.00  0.00    +0.000 A 
ATOM     30  C   UNL     1      41.918   0.317  13.877  0.00  0.00    +0.000 A 
ATOM     31  O   UNL     1      40.617   0.232  13.960  0.00  0.00    +0.000 OA
ENDBRANCH  26  27
ENDBRANCH  25  26
ENDBRANCH   5  23
TORSDOF 6
ENDMDL
MODEL 4
REMARK VINA RESULT:      -7.6      2.534      5.669
REMARK  Name = 
REMARK  6 active torsions:
REMARK  status: ('A' for Active; 'I' for Inactive)
REMARK    1  A    between atoms: C_2  and  C_3
REMARK    2  A    between atoms: C_3  and  C_4
REMARK    3  A    between atoms: N_14  and  C_15
REMARK    4  A    between atoms: C_19  and  C_20
REMARK    5  A    between atoms: N_22  and  C_23
REMARK    6  A    between atoms: C_23  and  C_24
REMARK                            x       y       z     vdW  Elec       q    Type
REMARK                         _______ _______ _______ _____ _____    ______ ____
ROOT
ATOM      1  C   UNL     1      36.832   2.183  15.874  0.00  0.00    +0.000 A 
ATOM      2  S   UNL     1      36.614   3.833  16.262  0.00  0.00    +0.000 S 
ATOM      3  C   UNL     1      36.822   4.510  14.723  0.00  0.00    +0.000 A 
ATOM      4  C   UNL     1      37.058   3.434  13.936  0.00  0.00    +0.000 A 
ATOM      5  C   UNL     1      37.069   2.203  14.523  0.00  0.00    +0.000 A 
ATOM      6  C   UNL     1      37.252   3.970  12.530  0.00  0.00    +0.000 C 
ATOM      7  C   UNL     1      37.683   5.381  12.708  0.00  0.00    +0.000 C 
ATOM      8  C   UNL     1      36.849   5.791  13.915  0.00  0.00    +0.000 C 
ENDROOT
BRANCH   1  11
ATOM      9  O   UNL     1      34.511   1.285  16.888  0.00  0.00    +0.000 OA
ATOM     10  C   UNL     1      35.516   0.628  17.255  0.00  0.00    +0.000 C 
ATOM     11  N   UNL     1      36.783   1.037  16.765  0.00  0.00    +0.000 NA
BRANCH  10  12
ATOM     12  C   UNL     1      35.345  -0.529  18.170  0.00  0.00    +0.000 C 
BRANCH  12  13
ATOM     13  C   UNL     1      35.500  -1.780  17.395  0.00  0.00    +0.000 A 
ATOM     14  C   UNL     1      34.575  -2.149  16.444  0.00  0.00    +0.000 A 
ATOM     15  C   UNL     1      34.751  -3.339  15.730  0.00  0.00    +0.000 A 
ATOM     16  C   UNL     1      35.845  -4.137  15.977  0.00  0.00    +0.000 A 
ATOM     17  C   UNL     1      36.767  -3.761  16.930  0.00  0.00    +0.000 A 
ATOM     18  C   UNL     1      37.863  -4.554  17.182  0.00  0.00    +0.000 A 
ATOM     19  C   UNL     1      38.792  -4.188  18.133  0.00  0.00    +0.000 A 
ATOM     20  C   UNL     1      38.639  -3.022  18.848  0.00  0.00    +0.000 A 
ATOM     21  C   UNL     1      37.542  -2.236  18.590  0.00  0.00    +0.000 A 
ATOM     22  C   UNL     1      36.596  -2.578  17.644  0.00  0.00    +0.000 A 
ENDBRANCH  12  13
ENDBRANCH  10  12
ENDBRANCH   1  11
BRANCH   5  23
ATOM     23  C   UNL     1      37.311   0.910  13.813  0.00  0.00    +0.000 C 
ATOM     24  O   UNL     1      36.395   0.101  13.667  0.00  0.00    +0.000 OA
ATOM     25  N   UNL     1      38.588   0.575  13.292  0.00  0.00    +0.000 NA
BRANCH  25  26
ATOM     26  C   UNL     1      38.842  -0.678  12.598  0.00  0.00    +0.000 C 
BRANCH  26  27
ATOM     27  C   UNL     1      39.688  -1.540  13.496  0.00  0.00    +0.000 A 
ATOM     28  C   UNL     1      39.354  -2.194  14.642  0.00  0.00    +0.000 A 
ATOM     29  C   UNL     1      40.458  -2.851  15.108  0.00  0.00    +0.000 A 
ATOM     30  C   UNL     1      41.467  -2.566  14.196  0.00  0.00    +0.000 A 
ATOM     31  O   UNL     1      40.964  -1.794  13.269  0.00  0.00    +0.000 OA
ENDBRANCH  26  27
ENDBRANCH  25  26
ENDBRANCH   5  23
TORSDOF 6
ENDMDL
MODEL 5
REMARK VINA RESULT:      -7.5      3.584      5.433
REMARK  Name = 
REMARK  6 active torsions:
REMARK  status: ('A' for Active; 'I' for Inactive)
REMARK    1  A    between atoms: C_2  and  C_3
REMARK    2  A    between atoms: C_3  and  C_4
REMARK    3  A    between atoms: N_14  and  C_15
REMARK    4  A    between atoms: C_19  and  C_20
REMARK    5  A    between atoms: N_22  and  C_23
REMARK    6  A    between atoms: C_23  and  C_24
REMARK                            x       y       z     vdW  Elec       q    Type
REMARK                         _______ _______ _______ _____ _____    ______ ____
ROOT
ATOM      1  C   UNL     1      40.432   0.672  13.975  0.00  0.00    +0.000 A 
ATOM      2  S   UNL     1      41.738   0.585  12.878  0.00  0.00    +0.000 S 
ATOM      3  C   UNL     1      41.674  -1.066  12.499  0.00  0.00    +0.000 A 
ATOM      4  C   UNL     1      40.633  -1.516  13.238  0.00  0.00    +0.000 A 
ATOM      5  C   UNL     1      39.968  -0.618  14.020  0.00  0.00    +0.000 A 
ATOM      6  C   UNL     1      40.513  -2.999  12.942  0.00  0.00    +0.000 C 
ATOM      7  C   UNL     1      41.865  -3.415  12.486  0.00  0.00    +0.000 C 
ATOM      8  C   UNL     1      42.297  -2.188  11.696  0.00  0.00    +0.000 C 
ENDROOT
BRANCH   1  11
ATOM      9  O   UNL     1      38.670   2.367  12.860  0.00  0.00    +0.000 OA
ATOM     10  C   UNL     1      39.007   2.678  14.029  0.00  0.00    +0.000 C 
ATOM     11  N   UNL     1      39.935   1.835  14.690  0.00  0.00    +0.000 NA
BRANCH  10  12
ATOM     12  C   UNL     1      38.434   3.892  14.662  0.00  0.00    +0.000 C 
BRANCH  12  13
ATOM     13  C   UNL     1      39.538   4.803  15.038  0.00  0.00    +0.000 A 
ATOM     14  C   UNL     1      40.438   5.258  14.101  0.00  0.00    +0.000 A 
ATOM     15  C   UNL     1      41.471   6.118  14.490  0.00  0.00    +0.000 A 
ATOM     16  C   UNL     1      41.587   6.506  15.805  0.00  0.00    +0.000 A 
ATOM     17  C   UNL     1      40.682   6.047  16.738  0.00  0.00    +0.000 A 
ATOM     18  C   UNL     1      40.791   6.431  18.055  0.00  0.00    +0.000 A 
ATOM     19  C   UNL     1      39.892   5.978  18.996  0.00  0.00    +0.000 A 
ATOM     20  C   UNL     1      38.868   5.133  18.636  0.00  0.00    +0.000 A 
ATOM     21  C   UNL     1      38.766   4.753  17.319  0.00  0.00    +0.000 A 
ATOM     22  C   UNL     1      39.652   5.191  16.356  0.00  0.00    +0.000 A 
ENDBRANCH  12  13
ENDBRANCH  10  12
ENDBRANCH   1  11
BRANCH   5  23
ATOM     23  C   UNL     1      38.800  -0.937  14.897  0.00  0.00    +0.000 C 
ATOM     24  O   UNL     1      38.956  -1.089  16.108  0.00  0.00    +0.000 OA
ATOM     25  N   UNL     1      37.490  -1.075  14.369  0.00  0.00    +0.000 NA
BRANCH  25  26
ATOM     26  C   UNL     1      36.341  -1.385  15.207  0.00  0.00    +0.000 C 
BRANCH  26  27
ATOM     27  C   UNL     1      35.768  -0.085  15.704  0.00  0.00    +0.000 A 
ATOM     28  C   UNL     1      35.119   0.191  16.867  0.00  0.00    +0.000 A 
ATOM     29  C   UNL     1      34.782   1.516  16.876  0.00  0.00    +0.000 A 
ATOM     30  C   UNL     1      35.256   2.023  15.672  0.00  0.00    +0.000 A 
ATOM     31  O   UNL     1      35.826   1.044  15.021  0.00  0.00    +0.000 OA
ENDBRANCH  26  27
ENDBRANCH  25  26
ENDBRANCH   5  23
TORSDOF 6
ENDMDL
MODEL 6
REMARK VINA RESULT:      -7.4      3.309      6.492
REMARK  Name = 
REMARK  6 active torsions:
REMARK  status: ('A' for Active; 'I' for Inactive)
REMARK    1  A    between atoms: C_2  and  C_3
REMARK    2  A    between atoms: C_3  and  C_4
REMARK    3  A    between atoms: N_14  and  C_15
REMARK    4  A    between atoms: C_19  and  C_20
REMARK    5  A    between atoms: N_22  and  C_23
REMARK    6  A    between atoms: C_23  and  C_24
REMARK                            x       y       z     vdW  Elec       q    Type
REMARK                         _______ _______ _______ _____ _____    ______ ____
ROOT
ATOM      1  C   UNL     1      35.841  -0.016  17.182  0.00  0.00    +0.000 A 
ATOM      2  S   UNL     1      35.605  -0.441  18.820  0.00  0.00    +0.000 S 
ATOM      3  C   UNL     1      36.920  -1.490  19.027  0.00  0.00    +0.000 A 
ATOM      4  C   UNL     1      37.518  -1.488  17.812  0.00  0.00    +0.000 A 
ATOM      5  C   UNL     1      36.964  -0.720  16.830  0.00  0.00    +0.000 A 
ATOM      6  C   UNL     1      38.716  -2.411  17.926  0.00  0.00    +0.000 C 
ATOM      7  C   UNL     1      38.392  -3.332  19.047  0.00  0.00    +0.000 C 
ATOM      8  C   UNL     1      37.658  -2.393  19.995  0.00  0.00    +0.000 C 
ENDROOT
BRANCH   1  11
ATOM      9  O   UNL     1      36.328   2.624  17.079  0.00  0.00    +0.000 OA
ATOM     10  C   UNL     1      35.364   2.255  16.363  0.00  0.00    +0.000 C 
ATOM     11  N   UNL     1      35.040   0.874  16.361  0.00  0.00    +0.000 NA
BRANCH  10  12
ATOM     12  C   UNL     1      34.614   3.256  15.563  0.00  0.00    +0.000 C 
BRANCH  12  13
ATOM     13  C   UNL     1      35.448   3.671  14.413  0.00  0.00    +0.000 A 
ATOM     14  C   UNL     1      36.429   2.846  13.908  0.00  0.00    +0.000 A 
ATOM     15  C   UNL     1      37.200   3.270  12.820  0.00  0.00    +0.000 A 
ATOM     16  C   UNL     1      36.979   4.506  12.257  0.00  0.00    +0.000 A 
ATOM     17  C   UNL     1      35.995   5.326  12.767  0.00  0.00    +0.000 A 
ATOM     18  C   UNL     1      35.768   6.563  12.209  0.00  0.00    +0.000 A 
ATOM     19  C   UNL     1      34.787   7.391  12.711  0.00  0.00    +0.000 A 
ATOM     20  C   UNL     1      34.017   6.996  13.780  0.00  0.00    +0.000 A 
ATOM     21  C   UNL     1      34.250   5.759  14.332  0.00  0.00    +0.000 A 
ATOM     22  C   UNL     1      35.225   4.909  13.850  0.00  0.00    +0.000 A 
ENDBRANCH  12  13
ENDBRANCH  10  12
ENDBRANCH   1  11
BRANCH   5  23
ATOM     23  C   UNL     1      37.488  -0.596  15.435  0.00  0.00    +0.000 C 
ATOM     24  O   UNL     1      36.901  -1.143  14.501  0.00  0.00    +0.000 OA
ATOM     25  N   UNL     1      38.664   0.144  15.144  0.00  0.00    +0.000 NA
BRANCH  25  26
ATOM     26  C   UNL     1      39.187   0.275  13.794  0.00  0.00    +0.000 C 
BRANCH  26  27
ATOM     27  C   UNL     1      40.350  -0.670  13.655  0.00  0.00    +0.000 A 
ATOM     28  C   UNL     1      40.931  -1.477  14.582  0.00  0.00    +0.000 A 
ATOM     29  C   UNL     1      41.960  -2.155  13.990  0.00  0.00    +0.000 A 
ATOM     30  C   UNL     1      41.972  -1.722  12.670  0.00  0.00    +0.000 A 
ATOM     31  O   UNL     1      41.008  -0.851  12.524  0.00  0.00    +0.000 OA
ENDBRANCH  26  27
ENDBRANCH  25  26
ENDBRANCH   5  23
TORSDOF 6
ENDMDL
MODEL 7
REMARK VINA RESULT:      -7.4      4.395      7.389
REMARK  Name = 
REMARK  6 active torsions:
REMARK  status: ('A' for Active; 'I' for Inactive)
REMARK    1  A    between atoms: C_2  and  C_3
REMARK    2  A    between atoms: C_3  and  C_4
REMARK    3  A    between atoms: N_14  and  C_15
REMARK    4  A    between atoms: C_19  and  C_20
REMARK    5  A    between atoms: N_22  and  C_23
REMARK    6  A    between atoms: C_23  and  C_24
REMARK                            x       y       z     vdW  Elec       q    Type
REMARK                         _______ _______ _______ _____ _____    ______ ____
ROOT
ATOM      1  C   UNL     1      36.363   2.074  15.786  0.00  0.00    +0.000 A 
ATOM      2  S   UNL     1      35.154   1.253  16.672  0.00  0.00    +0.000 S 
ATOM      3  C   UNL     1      35.531  -0.342  16.242  0.00  0.00    +0.000 A 
ATOM      4  C   UNL     1      36.594  -0.202  15.415  0.00  0.00    +0.000 A 
ATOM      5  C   UNL     1      37.044   1.061  15.162  0.00  0.00    +0.000 A 
ATOM      6  C   UNL     1      36.990  -1.603  14.991  0.00  0.00    +0.000 C 
ATOM      7  C   UNL     1      35.760  -2.422  15.154  0.00  0.00    +0.000 C 
ATOM      8  C   UNL     1      35.161  -1.801  16.410  0.00  0.00    +0.000 C 
ENDROOT
BRANCH   1  11
ATOM      9  O   UNL     1      37.757   3.369  17.683  0.00  0.00    +0.000 OA
ATOM     10  C   UNL     1      37.350   4.110  16.754  0.00  0.00    +0.000 C 
ATOM     11  N   UNL     1      36.605   3.505  15.710  0.00  0.00    +0.000 NA
BRANCH  10  12
ATOM     12  C   UNL     1      37.659   5.562  16.781  0.00  0.00    +0.000 C 
BRANCH  12  13
ATOM     13  C   UNL     1      39.106   5.749  16.532  0.00  0.00    +0.000 A 
ATOM     14  C   UNL     1      39.638   5.599  15.271  0.00  0.00    +0.000 A 
ATOM     15  C   UNL     1      41.011   5.782  15.071  0.00  0.00    +0.000 A 
ATOM     16  C   UNL     1      41.825   6.110  16.131  0.00  0.00    +0.000 A 
ATOM     17  C   UNL     1      41.286   6.258  17.390  0.00  0.00    +0.000 A 
ATOM     18  C   UNL     1      42.094   6.585  18.455  0.00  0.00    +0.000 A 
ATOM     19  C   UNL     1      41.565   6.736  19.719  0.00  0.00    +0.000 A 
ATOM     20  C   UNL     1      40.218   6.561  19.939  0.00  0.00    +0.000 A 
ATOM     21  C   UNL     1      39.418   6.234  18.871  0.00  0.00    +0.000 A 
ATOM     22  C   UNL     1      39.920   6.077  17.595  0.00  0.00    +0.000 A 
ENDBRANCH  12  13
ENDBRANCH  10  12
ENDBRANCH   1  11
BRANCH   5  23
ATOM     23  C   UNL     1      38.201   1.403  14.279  0.00  0.00    +0.000 C 
ATOM     24  O   UNL     1      38.010   1.754  13.115  0.00  0.00    +0.000 OA
ATOM     25  N   UNL     1      39.540   1.333  14.745  0.00  0.00    +0.000 NA
BRANCH  25  26
ATOM     26  C   UNL     1      40.677   1.662  13.900  0.00  0.00    +0.000 C 
BRANCH  26  27
ATOM     27  C   UNL     1      41.492   0.411  13.714  0.00  0.00    +0.000 A 
ATOM     28  C   UNL     1      41.357  -0.810  14.298  0.00  0.00    +0.000 A 
ATOM     29  C   UNL     1      42.334  -1.636  13.815  0.00  0.00    +0.000 A 
ATOM     30  C   UNL     1      43.058  -0.861  12.918  0.00  0.00    +0.000 A 
ATOM     31  O   UNL     1      42.525   0.331  12.894  0.00  0.00    +0.000 OA
ENDBRANCH  26  27
ENDBRANCH  25  26
ENDBRANCH   5  23
TORSDOF 6
ENDMDL
MODEL 8
REMARK VINA RESULT:      -7.4     28.648     31.863
REMARK  Name = 
REMARK  6 active torsions:
REMARK  status: ('A' for Active; 'I' for Inactive)
REMARK    1  A    between atoms: C_2  and  C_3
REMARK    2  A    between atoms: C_3  and  C_4
REMARK    3  A    between atoms: N_14  and  C_15
REMARK    4  A    between atoms: C_19  and  C_20
REMARK    5  A    between atoms: N_22  and  C_23
REMARK    6  A    between atoms: C_23  and  C_24
REMARK                            x       y       z     vdW  Elec       q    Type
REMARK                         _______ _______ _______ _____ _____    ______ ____
ROOT
ATOM      1  C   UNL     1      24.697  15.714  40.640  0.00  0.00    +0.000 A 
ATOM      2  S   UNL     1      23.213  16.525  40.888  0.00  0.00    +0.000 S 
ATOM      3  C   UNL     1      22.653  15.669  42.240  0.00  0.00    +0.000 A 
ATOM      4  C   UNL     1      23.636  14.768  42.470  0.00  0.00    +0.000 A 
ATOM      5  C   UNL     1      24.717  14.775  41.639  0.00  0.00    +0.000 A 
ATOM      6  C   UNL     1      23.199  13.963  43.680  0.00  0.00    +0.000 C 
ATOM      7  C   UNL     1      21.718  14.084  43.713  0.00  0.00    +0.000 C 
ATOM      8  C   UNL     1      21.531  15.522  43.247  0.00  0.00    +0.000 C 
ENDROOT
BRANCH   1  11
ATOM      9  O   UNL     1      24.418  14.754  38.146  0.00  0.00    +0.000 OA
ATOM     10  C   UNL     1      25.469  15.418  38.322  0.00  0.00    +0.000 C 
ATOM     11  N   UNL     1      25.694  15.961  39.613  0.00  0.00    +0.000 NA
BRANCH  10  12
ATOM     12  C   UNL     1      26.419  15.606  37.196  0.00  0.00    +0.000 C 
BRANCH  12  13
ATOM     13  C   UNL     1      25.823  16.543  36.219  0.00  0.00    +0.000 A 
ATOM     14  C   UNL     1      25.504  17.836  36.572  0.00  0.00    +0.000 A 
ATOM     15  C   UNL     1      24.941  18.696  35.623  0.00  0.00    +0.000 A 
ATOM     16  C   UNL     1      24.705  18.251  34.342  0.00  0.00    +0.000 A 
ATOM     17  C   UNL     1      25.026  16.957  33.995  0.00  0.00    +0.000 A 
ATOM     18  C   UNL     1      24.793  16.505  32.716  0.00  0.00    +0.000 A 
ATOM     19  C   UNL     1      25.111  15.212  32.359  0.00  0.00    +0.000 A 
ATOM     20  C   UNL     1      25.666  14.349  33.276  0.00  0.00    +0.000 A 
ATOM     21  C   UNL     1      25.895  14.807  34.550  0.00  0.00    +0.000 A 
ATOM     22  C   UNL     1      25.587  16.096  34.936  0.00  0.00    +0.000 A 
ENDBRANCH  12  13
ENDBRANCH  10  12
ENDBRANCH   1  11
BRANCH   5  23
ATOM     23  C   UNL     1      25.892  13.856  41.744  0.00  0.00    +0.000 C 
ATOM     24  O   UNL     1      26.794  14.091  42.548  0.00  0.00    +0.000 OA
ATOM     25  N   UNL     1      26.007  12.700  40.929  0.00  0.00    +0.000 NA
BRANCH  25  26
ATOM     26  C   UNL     1      27.142  11.795  41.017  0.00  0.00    +0.000 C 
BRANCH  26  27
ATOM     27  C   UNL     1      26.653  10.494  41.593  0.00  0.00    +0.000 A 
ATOM     28  C   UNL     1      26.057  10.241  42.789  0.00  0.00    +0.000 A 
ATOM     29  C   UNL     1      25.790   8.903  42.871  0.00  0.00    +0.000 A 
ATOM     30  C   UNL     1      26.250   8.364  41.676  0.00  0.00    +0.000 A 
ATOM     31  O   UNL     1      26.747   9.338  40.961  0.00  0.00    +0.000 OA
ENDBRANCH  26  27
ENDBRANCH  25  26
ENDBRANCH   5  23
TORSDOF 6
ENDMDL
MODEL 9
REMARK VINA RESULT:      -7.4      3.216      5.678
REMARK  Name = 
REMARK  6 active torsions:
REMARK  status: ('A' for Active; 'I' for Inactive)
REMARK    1  A    between atoms: C_2  and  C_3
REMARK    2  A    between atoms: C_3  and  C_4
REMARK    3  A    between atoms: N_14  and  C_15
REMARK    4  A    between atoms: C_19  and  C_20
REMARK    5  A    between atoms: N_22  and  C_23
REMARK    6  A    between atoms: C_23  and  C_24
REMARK                            x       y       z     vdW  Elec       q    Type
REMARK                         _______ _______ _______ _____ _____    ______ ____
ROOT
ATOM      1  C   UNL     1      37.068   2.518  15.994  0.00  0.00    +0.000 A 
ATOM      2  S   UNL     1      37.420   3.930  16.889  0.00  0.00    +0.000 S 
ATOM      3  C   UNL     1      37.850   4.965  15.618  0.00  0.00    +0.000 A 
ATOM      4  C   UNL     1      37.710   4.187  14.519  0.00  0.00    +0.000 A 
ATOM      5  C   UNL     1      37.301   2.898  14.697  0.00  0.00    +0.000 A 
ATOM      6  C   UNL     1      38.077   5.057  13.332  0.00  0.00    +0.000 C 
ATOM      7  C   UNL     1      38.960   6.118  13.886  0.00  0.00    +0.000 C 
ATOM      8  C   UNL     1      38.311   6.358  15.243  0.00  0.00    +0.000 C 
ENDROOT
BRANCH   1  11
ATOM      9  O   UNL     1      34.492   2.033  16.584  0.00  0.00    +0.000 OA
ATOM     10  C   UNL     1      35.253   1.052  16.778  0.00  0.00    +0.000 C 
ATOM     11  N   UNL     1      36.631   1.225  16.491  0.00  0.00    +0.000 NA
BRANCH  10  12
ATOM     12  C   UNL     1      34.694  -0.224  17.290  0.00  0.00    +0.000 C 
BRANCH  12  13
ATOM     13  C   UNL     1      35.811  -1.119  17.667  0.00  0.00    +0.000 A 
ATOM     14  C   UNL     1      36.626  -0.830  18.739  0.00  0.00    +0.000 A 
ATOM     15  C   UNL     1      37.674  -1.697  19.067  0.00  0.00    +0.000 A 
ATOM     16  C   UNL     1      37.889  -2.834  18.322  0.00  0.00    +0.000 A 
ATOM     17  C   UNL     1      37.069  -3.117  17.251  0.00  0.00    +0.000 A 
ATOM     18  C   UNL     1      37.277  -4.252  16.501  0.00  0.00    +0.000 A 
ATOM     19  C   UNL     1      36.463  -4.544  15.428  0.00  0.00    +0.000 A 
ATOM     20  C   UNL     1      35.426  -3.706  15.086  0.00  0.00    +0.000 A 
ATOM     21  C   UNL     1      35.225  -2.575  15.840  0.00  0.00    +0.000 A 
ATOM     22  C   UNL     1      36.024  -2.257  16.919  0.00  0.00    +0.000 A 
ENDBRANCH  12  13
ENDBRANCH  10  12
ENDBRANCH   1  11
BRANCH   5  23
ATOM     23  C   UNL     1      37.093   1.900  13.603  0.00  0.00    +0.000 C 
ATOM     24  O   UNL     1      35.963   1.486  13.347  0.00  0.00    +0.000 OA
ATOM     25  N   UNL     1      38.178   1.400  12.836  0.00  0.00    +0.000 NA
BRANCH  25  26
ATOM     26  C   UNL     1      37.995   0.429  11.768  0.00  0.00    +0.000 C 
BRANCH  26  27
ATOM     27  C   UNL     1      38.497  -0.900  12.261  0.00  0.00    +0.000 A 
ATOM     28  C   UNL     1      38.060  -1.666  13.298  0.00  0.00    +0.000 A 
ATOM     29  C   UNL     1      38.829  -2.794  13.363  0.00  0.00    +0.000 A 
ATOM     30  C   UNL     1      39.744  -2.675  12.324  0.00  0.00    +0.000 A 
ATOM     31  O   UNL     1      39.508  -1.547  11.708  0.00  0.00    +0.000 OA
ENDBRANCH  26  27
ENDBRANCH  25  26
ENDBRANCH   5  23
TORSDOF 6
ENDMDL
MODEL 10
REMARK VINA RESULT:      -7.3      4.931      8.085
REMARK  Name = 
REMARK  6 active torsions:
REMARK  status: ('A' for Active; 'I' for Inactive)
REMARK    1  A    between atoms: C_2  and  C_3
REMARK    2  A    between atoms: C_3  and  C_4
REMARK    3  A    between atoms: N_14  and  C_15
REMARK    4  A    between atoms: C_19  and  C_20
REMARK    5  A    between atoms: N_22  and  C_23
REMARK    6  A    between atoms: C_23  and  C_24
REMARK                            x       y       z     vdW  Elec       q    Type
REMARK                         _______ _______ _______ _____ _____    ______ ____
ROOT
ATOM      1  C   UNL     1      36.631   2.415  15.818  0.00  0.00    +0.000 A 
ATOM      2  S   UNL     1      35.360   1.607  16.626  0.00  0.00    +0.000 S 
ATOM      3  C   UNL     1      35.730   0.010  16.198  0.00  0.00    +0.000 A 
ATOM      4  C   UNL     1      36.840   0.138  15.433  0.00  0.00    +0.000 A 
ATOM      5  C   UNL     1      37.327   1.394  15.221  0.00  0.00    +0.000 A 
ATOM      6  C   UNL     1      37.233  -1.266  15.015  0.00  0.00    +0.000 C 
ATOM      7  C   UNL     1      35.980  -2.062  15.100  0.00  0.00    +0.000 C 
ATOM      8  C   UNL     1      35.324  -1.444  16.328  0.00  0.00    +0.000 C 
ENDROOT
BRANCH   1  11
ATOM      9  O   UNL     1      38.051   3.638  17.744  0.00  0.00    +0.000 OA
ATOM     10  C   UNL     1      37.662   4.408  16.830  0.00  0.00    +0.000 C 
ATOM     11  N   UNL     1      36.905   3.840  15.773  0.00  0.00    +0.000 NA
BRANCH  10  12
ATOM     12  C   UNL     1      38.002   5.852  16.888  0.00  0.00    +0.000 C 
BRANCH  12  13
ATOM     13  C   UNL     1      39.464   6.007  16.720  0.00  0.00    +0.000 A 
ATOM     14  C   UNL     1      40.056   5.893  15.482  0.00  0.00    +0.000 A 
ATOM     15  C   UNL     1      41.441   6.044  15.359  0.00  0.00    +0.000 A 
ATOM     16  C   UNL     1      42.209   6.305  16.471  0.00  0.00    +0.000 A 
ATOM     17  C   UNL     1      41.610   6.418  17.707  0.00  0.00    +0.000 A 
ATOM     18  C   UNL     1      42.371   6.678  18.824  0.00  0.00    +0.000 A 
ATOM     19  C   UNL     1      41.782   6.793  20.065  0.00  0.00    +0.000 A 
ATOM     20  C   UNL     1      40.421   6.648  20.210  0.00  0.00    +0.000 A 
ATOM     21  C   UNL     1      39.668   6.387  19.090  0.00  0.00    +0.000 A 
ATOM     22  C   UNL     1      40.231   6.268  17.835  0.00  0.00    +0.000 A 
ENDBRANCH  12  13
ENDBRANCH  10  12
ENDBRANCH   1  11
BRANCH   5  23
ATOM     23  C   UNL     1      38.537   1.724  14.407  0.00  0.00    +0.000 C 
ATOM     24  O   UNL     1      39.624   1.902  14.956  0.00  0.00    +0.000 OA
ATOM     25  N   UNL     1      38.474   1.844  12.994  0.00  0.00    +0.000 NA
BRANCH  25  26
ATOM     26  C   UNL     1      39.640   2.164  12.187  0.00  0.00    +0.000 C 
BRANCH  26  27
ATOM     27  C   UNL     1      39.677   3.656  11.999  0.00  0.00    +0.000 A 
ATOM     28  C   UNL     1      40.732   4.513  12.043  0.00  0.00    +0.000 A 
ATOM     29  C   UNL     1      40.276   5.781  11.812  0.00  0.00    +0.000 A 
ATOM     30  C   UNL     1      38.905   5.650  11.628  0.00  0.00    +0.000 A 
ATOM     31  O   UNL     1      38.603   4.384  11.747  0.00  0.00    +0.000 OA
ENDBRANCH  26  27
ENDBRANCH  25  26
ENDBRANCH   5  23
TORSDOF 6
ENDMDL
