MODEL 1
REMARK VINA RESULT:      -7.3      0.000      0.000
REMARK  Name = 
REMARK  3 active torsions:
REMARK  status: ('A' for Active; 'I' for Inactive)
REMARK    1  A    between atoms: C_2  and  O_3
REMARK    2  A    between atoms: O_3  and  C_4
REMARK    3  A    between atoms: N_6  and  C_7
REMARK                            x       y       z     vdW  Elec       q    Type
REMARK                         _______ _______ _______ _____ _____    ______ ____
ROOT
ATOM      1  C   UNL     1      17.398  10.037  36.715  0.00  0.00    +0.000 A 
ATOM      2  C   UNL     1      17.853   9.227  35.728  0.00  0.00    +0.000 A 
ATOM      3  C   UNL     1      17.408   9.348  34.419  0.00  0.00    +0.000 A 
ATOM      4  C   UNL     1      16.463  10.328  34.098  0.00  0.00    +0.000 A 
ATOM      5  C   UNL     1      16.004  11.149  35.105  0.00  0.00    +0.000 A 
ATOM      6  C   UNL     1      16.467  11.005  36.405  0.00  0.00    +0.000 A 
ATOM      7  N   UNL     1      15.037  12.210  34.967  0.00  0.00    +0.000 NA
ATOM      8  C   UNL     1      14.702  12.916  33.760  0.00  0.00    +0.000 A 
ATOM      9  C   UNL     1      13.757  13.882  33.912  0.00  0.00    +0.000 A 
ATOM     10  C   UNL     1      13.324  14.655  32.838  0.00  0.00    +0.000 A 
ATOM     11  C   UNL     1      13.880  14.418  31.599  0.00  0.00    +0.000 A 
ATOM     12  C   UNL     1      14.852  13.427  31.439  0.00  0.00    +0.000 A 
ATOM     13  C   UNL     1      15.263  12.679  32.514  0.00  0.00    +0.000 A 
ATOM     14  C   UNL     1      16.297  11.698  32.089  0.00  0.00    +0.000 C 
ATOM     15  C   UNL     1      16.080  10.343  32.683  0.00  0.00    +0.000 C 
ENDROOT
BRANCH   1  18
ATOM     16  C   UNL     1      18.921  10.683  38.583  0.00  0.00    +0.000 C 
ATOM     17  O   UNL     1      19.513  11.462  37.795  0.00  0.00    +0.000 OA
ATOM     18  N   UNL     1      17.840   9.936  38.083  0.00  0.00    +0.000 NA
BRANCH  16  19
ATOM     19  O   UNL     1      19.375  10.613  39.891  0.00  0.00    +0.000 OA
BRANCH  19  21
ATOM     20  C   UNL     1      19.503   9.773  42.091  0.00  0.00    +0.000 C 
ATOM     21  C   UNL     1      18.748   9.705  40.775  0.00  0.00    +0.000 C 
ENDBRANCH  19  21
ENDBRANCH  16  19
ENDBRANCH   1  18
TORSDOF 3
ENDMDL
MODEL 2
REMARK VINA RESULT:      -7.1      3.668      8.094
REMARK  Name = 
REMARK  3 active torsions:
REMARK  status: ('A' for Active; 'I' for Inactive)
REMARK    1  A    between atoms: C_2  and  O_3
REMARK    2  A    between atoms: O_3  and  C_4
REMARK    3  A    between atoms: N_6  and  C_7
REMARK                            x       y       z     vdW  Elec       q    Type
REMARK                         _______ _______ _______ _____ _____    ______ ____
ROOT
ATOM      1  C   UNL     1      17.698   9.972  35.995  0.00  0.00    +0.000 A 
ATOM      2  C   UNL     1      17.364  10.542  37.178  0.00  0.00    +0.000 A 
ATOM      3  C   UNL     1      18.317  10.845  38.139  0.00  0.00    +0.000 A 
ATOM      4  C   UNL     1      19.663  10.559  37.893  0.00  0.00    +0.000 A 
ATOM      5  C   UNL     1      19.999   9.980  36.688  0.00  0.00    +0.000 A 
ATOM      6  C   UNL     1      19.025   9.688  35.745  0.00  0.00    +0.000 A 
ATOM      7  N   UNL     1      21.326   9.615  36.256  0.00  0.00    +0.000 NA
ATOM      8  C   UNL     1      22.567  10.156  36.742  0.00  0.00    +0.000 A 
ATOM      9  C   UNL     1      23.678   9.638  36.156  0.00  0.00    +0.000 A 
ATOM     10  C   UNL     1      24.956  10.058  36.516  0.00  0.00    +0.000 A 
ATOM     11  C   UNL     1      25.074  11.021  37.494  0.00  0.00    +0.000 A 
ATOM     12  C   UNL     1      23.933  11.556  38.100  0.00  0.00    +0.000 A 
ATOM     13  C   UNL     1      22.684  11.126  37.726  0.00  0.00    +0.000 A 
ATOM     14  C   UNL     1      21.642  11.841  38.510  0.00  0.00    +0.000 C 
ATOM     15  C   UNL     1      20.561  10.928  38.992  0.00  0.00    +0.000 C 
ENDROOT
BRANCH   1  18
ATOM     16  C   UNL     1      16.408  10.529  33.932  0.00  0.00    +0.000 C 
ATOM     17  O   UNL     1      16.991  11.642  33.901  0.00  0.00    +0.000 OA
ATOM     18  N   UNL     1      16.733   9.646  34.976  0.00  0.00    +0.000 NA
BRANCH  16  19
ATOM     19  O   UNL     1      15.485  10.250  32.937  0.00  0.00    +0.000 OA
BRANCH  19  21
ATOM     20  C   UNL     1      14.672  11.307  30.992  0.00  0.00    +0.000 C 
ATOM     21  C   UNL     1      15.832  10.535  31.596  0.00  0.00    +0.000 C 
ENDBRANCH  19  21
ENDBRANCH  16  19
ENDBRANCH   1  18
TORSDOF 3
ENDMDL
MODEL 3
REMARK VINA RESULT:      -6.9     20.074     22.276
REMARK  Name = 
REMARK  3 active torsions:
REMARK  status: ('A' for Active; 'I' for Inactive)
REMARK    1  A    between atoms: C_2  and  O_3
REMARK    2  A    between atoms: O_3  and  C_4
REMARK    3  A    between atoms: N_6  and  C_7
REMARK                            x       y       z     vdW  Elec       q    Type
REMARK                         _______ _______ _______ _____ _____    ______ ____
ROOT
ATOM      1  C   UNL     1      28.781  23.857  22.418  0.00  0.00    +0.000 A 
ATOM      2  C   UNL     1      27.447  23.803  22.644  0.00  0.00    +0.000 A 
ATOM      3  C   UNL     1      26.927  23.407  23.868  0.00  0.00    +0.000 A 
ATOM      4  C   UNL     1      27.795  23.051  24.905  0.00  0.00    +0.000 A 
ATOM      5  C   UNL     1      29.152  23.108  24.670  0.00  0.00    +0.000 A 
ATOM      6  C   UNL     1      29.643  23.507  23.436  0.00  0.00    +0.000 A 
ATOM      7  N   UNL     1      30.196  22.782  25.611  0.00  0.00    +0.000 NA
ATOM      8  C   UNL     1      30.088  22.775  27.045  0.00  0.00    +0.000 A 
ATOM      9  C   UNL     1      31.232  22.436  27.697  0.00  0.00    +0.000 A 
ATOM     10  C   UNL     1      31.291  22.384  29.087  0.00  0.00    +0.000 A 
ATOM     11  C   UNL     1      30.151  22.686  29.800  0.00  0.00    +0.000 A 
ATOM     12  C   UNL     1      28.973  23.035  29.134  0.00  0.00    +0.000 A 
ATOM     13  C   UNL     1      28.941  23.080  27.762  0.00  0.00    +0.000 A 
ATOM     14  C   UNL     1      27.585  23.475  27.296  0.00  0.00    +0.000 C 
ATOM     15  C   UNL     1      27.114  22.651  26.141  0.00  0.00    +0.000 C 
ENDROOT
BRANCH   1  18
ATOM     16  C   UNL     1      29.452  25.612  20.775  0.00  0.00    +0.000 C 
ATOM     17  O   UNL     1      29.022  26.483  21.573  0.00  0.00    +0.000 OA
ATOM     18  N   UNL     1      29.351  24.263  21.159  0.00  0.00    +0.000 NA
BRANCH  16  19
ATOM     19  O   UNL     1      29.993  26.040  19.573  0.00  0.00    +0.000 OA
BRANCH  19  21
ATOM     20  C   UNL     1      31.038  27.622  18.171  0.00  0.00    +0.000 C 
ATOM     21  C   UNL     1      30.069  27.430  19.325  0.00  0.00    +0.000 C 
ENDBRANCH  19  21
ENDBRANCH  16  19
ENDBRANCH   1  18
TORSDOF 3
ENDMDL
MODEL 4
REMARK VINA RESULT:      -6.8      2.910      7.743
REMARK  Name = 
REMARK  3 active torsions:
REMARK  status: ('A' for Active; 'I' for Inactive)
REMARK    1  A    between atoms: C_2  and  O_3
REMARK    2  A    between atoms: O_3  and  C_4
REMARK    3  A    between atoms: N_6  and  C_7
REMARK                            x       y       z     vdW  Elec       q    Type
REMARK                         _______ _______ _______ _____ _____    ______ ____
ROOT
ATOM      1  C   UNL     1      15.930  11.567  35.203  0.00  0.00    +0.000 A 
ATOM      2  C   UNL     1      15.220  11.440  36.350  0.00  0.00    +0.000 A 
ATOM      3  C   UNL     1      15.771  10.877  37.493  0.00  0.00    +0.000 A 
ATOM      4  C   UNL     1      17.093  10.424  37.472  0.00  0.00    +0.000 A 
ATOM      5  C   UNL     1      17.812  10.556  36.303  0.00  0.00    +0.000 A 
ATOM      6  C   UNL     1      17.235  11.122  35.176  0.00  0.00    +0.000 A 
ATOM      7  N   UNL     1      19.180  10.150  36.091  0.00  0.00    +0.000 NA
ATOM      8  C   UNL     1      20.186   9.962  37.100  0.00  0.00    +0.000 A 
ATOM      9  C   UNL     1      21.402   9.583  36.624  0.00  0.00    +0.000 A 
ATOM     10  C   UNL     1      22.481   9.360  37.475  0.00  0.00    +0.000 A 
ATOM     11  C   UNL     1      22.291   9.532  38.829  0.00  0.00    +0.000 A 
ATOM     12  C   UNL     1      21.042   9.921  39.323  0.00  0.00    +0.000 A 
ATOM     13  C   UNL     1      19.994  10.136  38.463  0.00  0.00    +0.000 A 
ATOM     14  C   UNL     1      18.782  10.539  39.226  0.00  0.00    +0.000 C 
ATOM     15  C   UNL     1      17.546   9.850  38.743  0.00  0.00    +0.000 C 
ENDROOT
BRANCH   1  18
ATOM     16  C   UNL     1      14.978  11.367  32.905  0.00  0.00    +0.000 C 
ATOM     17  O   UNL     1      15.098  10.119  32.993  0.00  0.00    +0.000 OA
ATOM     18  N   UNL     1      15.387  12.146  34.001  0.00  0.00    +0.000 NA
BRANCH  16  19
ATOM     19  O   UNL     1      14.452  11.889  31.733  0.00  0.00    +0.000 OA
BRANCH  19  21
ATOM     20  C   UNL     1      15.374  13.701  30.538  0.00  0.00    +0.000 C 
ATOM     21  C   UNL     1      14.366  13.294  31.599  0.00  0.00    +0.000 C 
ENDBRANCH  19  21
ENDBRANCH  16  19
ENDBRANCH   1  18
TORSDOF 3
ENDMDL
MODEL 5
REMARK VINA RESULT:      -6.6      3.457      7.873
REMARK  Name = 
REMARK  3 active torsions:
REMARK  status: ('A' for Active; 'I' for Inactive)
REMARK    1  A    between atoms: C_2  and  O_3
REMARK    2  A    between atoms: O_3  and  C_4
REMARK    3  A    between atoms: N_6  and  C_7
REMARK                            x       y       z     vdW  Elec       q    Type
REMARK                         _______ _______ _______ _____ _____    ______ ____
ROOT
ATOM      1  C   UNL     1      17.468  10.148  37.495  0.00  0.00    +0.000 A 
ATOM      2  C   UNL     1      17.496   9.929  38.832  0.00  0.00    +0.000 A 
ATOM      3  C   UNL     1      18.680   9.666  39.506  0.00  0.00    +0.000 A 
ATOM      4  C   UNL     1      19.884   9.624  38.797  0.00  0.00    +0.000 A 
ATOM      5  C   UNL     1      19.851   9.848  37.437  0.00  0.00    +0.000 A 
ATOM      6  C   UNL     1      18.652  10.108  36.790  0.00  0.00    +0.000 A 
ATOM      7  N   UNL     1      20.983   9.845  36.544  0.00  0.00    +0.000 NA
ATOM      8  C   UNL     1      22.359  10.060  36.900  0.00  0.00    +0.000 A 
ATOM      9  C   UNL     1      23.229  10.012  35.856  0.00  0.00    +0.000 A 
ATOM     10  C   UNL     1      24.597  10.201  36.037  0.00  0.00    +0.000 A 
ATOM     11  C   UNL     1      25.059  10.439  37.313  0.00  0.00    +0.000 A 
ATOM     12  C   UNL     1      24.168  10.489  38.389  0.00  0.00    +0.000 A 
ATOM     13  C   UNL     1      22.824  10.301  38.185  0.00  0.00    +0.000 A 
ATOM     14  C   UNL     1      22.092  10.401  39.476  0.00  0.00    +0.000 C 
ATOM     15  C   UNL     1      21.056   9.335  39.630  0.00  0.00    +0.000 C 
ENDROOT
BRANCH   1  18
ATOM     16  C   UNL     1      15.753  11.725  36.600  0.00  0.00    +0.000 C 
ATOM     17  O   UNL     1      16.398  12.674  37.113  0.00  0.00    +0.000 OA
ATOM     18  N   UNL     1      16.255  10.423  36.767  0.00  0.00    +0.000 NA
BRANCH  16  19
ATOM     19  O   UNL     1      14.591  12.027  35.908  0.00  0.00    +0.000 OA
BRANCH  19  21
ATOM     20  C   UNL     1      13.783  13.827  34.616  0.00  0.00    +0.000 C 
ATOM     21  C   UNL     1      14.703  12.618  34.628  0.00  0.00    +0.000 C 
ENDBRANCH  19  21
ENDBRANCH  16  19
ENDBRANCH   1  18
TORSDOF 3
ENDMDL
MODEL 6
REMARK VINA RESULT:      -6.5     17.232     18.679
REMARK  Name = 
REMARK  3 active torsions:
REMARK  status: ('A' for Active; 'I' for Inactive)
REMARK    1  A    between atoms: C_2  and  O_3
REMARK    2  A    between atoms: O_3  and  C_4
REMARK    3  A    between atoms: N_6  and  C_7
REMARK                            x       y       z     vdW  Elec       q    Type
REMARK                         _______ _______ _______ _____ _____    ______ ____
ROOT
ATOM      1  C   UNL     1      26.800  23.365  29.464  0.00  0.00    +0.000 A 
ATOM      2  C   UNL     1      28.059  22.922  29.696  0.00  0.00    +0.000 A 
ATOM      3  C   UNL     1      28.911  22.562  28.662  0.00  0.00    +0.000 A 
ATOM      4  C   UNL     1      28.469  22.653  27.338  0.00  0.00    +0.000 A 
ATOM      5  C   UNL     1      27.188  23.105  27.107  0.00  0.00    +0.000 A 
ATOM      6  C   UNL     1      26.358  23.458  28.161  0.00  0.00    +0.000 A 
ATOM      7  N   UNL     1      26.559  23.267  25.819  0.00  0.00    +0.000 NA
ATOM      8  C   UNL     1      27.223  23.433  24.554  0.00  0.00    +0.000 A 
ATOM      9  C   UNL     1      26.387  23.573  23.490  0.00  0.00    +0.000 A 
ATOM     10  C   UNL     1      26.875  23.743  22.197  0.00  0.00    +0.000 A 
ATOM     11  C   UNL     1      28.241  23.766  22.013  0.00  0.00    +0.000 A 
ATOM     12  C   UNL     1      29.103  23.622  23.104  0.00  0.00    +0.000 A 
ATOM     13  C   UNL     1      28.597  23.457  24.369  0.00  0.00    +0.000 A 
ATOM     14  C   UNL     1      29.708  23.328  25.351  0.00  0.00    +0.000 C 
ATOM     15  C   UNL     1      29.467  22.240  26.347  0.00  0.00    +0.000 C 
ENDROOT
BRANCH   1  18
ATOM     16  C   UNL     1      25.777  25.071  30.970  0.00  0.00    +0.000 C 
ATOM     17  O   UNL     1      26.501  25.944  30.428  0.00  0.00    +0.000 OA
ATOM     18  N   UNL     1      25.892  23.746  30.515  0.00  0.00    +0.000 NA
BRANCH  16  19
ATOM     19  O   UNL     1      24.916  25.475  31.978  0.00  0.00    +0.000 OA
BRANCH  19  21
ATOM     20  C   UNL     1      23.025  26.767  31.416  0.00  0.00    +0.000 C 
ATOM     21  C   UNL     1      24.440  26.806  31.967  0.00  0.00    +0.000 C 
ENDBRANCH  19  21
ENDBRANCH  16  19
ENDBRANCH   1  18
TORSDOF 3
ENDMDL
MODEL 7
REMARK VINA RESULT:      -6.4      2.545      7.955
REMARK  Name = 
REMARK  3 active torsions:
REMARK  status: ('A' for Active; 'I' for Inactive)
REMARK    1  A    between atoms: C_2  and  O_3
REMARK    2  A    between atoms: O_3  and  C_4
REMARK    3  A    between atoms: N_6  and  C_7
REMARK                            x       y       z     vdW  Elec       q    Type
REMARK                         _______ _______ _______ _____ _____    ______ ____
ROOT
ATOM      1  C   UNL     1      18.212   9.625  35.844  0.00  0.00    +0.000 A 
ATOM      2  C   UNL     1      19.557   9.724  35.971  0.00  0.00    +0.000 A 
ATOM      3  C   UNL     1      20.167   9.858  37.210  0.00  0.00    +0.000 A 
ATOM      4  C   UNL     1      19.383   9.894  38.367  0.00  0.00    +0.000 A 
ATOM      5  C   UNL     1      18.015   9.793  38.233  0.00  0.00    +0.000 A 
ATOM      6  C   UNL     1      17.432   9.660  36.981  0.00  0.00    +0.000 A 
ATOM      7  N   UNL     1      17.048   9.810  39.303  0.00  0.00    +0.000 NA
ATOM      8  C   UNL     1      17.289   9.486  40.683  0.00  0.00    +0.000 A 
ATOM      9  C   UNL     1      16.195   9.576  41.486  0.00  0.00    +0.000 A 
ATOM     10  C   UNL     1      16.264   9.295  42.848  0.00  0.00    +0.000 A 
ATOM     11  C   UNL     1      17.481   8.919  43.375  0.00  0.00    +0.000 A 
ATOM     12  C   UNL     1      18.608   8.826  42.553  0.00  0.00    +0.000 A 
ATOM     13  C   UNL     1      18.514   9.107  41.213  0.00  0.00    +0.000 A 
ATOM     14  C   UNL     1      19.839   8.936  40.561  0.00  0.00    +0.000 C 
ATOM     15  C   UNL     1      20.154  10.041  39.605  0.00  0.00    +0.000 C 
ENDROOT
BRANCH   1  18
ATOM     16  C   UNL     1      17.045  10.586  33.859  0.00  0.00    +0.000 C 
ATOM     17  O   UNL     1      17.185  11.729  34.363  0.00  0.00    +0.000 OA
ATOM     18  N   UNL     1      17.549   9.485  34.573  0.00  0.00    +0.000 NA
BRANCH  16  19
ATOM     19  O   UNL     1      16.401  10.490  32.635  0.00  0.00    +0.000 OA
BRANCH  19  21
ATOM     20  C   UNL     1      14.883  11.197  30.974  0.00  0.00    +0.000 C 
ATOM     21  C   UNL     1      15.805  11.652  32.092  0.00  0.00    +0.000 C 
ENDBRANCH  19  21
ENDBRANCH  16  19
ENDBRANCH   1  18
TORSDOF 3
ENDMDL
MODEL 8
REMARK VINA RESULT:      -6.3     17.633     18.552
REMARK  Name = 
REMARK  3 active torsions:
REMARK  status: ('A' for Active; 'I' for Inactive)
REMARK    1  A    between atoms: C_2  and  O_3
REMARK    2  A    between atoms: O_3  and  C_4
REMARK    3  A    between atoms: N_6  and  C_7
REMARK                            x       y       z     vdW  Elec       q    Type
REMARK                         _______ _______ _______ _____ _____    ______ ____
ROOT
ATOM      1  C   UNL     1      30.071  22.841  29.503  0.00  0.00    +0.000 A 
ATOM      2  C   UNL     1      31.246  22.659  28.854  0.00  0.00    +0.000 A 
ATOM      3  C   UNL     1      31.301  22.472  27.480  0.00  0.00    +0.000 A 
ATOM      4  C   UNL     1      30.119  22.468  26.734  0.00  0.00    +0.000 A 
ATOM      5  C   UNL     1      28.926  22.654  27.400  0.00  0.00    +0.000 A 
ATOM      6  C   UNL     1      28.901  22.838  28.774  0.00  0.00    +0.000 A 
ATOM      7  N   UNL     1      27.612  22.681  26.805  0.00  0.00    +0.000 NA
ATOM      8  C   UNL     1      27.296  22.970  25.432  0.00  0.00    +0.000 A 
ATOM      9  C   UNL     1      25.969  22.936  25.137  0.00  0.00    +0.000 A 
ATOM     10  C   UNL     1      25.501  23.194  23.852  0.00  0.00    +0.000 A 
ATOM     11  C   UNL     1      26.421  23.488  22.870  0.00  0.00    +0.000 A 
ATOM     12  C   UNL     1      27.786  23.525  23.169  0.00  0.00    +0.000 A 
ATOM     13  C   UNL     1      28.223  23.267  24.444  0.00  0.00    +0.000 A 
ATOM     14  C   UNL     1      29.705  23.368  24.507  0.00  0.00    +0.000 C 
ATOM     15  C   UNL     1      30.321  22.258  25.297  0.00  0.00    +0.000 C 
ENDROOT
BRANCH   1  18
ATOM     16  C   UNL     1      30.577  22.162  31.851  0.00  0.00    +0.000 C 
ATOM     17  O   UNL     1      31.210  21.174  31.399  0.00  0.00    +0.000 OA
ATOM     18  N   UNL     1      29.980  23.038  30.928  0.00  0.00    +0.000 NA
BRANCH  16  19
ATOM     19  O   UNL     1      30.511  22.319  33.226  0.00  0.00    +0.000 OA
BRANCH  19  21
ATOM     20  C   UNL     1      30.701  21.631  35.474  0.00  0.00    +0.000 C 
ATOM     21  C   UNL     1      30.531  21.162  34.039  0.00  0.00    +0.000 C 
ENDBRANCH  19  21
ENDBRANCH  16  19
ENDBRANCH   1  18
TORSDOF 3
ENDMDL
MODEL 9
REMARK VINA RESULT:      -6.2     20.261     22.665
REMARK  Name = 
REMARK  3 active torsions:
REMARK  status: ('A' for Active; 'I' for Inactive)
REMARK    1  A    between atoms: C_2  and  O_3
REMARK    2  A    between atoms: O_3  and  C_4
REMARK    3  A    between atoms: N_6  and  C_7
REMARK                            x       y       z     vdW  Elec       q    Type
REMARK                         _______ _______ _______ _____ _____    ______ ____
ROOT
ATOM      1  C   UNL     1      33.471  -4.251  33.720  0.00  0.00    +0.000 A 
ATOM      2  C   UNL     1      33.821  -4.383  35.023  0.00  0.00    +0.000 A 
ATOM      3  C   UNL     1      34.230  -3.297  35.784  0.00  0.00    +0.000 A 
ATOM      4  C   UNL     1      34.286  -2.026  35.202  0.00  0.00    +0.000 A 
ATOM      5  C   UNL     1      33.928  -1.898  33.877  0.00  0.00    +0.000 A 
ATOM      6  C   UNL     1      33.524  -3.001  33.140  0.00  0.00    +0.000 A 
ATOM      7  N   UNL     1      33.922  -0.677  33.109  0.00  0.00    +0.000 NA
ATOM      8  C   UNL     1      33.839   0.663  33.626  0.00  0.00    +0.000 A 
ATOM      9  C   UNL     1      33.845   1.637  32.677  0.00  0.00    +0.000 A 
ATOM     10  C   UNL     1      33.770   2.985  33.016  0.00  0.00    +0.000 A 
ATOM     11  C   UNL     1      33.690   3.318  34.351  0.00  0.00    +0.000 A 
ATOM     12  C   UNL     1      33.685   2.320  35.329  0.00  0.00    +0.000 A 
ATOM     13  C   UNL     1      33.758   0.997  34.969  0.00  0.00    +0.000 A 
ATOM     14  C   UNL     1      33.734   0.136  36.182  0.00  0.00    +0.000 C 
ATOM     15  C   UNL     1      34.736  -0.972  36.116  0.00  0.00    +0.000 C 
ENDROOT
BRANCH   1  18
ATOM     16  C   UNL     1      33.924  -6.066  32.069  0.00  0.00    +0.000 C 
ATOM     17  O   UNL     1      35.128  -5.705  32.044  0.00  0.00    +0.000 OA
ATOM     18  N   UNL     1      33.043  -5.359  32.904  0.00  0.00    +0.000 NA
BRANCH  16  19
ATOM     19  O   UNL     1      33.549  -7.135  31.270  0.00  0.00    +0.000 OA
BRANCH  19  21
ATOM     20  C   UNL     1      33.044  -5.991  29.270  0.00  0.00    +0.000 C 
ATOM     21  C   UNL     1      32.512  -6.942  30.329  0.00  0.00    +0.000 C 
ENDBRANCH  19  21
ENDBRANCH  16  19
ENDBRANCH   1  18
TORSDOF 3
ENDMDL
MODEL 10
REMARK VINA RESULT:      -6.2      2.751      3.687
REMARK  Name = 
REMARK  3 active torsions:
REMARK  status: ('A' for Active; 'I' for Inactive)
REMARK    1  A    between atoms: C_2  and  O_3
REMARK    2  A    between atoms: O_3  and  C_4
REMARK    3  A    between atoms: N_6  and  C_7
REMARK                            x       y       z     vdW  Elec       q    Type
REMARK                         _______ _______ _______ _____ _____    ______ ____
ROOT
ATOM      1  C   UNL     1      18.025   9.362  39.615  0.00  0.00    +0.000 A 
ATOM      2  C   UNL     1      18.883   9.193  38.580  0.00  0.00    +0.000 A 
ATOM      3  C   UNL     1      18.560   9.586  37.289  0.00  0.00    +0.000 A 
ATOM      4  C   UNL     1      17.316  10.174  37.036  0.00  0.00    +0.000 A 
ATOM      5  C   UNL     1      16.447  10.344  38.092  0.00  0.00    +0.000 A 
ATOM      6  C   UNL     1      16.797   9.940  39.372  0.00  0.00    +0.000 A 
ATOM      7  N   UNL     1      15.129  10.927  38.027  0.00  0.00    +0.000 NA
ATOM      8  C   UNL     1      14.636  11.827  37.020  0.00  0.00    +0.000 A 
ATOM      9  C   UNL     1      13.352  12.234  37.203  0.00  0.00    +0.000 A 
ATOM     10  C   UNL     1      12.730  13.107  36.314  0.00  0.00    +0.000 A 
ATOM     11  C   UNL     1      13.450  13.554  35.228  0.00  0.00    +0.000 A 
ATOM     12  C   UNL     1      14.770  13.137  35.036  0.00  0.00    +0.000 A 
ATOM     13  C   UNL     1      15.362  12.278  35.927  0.00  0.00    +0.000 A 
ATOM     14  C   UNL     1      16.759  11.987  35.506  0.00  0.00    +0.000 C 
ATOM     15  C   UNL     1      17.105  10.538  35.632  0.00  0.00    +0.000 C 
ENDROOT
BRANCH   1  18
ATOM     16  C   UNL     1      18.086   7.665  41.444  0.00  0.00    +0.000 C 
ATOM     17  O   UNL     1      17.580   6.832  40.651  0.00  0.00    +0.000 OA
ATOM     18  N   UNL     1      18.331   8.964  40.965  0.00  0.00    +0.000 NA
BRANCH  16  19
ATOM     19  O   UNL     1      18.367   7.247  42.735  0.00  0.00    +0.000 OA
BRANCH  19  21
ATOM     20  C   UNL     1      17.177   7.716  44.717  0.00  0.00    +0.000 C 
ATOM     21  C   UNL     1      17.304   6.769  43.536  0.00  0.00    +0.000 C 
ENDBRANCH  19  21
ENDBRANCH  16  19
ENDBRANCH   1  18
TORSDOF 3
ENDMDL
