MODEL 1
REMARK VINA RESULT:      -6.8      0.000      0.000
REMARK  Name = 
REMARK  2 active torsions:
REMARK  status: ('A' for Active; 'I' for Inactive)
REMARK    1  A    between atoms: C_4  and  S_5
REMARK    2  A    between atoms: S_5  and  C_6
REMARK                            x       y       z     vdW  Elec       q    Type
REMARK                         _______ _______ _______ _____ _____    ______ ____
ROOT
ATOM      1  N   UNL     1      20.003  14.114  39.011  0.00  0.00    +0.000 NA
ATOM      2  C   UNL     1      20.112  12.824  38.423  0.00  0.00    +0.000 A 
ATOM      3  N   UNL     1      18.999  12.122  38.097  0.00  0.00    +0.000 NA
ATOM      4  C   UNL     1      19.069  10.902  37.542  0.00  0.00    +0.000 A 
ATOM      5  C   UNL     1      20.336  10.384  37.313  0.00  0.00    +0.000 A 
ATOM      6  C   UNL     1      21.481  11.081  37.638  0.00  0.00    +0.000 A 
ATOM      7  N   UNL     1      22.776  10.571  37.413  0.00  0.00    +0.000 N 
ATOM      8  C   UNL     1      23.078   9.289  36.832  0.00  0.00    +0.000 C 
ATOM      9  C   UNL     1      24.210   9.627  35.888  0.00  0.00    +0.000 C 
ATOM     10  C   UNL     1      24.895  10.809  36.541  0.00  0.00    +0.000 C 
ATOM     11  C   UNL     1      24.029  11.209  37.711  0.00  0.00    +0.000 C 
ATOM     12  N   UNL     1      21.339  12.304  38.194  0.00  0.00    +0.000 NA
ENDROOT
BRANCH   4  13
ATOM     13  S   UNL     1      17.659   9.941  37.095  0.00  0.00    +0.000 S 
BRANCH  13  14
ATOM     14  C   UNL     1      16.870  10.524  35.613  0.00  0.00    +0.000 A 
ATOM     15  C   UNL     1      17.227  10.144  34.348  0.00  0.00    +0.000 A 
ATOM     16  C   UNL     1      16.554  10.650  33.235  0.00  0.00    +0.000 A 
ATOM     17  C   UNL     1      15.510  11.550  33.375  0.00  0.00    +0.000 A 
ATOM     18  F   UNL     1      14.881  12.021  32.270  0.00  0.00    +0.000 F 
ATOM     19  C   UNL     1      15.152  11.933  34.651  0.00  0.00    +0.000 A 
ATOM     20  C   UNL     1      15.833  11.418  35.747  0.00  0.00    +0.000 A 
ENDBRANCH  13  14
ENDBRANCH   4  13
TORSDOF 2
ENDMDL
MODEL 2
REMARK VINA RESULT:      -6.7      1.662      1.984
REMARK  Name = 
REMARK  2 active torsions:
REMARK  status: ('A' for Active; 'I' for Inactive)
REMARK    1  A    between atoms: C_4  and  S_5
REMARK    2  A    between atoms: S_5  and  C_6
REMARK                            x       y       z     vdW  Elec       q    Type
REMARK                         _______ _______ _______ _____ _____    ______ ____
ROOT
ATOM      1  N   UNL     1      20.283  14.581  38.676  0.00  0.00    +0.000 NA
ATOM      2  C   UNL     1      20.304  13.199  38.342  0.00  0.00    +0.000 A 
ATOM      3  N   UNL     1      19.154  12.482  38.314  0.00  0.00    +0.000 NA
ATOM      4  C   UNL     1      19.142  11.176  38.003  0.00  0.00    +0.000 A 
ATOM      5  C   UNL     1      20.363  10.585  37.708  0.00  0.00    +0.000 A 
ATOM      6  C   UNL     1      21.544  11.297  37.731  0.00  0.00    +0.000 A 
ATOM      7  N   UNL     1      22.793  10.713  37.434  0.00  0.00    +0.000 N 
ATOM      8  C   UNL     1      23.006   9.335  37.078  0.00  0.00    +0.000 C 
ATOM      9  C   UNL     1      23.996   9.450  35.940  0.00  0.00    +0.000 C 
ATOM     10  C   UNL     1      24.769  10.714  36.250  0.00  0.00    +0.000 C 
ATOM     11  C   UNL     1      24.078  11.358  37.428  0.00  0.00    +0.000 C 
ATOM     12  N   UNL     1      21.485  12.607  38.052  0.00  0.00    +0.000 NA
ENDROOT
BRANCH   4  13
ATOM     13  S   UNL     1      17.680  10.190  37.949  0.00  0.00    +0.000 S 
BRANCH  13  14
ATOM     14  C   UNL     1      16.262  11.092  37.371  0.00  0.00    +0.000 A 
ATOM     15  C   UNL     1      16.266  11.918  36.279  0.00  0.00    +0.000 A 
ATOM     16  C   UNL     1      15.107  12.591  35.891  0.00  0.00    +0.000 A 
ATOM     17  C   UNL     1      13.922  12.446  36.595  0.00  0.00    +0.000 A 
ATOM     18  F   UNL     1      12.816  13.117  36.187  0.00  0.00    +0.000 F 
ATOM     19  C   UNL     1      13.920  11.614  37.696  0.00  0.00    +0.000 A 
ATOM     20  C   UNL     1      15.083  10.952  38.067  0.00  0.00    +0.000 A 
ENDBRANCH  13  14
ENDBRANCH   4  13
TORSDOF 2
ENDMDL
MODEL 3
REMARK VINA RESULT:      -6.7     18.525     21.511
REMARK  Name = 
REMARK  2 active torsions:
REMARK  status: ('A' for Active; 'I' for Inactive)
REMARK    1  A    between atoms: C_4  and  S_5
REMARK    2  A    between atoms: S_5  and  C_6
REMARK                            x       y       z     vdW  Elec       q    Type
REMARK                         _______ _______ _______ _____ _____    ______ ____
ROOT
ATOM      1  N   UNL     1      36.615  -6.067  34.836  0.00  0.00    +0.000 NA
ATOM      2  C   UNL     1      35.487  -5.551  34.140  0.00  0.00    +0.000 A 
ATOM      3  N   UNL     1      34.731  -4.570  34.688  0.00  0.00    +0.000 NA
ATOM      4  C   UNL     1      33.661  -4.063  34.056  0.00  0.00    +0.000 A 
ATOM      5  C   UNL     1      33.358  -4.588  32.807  0.00  0.00    +0.000 A 
ATOM      6  C   UNL     1      34.114  -5.587  32.231  0.00  0.00    +0.000 A 
ATOM      7  N   UNL     1      33.821  -6.132  30.964  0.00  0.00    +0.000 N 
ATOM      8  C   UNL     1      32.725  -5.738  30.119  0.00  0.00    +0.000 C 
ATOM      9  C   UNL     1      33.378  -5.684  28.756  0.00  0.00    +0.000 C 
ATOM     10  C   UNL     1      34.485  -6.714  28.835  0.00  0.00    +0.000 C 
ATOM     11  C   UNL     1      34.539  -7.170  30.274  0.00  0.00    +0.000 C 
ATOM     12  N   UNL     1      35.177  -6.052  32.921  0.00  0.00    +0.000 NA
ENDROOT
BRANCH   4  13
ATOM     13  S   UNL     1      32.638  -2.786  34.717  0.00  0.00    +0.000 S 
BRANCH  13  14
ATOM     14  C   UNL     1      33.054  -1.177  34.087  0.00  0.00    +0.000 A 
ATOM     15  C   UNL     1      32.437  -0.017  34.467  0.00  0.00    +0.000 A 
ATOM     16  C   UNL     1      32.825   1.208  33.923  0.00  0.00    +0.000 A 
ATOM     17  C   UNL     1      33.843   1.288  32.986  0.00  0.00    +0.000 A 
ATOM     18  F   UNL     1      34.191   2.497  32.480  0.00  0.00    +0.000 F 
ATOM     19  C   UNL     1      34.464   0.117  32.604  0.00  0.00    +0.000 A 
ATOM     20  C   UNL     1      34.064  -1.093  33.156  0.00  0.00    +0.000 A 
ENDBRANCH  13  14
ENDBRANCH   4  13
TORSDOF 2
ENDMDL
MODEL 4
REMARK VINA RESULT:      -6.5     16.548     17.767
REMARK  Name = 
REMARK  2 active torsions:
REMARK  status: ('A' for Active; 'I' for Inactive)
REMARK    1  A    between atoms: C_4  and  S_5
REMARK    2  A    between atoms: S_5  and  C_6
REMARK                            x       y       z     vdW  Elec       q    Type
REMARK                         _______ _______ _______ _____ _____    ______ ____
ROOT
ATOM      1  N   UNL     1      25.782  21.098  31.100  0.00  0.00    +0.000 NA
ATOM      2  C   UNL     1      26.255  22.152  30.271  0.00  0.00    +0.000 A 
ATOM      3  N   UNL     1      27.097  21.891  29.241  0.00  0.00    +0.000 NA
ATOM      4  C   UNL     1      27.562  22.864  28.443  0.00  0.00    +0.000 A 
ATOM      5  C   UNL     1      27.142  24.159  28.715  0.00  0.00    +0.000 A 
ATOM      6  C   UNL     1      26.287  24.447  29.757  0.00  0.00    +0.000 A 
ATOM      7  N   UNL     1      25.850  25.756  30.048  0.00  0.00    +0.000 N 
ATOM      8  C   UNL     1      26.225  26.940  29.323  0.00  0.00    +0.000 C 
ATOM      9  C   UNL     1      24.908  27.676  29.214  0.00  0.00    +0.000 C 
ATOM     10  C   UNL     1      24.145  27.251  30.451  0.00  0.00    +0.000 C 
ATOM     11  C   UNL     1      24.965  26.165  31.104  0.00  0.00    +0.000 C 
ATOM     12  N   UNL     1      25.857  23.420  30.522  0.00  0.00    +0.000 NA
ENDROOT
BRANCH   4  13
ATOM     13  S   UNL     1      28.658  22.588  27.088  0.00  0.00    +0.000 S 
BRANCH  13  14
ATOM     14  C   UNL     1      27.898  22.904  25.513  0.00  0.00    +0.000 A 
ATOM     15  C   UNL     1      26.546  22.935  25.301  0.00  0.00    +0.000 A 
ATOM     16  C   UNL     1      26.030  23.191  24.030  0.00  0.00    +0.000 A 
ATOM     17  C   UNL     1      26.865  23.421  22.948  0.00  0.00    +0.000 A 
ATOM     18  F   UNL     1      26.326  23.665  21.728  0.00  0.00    +0.000 F 
ATOM     19  C   UNL     1      28.227  23.389  23.164  0.00  0.00    +0.000 A 
ATOM     20  C   UNL     1      28.723  23.132  24.435  0.00  0.00    +0.000 A 
ENDBRANCH  13  14
ENDBRANCH   4  13
TORSDOF 2
ENDMDL
MODEL 5
REMARK VINA RESULT:      -6.2      1.624      3.622
REMARK  Name = 
REMARK  2 active torsions:
REMARK  status: ('A' for Active; 'I' for Inactive)
REMARK    1  A    between atoms: C_4  and  S_5
REMARK    2  A    between atoms: S_5  and  C_6
REMARK                            x       y       z     vdW  Elec       q    Type
REMARK                         _______ _______ _______ _____ _____    ______ ____
ROOT
ATOM      1  N   UNL     1      22.490   9.493  37.546  0.00  0.00    +0.000 NA
ATOM      2  C   UNL     1      21.414  10.402  37.746  0.00  0.00    +0.000 A 
ATOM      3  N   UNL     1      20.135  10.009  37.533  0.00  0.00    +0.000 NA
ATOM      4  C   UNL     1      19.099  10.844  37.712  0.00  0.00    +0.000 A 
ATOM      5  C   UNL     1      19.393  12.135  38.129  0.00  0.00    +0.000 A 
ATOM      6  C   UNL     1      20.687  12.555  38.351  0.00  0.00    +0.000 A 
ATOM      7  N   UNL     1      21.004  13.862  38.774  0.00  0.00    +0.000 N 
ATOM      8  C   UNL     1      20.052  14.911  39.024  0.00  0.00    +0.000 C 
ATOM      9  C   UNL     1      20.581  15.522  40.303  0.00  0.00    +0.000 C 
ATOM     10  C   UNL     1      22.075  15.287  40.234  0.00  0.00    +0.000 C 
ATOM     11  C   UNL     1      22.311  14.402  39.033  0.00  0.00    +0.000 C 
ATOM     12  N   UNL     1      21.683  11.665  38.151  0.00  0.00    +0.000 NA
ENDROOT
BRANCH   4  13
ATOM     13  S   UNL     1      17.413  10.392  37.452  0.00  0.00    +0.000 S 
BRANCH  13  14
ATOM     14  C   UNL     1      16.859  10.729  35.798  0.00  0.00    +0.000 A 
ATOM     15  C   UNL     1      15.796  11.533  35.489  0.00  0.00    +0.000 A 
ATOM     16  C   UNL     1      15.426  11.746  34.160  0.00  0.00    +0.000 A 
ATOM     17  C   UNL     1      16.119  11.152  33.117  0.00  0.00    +0.000 A 
ATOM     18  F   UNL     1      15.728  11.382  31.839  0.00  0.00    +0.000 F 
ATOM     19  C   UNL     1      17.190  10.341  33.430  0.00  0.00    +0.000 A 
ATOM     20  C   UNL     1      17.543  10.141  34.758  0.00  0.00    +0.000 A 
ENDBRANCH  13  14
ENDBRANCH   4  13
TORSDOF 2
ENDMDL
MODEL 6
REMARK VINA RESULT:      -6.0     17.542     18.660
REMARK  Name = 
REMARK  2 active torsions:
REMARK  status: ('A' for Active; 'I' for Inactive)
REMARK    1  A    between atoms: C_4  and  S_5
REMARK    2  A    between atoms: S_5  and  C_6
REMARK                            x       y       z     vdW  Elec       q    Type
REMARK                         _______ _______ _______ _____ _____    ______ ____
ROOT
ATOM      1  N   UNL     1      25.677  24.171  30.169  0.00  0.00    +0.000 NA
ATOM      2  C   UNL     1      26.497  23.744  29.089  0.00  0.00    +0.000 A 
ATOM      3  N   UNL     1      25.992  23.660  27.834  0.00  0.00    +0.000 NA
ATOM      4  C   UNL     1      26.741  23.260  26.795  0.00  0.00    +0.000 A 
ATOM      5  C   UNL     1      28.064  22.933  27.058  0.00  0.00    +0.000 A 
ATOM      6  C   UNL     1      28.598  23.010  28.328  0.00  0.00    +0.000 A 
ATOM      7  N   UNL     1      29.939  22.682  28.613  0.00  0.00    +0.000 N 
ATOM      8  C   UNL     1      30.910  22.232  27.652  0.00  0.00    +0.000 C 
ATOM      9  C   UNL     1      32.140  23.016  28.053  0.00  0.00    +0.000 C 
ATOM     10  C   UNL     1      31.976  23.226  29.543  0.00  0.00    +0.000 C 
ATOM     11  C   UNL     1      30.594  22.727  29.893  0.00  0.00    +0.000 C 
ATOM     12  N   UNL     1      27.789  23.420  29.328  0.00  0.00    +0.000 NA
ENDROOT
BRANCH   4  13
ATOM     13  S   UNL     1      26.142  23.132  25.140  0.00  0.00    +0.000 S 
BRANCH  13  14
ATOM     14  C   UNL     1      27.213  23.917  23.959  0.00  0.00    +0.000 A 
ATOM     15  C   UNL     1      28.237  23.286  23.306  0.00  0.00    +0.000 A 
ATOM     16  C   UNL     1      29.032  23.977  22.391  0.00  0.00    +0.000 A 
ATOM     17  C   UNL     1      28.811  25.317  22.116  0.00  0.00    +0.000 A 
ATOM     18  F   UNL     1      29.605  25.955  21.220  0.00  0.00    +0.000 F 
ATOM     19  C   UNL     1      27.778  25.952  22.774  0.00  0.00    +0.000 A 
ATOM     20  C   UNL     1      26.998  25.248  23.682  0.00  0.00    +0.000 A 
ENDBRANCH  13  14
ENDBRANCH   4  13
TORSDOF 2
ENDMDL
MODEL 7
REMARK VINA RESULT:      -5.9      1.805      2.194
REMARK  Name = 
REMARK  2 active torsions:
REMARK  status: ('A' for Active; 'I' for Inactive)
REMARK    1  A    between atoms: C_4  and  S_5
REMARK    2  A    between atoms: S_5  and  C_6
REMARK                            x       y       z     vdW  Elec       q    Type
REMARK                         _______ _______ _______ _____ _____    ______ ____
ROOT
ATOM      1  N   UNL     1      21.373  11.649  41.903  0.00  0.00    +0.000 NA
ATOM      2  C   UNL     1      21.138  10.992  40.664  0.00  0.00    +0.000 A 
ATOM      3  N   UNL     1      19.879  10.654  40.293  0.00  0.00    +0.000 NA
ATOM      4  C   UNL     1      19.625  10.033  39.131  0.00  0.00    +0.000 A 
ATOM      5  C   UNL     1      20.712   9.749  38.316  0.00  0.00    +0.000 A 
ATOM      6  C   UNL     1      22.001  10.084  38.673  0.00  0.00    +0.000 A 
ATOM      7  N   UNL     1      23.117   9.804  37.858  0.00  0.00    +0.000 N 
ATOM      8  C   UNL     1      23.072   9.148  36.579  0.00  0.00    +0.000 C 
ATOM      9  C   UNL     1      24.033   9.981  35.760  0.00  0.00    +0.000 C 
ATOM     10  C   UNL     1      25.028  10.502  36.775  0.00  0.00    +0.000 C 
ATOM     11  C   UNL     1      24.496  10.107  38.132  0.00  0.00    +0.000 C 
ATOM     12  N   UNL     1      22.186  10.708  39.857  0.00  0.00    +0.000 NA
ENDROOT
BRANCH   4  13
ATOM     13  S   UNL     1      18.010   9.568  38.594  0.00  0.00    +0.000 S 
BRANCH  13  14
ATOM     14  C   UNL     1      17.633  10.157  36.960  0.00  0.00    +0.000 A 
ATOM     15  C   UNL     1      17.123  11.397  36.686  0.00  0.00    +0.000 A 
ATOM     16  C   UNL     1      16.854  11.781  35.372  0.00  0.00    +0.000 A 
ATOM     17  C   UNL     1      17.094  10.925  34.309  0.00  0.00    +0.000 A 
ATOM     18  F   UNL     1      16.820  11.336  33.046  0.00  0.00    +0.000 F 
ATOM     19  C   UNL     1      17.608   9.676  34.587  0.00  0.00    +0.000 A 
ATOM     20  C   UNL     1      17.869   9.310  35.901  0.00  0.00    +0.000 A 
ENDBRANCH  13  14
ENDBRANCH   4  13
TORSDOF 2
ENDMDL
MODEL 8
REMARK VINA RESULT:      -5.8     29.943     31.133
REMARK  Name = 
REMARK  2 active torsions:
REMARK  status: ('A' for Active; 'I' for Inactive)
REMARK    1  A    between atoms: C_4  and  S_5
REMARK    2  A    between atoms: S_5  and  C_6
REMARK                            x       y       z     vdW  Elec       q    Type
REMARK                         _______ _______ _______ _____ _____    ______ ____
ROOT
ATOM      1  N   UNL     1      33.234  20.503  12.247  0.00  0.00    +0.000 NA
ATOM      2  C   UNL     1      32.267  21.235  11.506  0.00  0.00    +0.000 A 
ATOM      3  N   UNL     1      32.310  21.256  10.152  0.00  0.00    +0.000 NA
ATOM      4  C   UNL     1      31.412  21.939   9.425  0.00  0.00    +0.000 A 
ATOM      5  C   UNL     1      30.428  22.627  10.121  0.00  0.00    +0.000 A 
ATOM      6  C   UNL     1      30.365  22.619  11.499  0.00  0.00    +0.000 A 
ATOM      7  N   UNL     1      29.373  23.312  12.223  0.00  0.00    +0.000 N 
ATOM      8  C   UNL     1      28.319  24.103  11.645  0.00  0.00    +0.000 C 
ATOM      9  C   UNL     1      27.124  23.697  12.478  0.00  0.00    +0.000 C 
ATOM     10  C   UNL     1      27.717  23.337  13.824  0.00  0.00    +0.000 C 
ATOM     11  C   UNL     1      29.216  23.371  13.651  0.00  0.00    +0.000 C 
ATOM     12  N   UNL     1      31.301  21.912  12.169  0.00  0.00    +0.000 NA
ENDROOT
BRANCH   4  13
ATOM     13  S   UNL     1      31.416  22.005   7.662  0.00  0.00    +0.000 S 
BRANCH  13  14
ATOM     14  C   UNL     1      31.225  20.404   6.914  0.00  0.00    +0.000 A 
ATOM     15  C   UNL     1      30.051  19.930   6.395  0.00  0.00    +0.000 A 
ATOM     16  C   UNL     1      29.987  18.659   5.824  0.00  0.00    +0.000 A 
ATOM     17  C   UNL     1      31.104  17.840   5.764  0.00  0.00    +0.000 A 
ATOM     18  F   UNL     1      31.001  16.611   5.201  0.00  0.00    +0.000 F 
ATOM     19  C   UNL     1      32.287  18.320   6.288  0.00  0.00    +0.000 A 
ATOM     20  C   UNL     1      32.331  19.588   6.852  0.00  0.00    +0.000 A 
ENDBRANCH  13  14
ENDBRANCH   4  13
TORSDOF 2
ENDMDL
MODEL 9
REMARK VINA RESULT:      -5.8     17.856     19.151
REMARK  Name = 
REMARK  2 active torsions:
REMARK  status: ('A' for Active; 'I' for Inactive)
REMARK    1  A    between atoms: C_4  and  S_5
REMARK    2  A    between atoms: S_5  and  C_6
REMARK                            x       y       z     vdW  Elec       q    Type
REMARK                         _______ _______ _______ _____ _____    ______ ____
ROOT
ATOM      1  N   UNL     1      25.703  24.578  30.894  0.00  0.00    +0.000 NA
ATOM      2  C   UNL     1      25.715  24.553  29.472  0.00  0.00    +0.000 A 
ATOM      3  N   UNL     1      26.482  23.656  28.807  0.00  0.00    +0.000 NA
ATOM      4  C   UNL     1      26.515  23.608  27.467  0.00  0.00    +0.000 A 
ATOM      5  C   UNL     1      25.725  24.521  26.783  0.00  0.00    +0.000 A 
ATOM      6  C   UNL     1      24.936  25.443  27.440  0.00  0.00    +0.000 A 
ATOM      7  N   UNL     1      24.127  26.377  26.761  0.00  0.00    +0.000 N 
ATOM      8  C   UNL     1      24.014  26.500  25.332  0.00  0.00    +0.000 C 
ATOM      9  C   UNL     1      22.525  26.689  25.147  0.00  0.00    +0.000 C 
ATOM     10  C   UNL     1      22.077  27.372  26.421  0.00  0.00    +0.000 C 
ATOM     11  C   UNL     1      23.272  27.376  27.344  0.00  0.00    +0.000 C 
ATOM     12  N   UNL     1      24.950  25.436  28.790  0.00  0.00    +0.000 NA
ENDROOT
BRANCH   4  13
ATOM     13  S   UNL     1      27.493  22.465  26.544  0.00  0.00    +0.000 S 
BRANCH  13  14
ATOM     14  C   UNL     1      27.913  23.068  24.926  0.00  0.00    +0.000 A 
ATOM     15  C   UNL     1      27.005  23.298  23.929  0.00  0.00    +0.000 A 
ATOM     16  C   UNL     1      27.419  23.774  22.684  0.00  0.00    +0.000 A 
ATOM     17  C   UNL     1      28.756  24.026  22.420  0.00  0.00    +0.000 A 
ATOM     18  F   UNL     1      29.119  24.487  21.197  0.00  0.00    +0.000 F 
ATOM     19  C   UNL     1      29.670  23.793  23.426  0.00  0.00    +0.000 A 
ATOM     20  C   UNL     1      29.239  23.320  24.659  0.00  0.00    +0.000 A 
ENDBRANCH  13  14
ENDBRANCH   4  13
TORSDOF 2
ENDMDL
MODEL 10
REMARK VINA RESULT:      -5.7     16.486     17.192
REMARK  Name = 
REMARK  2 active torsions:
REMARK  status: ('A' for Active; 'I' for Inactive)
REMARK    1  A    between atoms: C_4  and  S_5
REMARK    2  A    between atoms: S_5  and  C_6
REMARK                            x       y       z     vdW  Elec       q    Type
REMARK                         _______ _______ _______ _____ _____    ______ ____
ROOT
ATOM      1  N   UNL     1      26.110  23.693  30.863  0.00  0.00    +0.000 NA
ATOM      2  C   UNL     1      26.007  24.010  29.480  0.00  0.00    +0.000 A 
ATOM      3  N   UNL     1      25.097  24.918  29.050  0.00  0.00    +0.000 NA
ATOM      4  C   UNL     1      24.975  25.237  27.752  0.00  0.00    +0.000 A 
ATOM      5  C   UNL     1      25.826  24.598  26.862  0.00  0.00    +0.000 A 
ATOM      6  C   UNL     1      26.759  23.671  27.278  0.00  0.00    +0.000 A 
ATOM      7  N   UNL     1      27.631  23.012  26.388  0.00  0.00    +0.000 N 
ATOM      8  C   UNL     1      27.669  23.204  24.962  0.00  0.00    +0.000 C 
ATOM      9  C   UNL     1      29.156  23.255  24.688  0.00  0.00    +0.000 C 
ATOM     10  C   UNL     1      29.761  22.386  25.771  0.00  0.00    +0.000 C 
ATOM     11  C   UNL     1      28.635  22.035  26.713  0.00  0.00    +0.000 C 
ATOM     12  N   UNL     1      26.829  23.396  28.598  0.00  0.00    +0.000 NA
ENDROOT
BRANCH   4  13
ATOM     13  S   UNL     1      23.812  26.409  27.131  0.00  0.00    +0.000 S 
BRANCH  13  14
ATOM     14  C   UNL     1      22.343  26.513  28.125  0.00  0.00    +0.000 A 
ATOM     15  C   UNL     1      22.305  27.020  29.395  0.00  0.00    +0.000 A 
ATOM     16  C   UNL     1      21.107  27.066  30.109  0.00  0.00    +0.000 A 
ATOM     17  C   UNL     1      19.923  26.601  29.557  0.00  0.00    +0.000 A 
ATOM     18  F   UNL     1      18.779  26.661  30.282  0.00  0.00    +0.000 F 
ATOM     19  C   UNL     1      19.963  26.090  28.276  0.00  0.00    +0.000 A 
ATOM     20  C   UNL     1      21.165  26.052  27.582  0.00  0.00    +0.000 A 
ENDBRANCH  13  14
ENDBRANCH   4  13
TORSDOF 2
ENDMDL
