MODEL 1
REMARK VINA RESULT:      -7.0      0.000      0.000
REMARK  Name = 
REMARK  8 active torsions:
REMARK  status: ('A' for Active; 'I' for Inactive)
REMARK    1  A    between atoms: O_2  and  C_3
REMARK    2  A    between atoms: C_6  and  C_7
REMARK    3  A    between atoms: C_7  and  C_8
REMARK    4  A    between atoms: C_7  and  S_18
REMARK    5  A    between atoms: C_8  and  C_9
REMARK    6  A    between atoms: C_9  and  C_11
REMARK    7  A    between atoms: S_18  and  C_19
REMARK    8  A    between atoms: C_24  and  N_25
REMARK                            x       y       z     vdW  Elec       q    Type
REMARK                         _______ _______ _______ _____ _____    ______ ____
ROOT
ATOM      1  C   UNL     1      37.649  -0.680  15.993  0.00  0.00    +0.000 C 
ENDROOT
BRANCH   1   5
ATOM      2  C   UNL     1      38.565  -4.342  18.134  0.00  0.00    +0.000 A 
ATOM      3  C   UNL     1      38.566  -3.127  18.775  0.00  0.00    +0.000 A 
ATOM      4  C   UNL     1      38.268  -1.955  18.066  0.00  0.00    +0.000 A 
ATOM      5  C   UNL     1      37.971  -2.002  16.723  0.00  0.00    +0.000 A 
ATOM      6  C   UNL     1      37.969  -3.196  16.089  0.00  0.00    +0.000 A 
ATOM      7  C   UNL     1      38.266  -4.371  16.792  0.00  0.00    +0.000 A 
BRANCH   2   9
ATOM      8  C   UNL     1      39.137  -5.547  20.196  0.00  0.00    +0.000 C 
ATOM      9  O   UNL     1      38.859  -5.523  18.819  0.00  0.00    +0.000 OA
ENDBRANCH   2   9
ENDBRANCH   1   5
BRANCH   1  10
ATOM     10  C   UNL     1      36.250  -0.412  16.688  0.00  0.00    +0.000 C 
BRANCH  10  11
ATOM     11  C   UNL     1      36.245   0.963  17.228  0.00  0.00    +0.000 C 
ATOM     12  O   UNL     1      36.471   1.138  18.436  0.00  0.00    +0.000 OA
BRANCH  11  13
ATOM     13  C   UNL     1      35.972   2.056  16.322  0.00  0.00    +0.000 A 
ATOM     14  C   UNL     1      37.026   2.793  15.817  0.00  0.00    +0.000 A 
ATOM     15  C   UNL     1      36.775   3.854  14.941  0.00  0.00    +0.000 A 
ATOM     16  C   UNL     1      35.481   4.171  14.576  0.00  0.00    +0.000 A 
ATOM     17  C   UNL     1      35.303   5.323  13.633  0.00  0.00    +0.000 C 
ATOM     18  C   UNL     1      34.434   3.451  15.068  0.00  0.00    +0.000 A 
ATOM     19  C   UNL     1      34.713   2.401  15.938  0.00  0.00    +0.000 A 
ENDBRANCH  11  13
ENDBRANCH  10  11
ENDBRANCH   1  10
BRANCH   1  20
ATOM     20  S   UNL     1      36.938  -1.451  14.402  0.00  0.00    +0.000 S 
BRANCH  20  21
ATOM     21  C   UNL     1      37.449  -0.379  13.049  0.00  0.00    +0.000 A 
ATOM     22  C   UNL     1      36.685   0.725  12.686  0.00  0.00    +0.000 A 
ATOM     23  C   UNL     1      37.119   1.517  11.644  0.00  0.00    +0.000 A 
ATOM     24  C   UNL     1      38.290   1.194  10.994  0.00  0.00    +0.000 A 
ATOM     25  C   UNL     1      39.046   0.095  11.358  0.00  0.00    +0.000 A 
ATOM     26  C   UNL     1      38.619  -0.714  12.410  0.00  0.00    +0.000 A 
BRANCH  26  27
ATOM     27  N   UNL     1      39.358  -1.854  12.826  0.00  0.00    +0.000 NA
ATOM     28  C   UNL     1      40.446  -1.693  13.723  0.00  0.00    +0.000 C 
ATOM     29  C   UNL     1      41.206  -2.893  14.147  0.00  0.00    +0.000 C 
ATOM     30  O   UNL     1      40.709  -0.535  14.114  0.00  0.00    +0.000 OA
ENDBRANCH  26  27
ENDBRANCH  20  21
ENDBRANCH   1  20
TORSDOF 8
ENDMDL
MODEL 2
REMARK VINA RESULT:      -6.9      2.515      5.890
REMARK  Name = 
REMARK  8 active torsions:
REMARK  status: ('A' for Active; 'I' for Inactive)
REMARK    1  A    between atoms: O_2  and  C_3
REMARK    2  A    between atoms: C_6  and  C_7
REMARK    3  A    between atoms: C_7  and  C_8
REMARK    4  A    between atoms: C_7  and  S_18
REMARK    5  A    between atoms: C_8  and  C_9
REMARK    6  A    between atoms: C_9  and  C_11
REMARK    7  A    between atoms: S_18  and  C_19
REMARK    8  A    between atoms: C_24  and  N_25
REMARK                            x       y       z     vdW  Elec       q    Type
REMARK                         _______ _______ _______ _____ _____    ______ ____
ROOT
ATOM      1  C   UNL     1      37.348  -2.105  13.913  0.00  0.00    +0.000 C 
ENDROOT
BRANCH   1   5
ATOM      2  C   UNL     1      36.111  -5.592  16.181  0.00  0.00    +0.000 A 
ATOM      3  C   UNL     1      37.273  -4.925  16.485  0.00  0.00    +0.000 A 
ATOM      4  C   UNL     1      37.656  -3.800  15.740  0.00  0.00    +0.000 A 
ATOM      5  C   UNL     1      36.878  -3.349  14.699  0.00  0.00    +0.000 A 
ATOM      6  C   UNL     1      35.734  -4.003  14.397  0.00  0.00    +0.000 A 
ATOM      7  C   UNL     1      35.346  -5.126  15.137  0.00  0.00    +0.000 A 
BRANCH   2   9
ATOM      8  C   UNL     1      34.690  -7.575  16.463  0.00  0.00    +0.000 C 
ATOM      9  O   UNL     1      35.708  -6.715  16.908  0.00  0.00    +0.000 OA
ENDBRANCH   2   9
ENDBRANCH   1   5
BRANCH   1  10
ATOM     10  C   UNL     1      38.771  -2.666  13.497  0.00  0.00    +0.000 C 
BRANCH  10  11
ATOM     11  C   UNL     1      39.520  -1.595  12.809  0.00  0.00    +0.000 C 
ATOM     12  O   UNL     1      39.026  -1.063  11.803  0.00  0.00    +0.000 OA
BRANCH  11  13
ATOM     13  C   UNL     1      40.810  -1.210  13.339  0.00  0.00    +0.000 A 
ATOM     14  C   UNL     1      41.583  -2.153  13.986  0.00  0.00    +0.000 A 
ATOM     15  C   UNL     1      42.831  -1.793  14.503  0.00  0.00    +0.000 A 
ATOM     16  C   UNL     1      43.298  -0.499  14.371  0.00  0.00    +0.000 A 
ATOM     17  C   UNL     1      44.646  -0.199  14.955  0.00  0.00    +0.000 C 
ATOM     18  C   UNL     1      42.544   0.440  13.735  0.00  0.00    +0.000 A 
ATOM     19  C   UNL     1      41.306   0.053  13.230  0.00  0.00    +0.000 A 
ENDBRANCH  11  13
ENDBRANCH  10  11
ENDBRANCH   1  10
BRANCH   1  20
ATOM     20  S   UNL     1      37.961  -1.093  15.407  0.00  0.00    +0.000 S 
BRANCH  20  21
ATOM     21  C   UNL     1      36.679   0.123  15.755  0.00  0.00    +0.000 A 
ATOM     22  C   UNL     1      36.452   1.186  14.887  0.00  0.00    +0.000 A 
ATOM     23  C   UNL     1      35.458   2.091  15.196  0.00  0.00    +0.000 A 
ATOM     24  C   UNL     1      34.723   1.918  16.348  0.00  0.00    +0.000 A 
ATOM     25  C   UNL     1      34.953   0.859  17.207  0.00  0.00    +0.000 A 
ATOM     26  C   UNL     1      35.954  -0.063  16.907  0.00  0.00    +0.000 A 
BRANCH  26  27
ATOM     27  N   UNL     1      36.232  -1.170  17.755  0.00  0.00    +0.000 NA
ATOM     28  C   UNL     1      36.954  -0.964  18.960  0.00  0.00    +0.000 C 
ATOM     29  C   UNL     1      37.235  -2.130  19.831  0.00  0.00    +0.000 C 
ATOM     30  O   UNL     1      37.319   0.201  19.225  0.00  0.00    +0.000 OA
ENDBRANCH  26  27
ENDBRANCH  20  21
ENDBRANCH   1  20
TORSDOF 8
ENDMDL
MODEL 3
REMARK VINA RESULT:      -6.8      2.392      6.696
REMARK  Name = 
REMARK  8 active torsions:
REMARK  status: ('A' for Active; 'I' for Inactive)
REMARK    1  A    between atoms: O_2  and  C_3
REMARK    2  A    between atoms: C_6  and  C_7
REMARK    3  A    between atoms: C_7  and  C_8
REMARK    4  A    between atoms: C_7  and  S_18
REMARK    5  A    between atoms: C_8  and  C_9
REMARK    6  A    between atoms: C_9  and  C_11
REMARK    7  A    between atoms: S_18  and  C_19
REMARK    8  A    between atoms: C_24  and  N_25
REMARK                            x       y       z     vdW  Elec       q    Type
REMARK                         _______ _______ _______ _____ _____    ______ ____
ROOT
ATOM      1  C   UNL     1      36.555   0.466  14.725  0.00  0.00    +0.000 C 
ENDROOT
BRANCH   1   5
ATOM      2  C   UNL     1      35.077   4.528  14.346  0.00  0.00    +0.000 A 
ATOM      3  C   UNL     1      36.188   4.111  13.653  0.00  0.00    +0.000 A 
ATOM      4  C   UNL     1      36.650   2.794  13.790  0.00  0.00    +0.000 A 
ATOM      5  C   UNL     1      36.002   1.903  14.614  0.00  0.00    +0.000 A 
ATOM      6  C   UNL     1      34.909   2.311  15.297  0.00  0.00    +0.000 A 
ATOM      7  C   UNL     1      34.442   3.625  15.165  0.00  0.00    +0.000 A 
BRANCH   2   9
ATOM      8  C   UNL     1      35.312   6.841  13.556  0.00  0.00    +0.000 C 
ATOM      9  O   UNL     1      34.597   5.835  14.227  0.00  0.00    +0.000 OA
ENDBRANCH   2   9
ENDBRANCH   1   5
BRANCH   1  10
ATOM     10  C   UNL     1      36.546   0.378  16.308  0.00  0.00    +0.000 C 
BRANCH  10  11
ATOM     11  C   UNL     1      36.900  -0.999  16.708  0.00  0.00    +0.000 C 
ATOM     12  O   UNL     1      37.794  -1.172  17.551  0.00  0.00    +0.000 OA
BRANCH  11  13
ATOM     13  C   UNL     1      36.186  -2.098  16.095  0.00  0.00    +0.000 A 
ATOM     14  C   UNL     1      34.859  -2.304  16.416  0.00  0.00    +0.000 A 
ATOM     15  C   UNL     1      34.159  -3.363  15.831  0.00  0.00    +0.000 A 
ATOM     16  C   UNL     1      34.784  -4.207  14.935  0.00  0.00    +0.000 A 
ATOM     17  C   UNL     1      33.959  -5.317  14.355  0.00  0.00    +0.000 C 
ATOM     18  C   UNL     1      36.093  -4.014  14.610  0.00  0.00    +0.000 A 
ATOM     19  C   UNL     1      36.765  -2.951  15.208  0.00  0.00    +0.000 A 
ENDBRANCH  11  13
ENDBRANCH  10  11
ENDBRANCH   1  10
BRANCH   1  20
ATOM     20  S   UNL     1      38.402   0.903  14.559  0.00  0.00    +0.000 S 
BRANCH  20  21
ATOM     21  C   UNL     1      39.223  -0.589  13.975  0.00  0.00    +0.000 A 
ATOM     22  C   UNL     1      40.110  -1.281  14.794  0.00  0.00    +0.000 A 
ATOM     23  C   UNL     1      40.714  -2.419  14.303  0.00  0.00    +0.000 A 
ATOM     24  C   UNL     1      40.425  -2.836  13.022  0.00  0.00    +0.000 A 
ATOM     25  C   UNL     1      39.542  -2.145  12.211  0.00  0.00    +0.000 A 
ATOM     26  C   UNL     1      38.925  -0.993  12.696  0.00  0.00    +0.000 A 
BRANCH  26  27
ATOM     27  N   UNL     1      38.010  -0.245  11.907  0.00  0.00    +0.000 NA
ATOM     28  C   UNL     1      38.504   0.707  10.977  0.00  0.00    +0.000 C 
ATOM     29  C   UNL     1      37.536   1.478  10.162  0.00  0.00    +0.000 C 
ATOM     30  O   UNL     1      39.743   0.846  10.893  0.00  0.00    +0.000 OA
ENDBRANCH  26  27
ENDBRANCH  20  21
ENDBRANCH   1  20
TORSDOF 8
ENDMDL
MODEL 4
REMARK VINA RESULT:      -6.8      2.473      7.635
REMARK  Name = 
REMARK  8 active torsions:
REMARK  status: ('A' for Active; 'I' for Inactive)
REMARK    1  A    between atoms: O_2  and  C_3
REMARK    2  A    between atoms: C_6  and  C_7
REMARK    3  A    between atoms: C_7  and  C_8
REMARK    4  A    between atoms: C_7  and  S_18
REMARK    5  A    between atoms: C_8  and  C_9
REMARK    6  A    between atoms: C_9  and  C_11
REMARK    7  A    between atoms: S_18  and  C_19
REMARK    8  A    between atoms: C_24  and  N_25
REMARK                            x       y       z     vdW  Elec       q    Type
REMARK                         _______ _______ _______ _____ _____    ______ ____
ROOT
ATOM      1  C   UNL     1      38.860  -0.514  14.468  0.00  0.00    +0.000 C 
ENDROOT
BRANCH   1   5
ATOM      2  C   UNL     1      37.569   3.573  13.793  0.00  0.00    +0.000 A 
ATOM      3  C   UNL     1      36.862   2.513  13.279  0.00  0.00    +0.000 A 
ATOM      4  C   UNL     1      37.296   1.199  13.508  0.00  0.00    +0.000 A 
ATOM      5  C   UNL     1      38.430   0.952  14.247  0.00  0.00    +0.000 A 
ATOM      6  C   UNL     1      39.127   1.993  14.754  0.00  0.00    +0.000 A 
ATOM      7  C   UNL     1      38.699   3.308  14.530  0.00  0.00    +0.000 A 
BRANCH   2   9
ATOM      8  C   UNL     1      35.802   5.250  13.476  0.00  0.00    +0.000 C 
ATOM      9  O   UNL     1      37.157   4.891  13.579  0.00  0.00    +0.000 OA
ENDBRANCH   2   9
ENDBRANCH   1   5
BRANCH   1  10
ATOM     10  C   UNL     1      38.742  -0.979  12.957  0.00  0.00    +0.000 C 
BRANCH  10  11
ATOM     11  C   UNL     1      39.992  -1.667  12.574  0.00  0.00    +0.000 C 
ATOM     12  O   UNL     1      39.946  -2.577  11.732  0.00  0.00    +0.000 OA
BRANCH  11  13
ATOM     13  C   UNL     1      41.226  -1.250  13.201  0.00  0.00    +0.000 A 
ATOM     14  C   UNL     1      41.887  -2.126  14.040  0.00  0.00    +0.000 A 
ATOM     15  C   UNL     1      43.081  -1.734  14.653  0.00  0.00    +0.000 A 
ATOM     16  C   UNL     1      43.605  -0.476  14.428  0.00  0.00    +0.000 A 
ATOM     17  C   UNL     1      44.889  -0.139  15.126  0.00  0.00    +0.000 C 
ATOM     18  C   UNL     1      42.962   0.397  13.603  0.00  0.00    +0.000 A 
ATOM     19  C   UNL     1      41.776  -0.020  13.006  0.00  0.00    +0.000 A 
ENDBRANCH  11  13
ENDBRANCH  10  11
ENDBRANCH   1  10
BRANCH   1  20
ATOM     20  S   UNL     1      37.163  -1.184  15.017  0.00  0.00    +0.000 S 
BRANCH  20  21
ATOM     21  C   UNL     1      37.248  -1.371  16.806  0.00  0.00    +0.000 A 
ATOM     22  C   UNL     1      38.176  -2.226  17.390  0.00  0.00    +0.000 A 
ATOM     23  C   UNL     1      38.204  -2.335  18.764  0.00  0.00    +0.000 A 
ATOM     24  C   UNL     1      37.316  -1.598  19.516  0.00  0.00    +0.000 A 
ATOM     25  C   UNL     1      36.394  -0.748  18.931  0.00  0.00    +0.000 A 
ATOM     26  C   UNL     1      36.356  -0.630  17.543  0.00  0.00    +0.000 A 
BRANCH  26  27
ATOM     27  N   UNL     1      35.431   0.229  16.890  0.00  0.00    +0.000 NA
ATOM     28  C   UNL     1      35.701   1.621  16.814  0.00  0.00    +0.000 C 
ATOM     29  C   UNL     1      34.725   2.502  16.130  0.00  0.00    +0.000 C 
ATOM     30  O   UNL     1      36.759   2.035  17.335  0.00  0.00    +0.000 OA
ENDBRANCH  26  27
ENDBRANCH  20  21
ENDBRANCH   1  20
TORSDOF 8
ENDMDL
MODEL 5
REMARK VINA RESULT:      -6.7      3.674      7.663
REMARK  Name = 
REMARK  8 active torsions:
REMARK  status: ('A' for Active; 'I' for Inactive)
REMARK    1  A    between atoms: O_2  and  C_3
REMARK    2  A    between atoms: C_6  and  C_7
REMARK    3  A    between atoms: C_7  and  C_8
REMARK    4  A    between atoms: C_7  and  S_18
REMARK    5  A    between atoms: C_8  and  C_9
REMARK    6  A    between atoms: C_9  and  C_11
REMARK    7  A    between atoms: S_18  and  C_19
REMARK    8  A    between atoms: C_24  and  N_25
REMARK                            x       y       z     vdW  Elec       q    Type
REMARK                         _______ _______ _______ _____ _____    ______ ____
ROOT
ATOM      1  C   UNL     1      36.235   3.921  15.148  0.00  0.00    +0.000 C 
ENDROOT
BRANCH   1   5
ATOM      2  C   UNL     1      35.439   6.221  11.556  0.00  0.00    +0.000 A 
ATOM      3  C   UNL     1      36.399   5.239  11.570  0.00  0.00    +0.000 A 
ATOM      4  C   UNL     1      36.642   4.507  12.741  0.00  0.00    +0.000 A 
ATOM      5  C   UNL     1      35.926   4.758  13.889  0.00  0.00    +0.000 A 
ATOM      6  C   UNL     1      34.980   5.725  13.878  0.00  0.00    +0.000 A 
ATOM      7  C   UNL     1      34.733   6.459  12.712  0.00  0.00    +0.000 A 
BRANCH   2   9
ATOM      8  C   UNL     1      36.120   7.847   9.846  0.00  0.00    +0.000 C 
ATOM      9  O   UNL     1      35.179   6.964  10.402  0.00  0.00    +0.000 OA
ENDBRANCH   2   9
ENDBRANCH   1   5
BRANCH   1  10
ATOM     10  C   UNL     1      37.697   4.479  15.397  0.00  0.00    +0.000 C 
BRANCH  10  11
ATOM     11  C   UNL     1      38.037   4.301  16.824  0.00  0.00    +0.000 C 
ATOM     12  O   UNL     1      37.396   3.480  17.499  0.00  0.00    +0.000 OA
BRANCH  11  13
ATOM     13  C   UNL     1      39.108   5.097  17.380  0.00  0.00    +0.000 A 
ATOM     14  C   UNL     1      39.118   5.362  18.736  0.00  0.00    +0.000 A 
ATOM     15  C   UNL     1      40.147   6.132  19.285  0.00  0.00    +0.000 A 
ATOM     16  C   UNL     1      41.155   6.630  18.484  0.00  0.00    +0.000 A 
ATOM     17  C   UNL     1      42.220   7.446  19.156  0.00  0.00    +0.000 C 
ATOM     18  C   UNL     1      41.156   6.375  17.146  0.00  0.00    +0.000 A 
ATOM     19  C   UNL     1      40.119   5.606  16.626  0.00  0.00    +0.000 A 
ENDBRANCH  11  13
ENDBRANCH  10  11
ENDBRANCH   1  10
BRANCH   1  20
ATOM     20  S   UNL     1      36.778   2.329  14.253  0.00  0.00    +0.000 S 
BRANCH  20  21
ATOM     21  C   UNL     1      36.128   0.957  15.222  0.00  0.00    +0.000 A 
ATOM     22  C   UNL     1      35.188   1.175  16.223  0.00  0.00    +0.000 A 
ATOM     23  C   UNL     1      34.719   0.093  16.938  0.00  0.00    +0.000 A 
ATOM     24  C   UNL     1      35.193  -1.166  16.642  0.00  0.00    +0.000 A 
ATOM     25  C   UNL     1      36.129  -1.378  15.645  0.00  0.00    +0.000 A 
ATOM     26  C   UNL     1      36.611  -0.293  14.916  0.00  0.00    +0.000 A 
BRANCH  26  27
ATOM     27  N   UNL     1      37.571  -0.453  13.880  0.00  0.00    +0.000 NA
ATOM     28  C   UNL     1      38.948  -0.547  14.212  0.00  0.00    +0.000 C 
ATOM     29  C   UNL     1      39.936  -0.714  13.120  0.00  0.00    +0.000 C 
ATOM     30  O   UNL     1      39.259  -0.483  15.422  0.00  0.00    +0.000 OA
ENDBRANCH  26  27
ENDBRANCH  20  21
ENDBRANCH   1  20
TORSDOF 8
ENDMDL
MODEL 6
REMARK VINA RESULT:      -6.7      2.784      6.469
REMARK  Name = 
REMARK  8 active torsions:
REMARK  status: ('A' for Active; 'I' for Inactive)
REMARK    1  A    between atoms: O_2  and  C_3
REMARK    2  A    between atoms: C_6  and  C_7
REMARK    3  A    between atoms: C_7  and  C_8
REMARK    4  A    between atoms: C_7  and  S_18
REMARK    5  A    between atoms: C_8  and  C_9
REMARK    6  A    between atoms: C_9  and  C_11
REMARK    7  A    between atoms: S_18  and  C_19
REMARK    8  A    between atoms: C_24  and  N_25
REMARK                            x       y       z     vdW  Elec       q    Type
REMARK                         _______ _______ _______ _____ _____    ______ ____
ROOT
ATOM      1  C   UNL     1      36.329   1.733  14.539  0.00  0.00    +0.000 C 
ENDROOT
BRANCH   1   5
ATOM      2  C   UNL     1      37.722   2.088  10.445  0.00  0.00    +0.000 A 
ATOM      3  C   UNL     1      37.299   0.881  10.947  0.00  0.00    +0.000 A 
ATOM      4  C   UNL     1      36.853   0.787  12.273  0.00  0.00    +0.000 A 
ATOM      5  C   UNL     1      36.831   1.895  13.088  0.00  0.00    +0.000 A 
ATOM      6  C   UNL     1      37.247   3.084  12.597  0.00  0.00    +0.000 A 
ATOM      7  C   UNL     1      37.693   3.185  11.273  0.00  0.00    +0.000 A 
BRANCH   2   9
ATOM      8  C   UNL     1      37.644   1.435   8.078  0.00  0.00    +0.000 C 
ATOM      9  O   UNL     1      38.171   2.207   9.127  0.00  0.00    +0.000 OA
ENDBRANCH   2   9
ENDBRANCH   1   5
BRANCH   1  10
ATOM     10  C   UNL     1      37.643   2.255  15.256  0.00  0.00    +0.000 C 
BRANCH  10  11
ATOM     11  C   UNL     1      37.260   3.238  16.290  0.00  0.00    +0.000 C 
ATOM     12  O   UNL     1      36.101   3.227  16.734  0.00  0.00    +0.000 OA
BRANCH  11  13
ATOM     13  C   UNL     1      38.257   4.183  16.743  0.00  0.00    +0.000 A 
ATOM     14  C   UNL     1      39.129   4.736  15.827  0.00  0.00    +0.000 A 
ATOM     15  C   UNL     1      40.097   5.649  16.253  0.00  0.00    +0.000 A 
ATOM     16  C   UNL     1      40.190   6.004  17.584  0.00  0.00    +0.000 A 
ATOM     17  C   UNL     1      41.258   6.990  17.954  0.00  0.00    +0.000 C 
ATOM     18  C   UNL     1      39.335   5.465  18.498  0.00  0.00    +0.000 A 
ATOM     19  C   UNL     1      38.381   4.558  18.045  0.00  0.00    +0.000 A 
ENDBRANCH  11  13
ENDBRANCH  10  11
ENDBRANCH   1  10
BRANCH   1  20
ATOM     20  S   UNL     1      36.723  -0.122  14.725  0.00  0.00    +0.000 S 
BRANCH  20  21
ATOM     21  C   UNL     1      36.523  -0.508  16.473  0.00  0.00    +0.000 A 
ATOM     22  C   UNL     1      35.323  -0.247  17.127  0.00  0.00    +0.000 A 
ATOM     23  C   UNL     1      35.218  -0.561  18.466  0.00  0.00    +0.000 A 
ATOM     24  C   UNL     1      36.297  -1.120  19.114  0.00  0.00    +0.000 A 
ATOM     25  C   UNL     1      37.488  -1.378  18.458  0.00  0.00    +0.000 A 
ATOM     26  C   UNL     1      37.608  -1.065  17.106  0.00  0.00    +0.000 A 
BRANCH  26  27
ATOM     27  N   UNL     1      38.807  -1.309  16.384  0.00  0.00    +0.000 NA
ATOM     28  C   UNL     1      39.130  -2.635  15.991  0.00  0.00    +0.000 C 
ATOM     29  C   UNL     1      40.385  -2.872  15.239  0.00  0.00    +0.000 C 
ATOM     30  O   UNL     1      38.330  -3.543  16.304  0.00  0.00    +0.000 OA
ENDBRANCH  26  27
ENDBRANCH  20  21
ENDBRANCH   1  20
TORSDOF 8
ENDMDL
MODEL 7
REMARK VINA RESULT:      -6.6      4.419      7.006
REMARK  Name = 
REMARK  8 active torsions:
REMARK  status: ('A' for Active; 'I' for Inactive)
REMARK    1  A    between atoms: O_2  and  C_3
REMARK    2  A    between atoms: C_6  and  C_7
REMARK    3  A    between atoms: C_7  and  C_8
REMARK    4  A    between atoms: C_7  and  S_18
REMARK    5  A    between atoms: C_8  and  C_9
REMARK    6  A    between atoms: C_9  and  C_11
REMARK    7  A    between atoms: S_18  and  C_19
REMARK    8  A    between atoms: C_24  and  N_25
REMARK                            x       y       z     vdW  Elec       q    Type
REMARK                         _______ _______ _______ _____ _____    ______ ____
ROOT
ATOM      1  C   UNL     1      37.298   3.520  14.911  0.00  0.00    +0.000 C 
ENDROOT
BRANCH   1   5
ATOM      2  C   UNL     1      35.352   0.110  16.757  0.00  0.00    +0.000 A 
ATOM      3  C   UNL     1      34.805   1.367  16.839  0.00  0.00    +0.000 A 
ATOM      4  C   UNL     1      35.449   2.457  16.236  0.00  0.00    +0.000 A 
ATOM      5  C   UNL     1      36.634   2.286  15.556  0.00  0.00    +0.000 A 
ATOM      6  C   UNL     1      37.175   1.049  15.475  0.00  0.00    +0.000 A 
ATOM      7  C   UNL     1      36.536  -0.043  16.074  0.00  0.00    +0.000 A 
BRANCH   2   9
ATOM      8  C   UNL     1      34.663  -2.248  16.724  0.00  0.00    +0.000 C 
ATOM      9  O   UNL     1      34.730  -0.991  17.350  0.00  0.00    +0.000 OA
ENDBRANCH   2   9
ENDBRANCH   1   5
BRANCH   1  10
ATOM     10  C   UNL     1      37.691   4.254  16.260  0.00  0.00    +0.000 C 
BRANCH  10  11
ATOM     11  C   UNL     1      38.823   5.165  15.992  0.00  0.00    +0.000 C 
ATOM     12  O   UNL     1      39.051   5.517  14.824  0.00  0.00    +0.000 OA
BRANCH  11  13
ATOM     13  C   UNL     1      39.627   5.609  17.109  0.00  0.00    +0.000 A 
ATOM     14  C   UNL     1      40.906   6.075  16.876  0.00  0.00    +0.000 A 
ATOM     15  C   UNL     1      41.694   6.507  17.948  0.00  0.00    +0.000 A 
ATOM     16  C   UNL     1      41.203   6.471  19.238  0.00  0.00    +0.000 A 
ATOM     17  C   UNL     1      42.115   6.953  20.328  0.00  0.00    +0.000 C 
ATOM     18  C   UNL     1      39.943   6.013  19.480  0.00  0.00    +0.000 A 
ATOM     19  C   UNL     1      39.181   5.590  18.394  0.00  0.00    +0.000 A 
ENDBRANCH  11  13
ENDBRANCH  10  11
ENDBRANCH   1  10
BRANCH   1  20
ATOM     20  S   UNL     1      35.705   4.517  14.598  0.00  0.00    +0.000 S 
BRANCH  20  21
ATOM     21  C   UNL     1      35.828   5.153  12.918  0.00  0.00    +0.000 A 
ATOM     22  C   UNL     1      36.709   4.584  12.004  0.00  0.00    +0.000 A 
ATOM     23  C   UNL     1      36.767   5.105  10.728  0.00  0.00    +0.000 A 
ATOM     24  C   UNL     1      35.957   6.169  10.398  0.00  0.00    +0.000 A 
ATOM     25  C   UNL     1      35.083   6.732  11.311  0.00  0.00    +0.000 A 
ATOM     26  C   UNL     1      35.015   6.214  12.603  0.00  0.00    +0.000 A 
BRANCH  26  27
ATOM     27  N   UNL     1      34.134   6.753  13.580  0.00  0.00    +0.000 NA
ATOM     28  C   UNL     1      34.491   7.946  14.261  0.00  0.00    +0.000 C 
ATOM     29  C   UNL     1      33.562   8.495  15.277  0.00  0.00    +0.000 C 
ATOM     30  O   UNL     1      35.584   8.478  13.965  0.00  0.00    +0.000 OA
ENDBRANCH  26  27
ENDBRANCH  20  21
ENDBRANCH   1  20
TORSDOF 8
ENDMDL
MODEL 8
REMARK VINA RESULT:      -6.6      2.745      5.315
REMARK  Name = 
REMARK  8 active torsions:
REMARK  status: ('A' for Active; 'I' for Inactive)
REMARK    1  A    between atoms: O_2  and  C_3
REMARK    2  A    between atoms: C_6  and  C_7
REMARK    3  A    between atoms: C_7  and  C_8
REMARK    4  A    between atoms: C_7  and  S_18
REMARK    5  A    between atoms: C_8  and  C_9
REMARK    6  A    between atoms: C_9  and  C_11
REMARK    7  A    between atoms: S_18  and  C_19
REMARK    8  A    between atoms: C_24  and  N_25
REMARK                            x       y       z     vdW  Elec       q    Type
REMARK                         _______ _______ _______ _____ _____    ______ ____
ROOT
ATOM      1  C   UNL     1      39.078   0.919  13.244  0.00  0.00    +0.000 C 
ENDROOT
BRANCH   1   5
ATOM      2  C   UNL     1      42.453  -1.809  13.279  0.00  0.00    +0.000 A 
ATOM      3  C   UNL     1      41.714  -1.582  14.415  0.00  0.00    +0.000 A 
ATOM      4  C   UNL     1      40.627  -0.696  14.383  0.00  0.00    +0.000 A 
ATOM      5  C   UNL     1      40.285  -0.044  13.221  0.00  0.00    +0.000 A 
ATOM      6  C   UNL     1      41.011  -0.266  12.102  0.00  0.00    +0.000 A 
ATOM      7  C   UNL     1      42.097  -1.149  12.127  0.00  0.00    +0.000 A 
BRANCH   2   9
ATOM      8  C   UNL     1      43.871  -3.485  12.178  0.00  0.00    +0.000 C 
ATOM      9  O   UNL     1      43.540  -2.686  13.286  0.00  0.00    +0.000 OA
ENDBRANCH   2   9
ENDBRANCH   1   5
BRANCH   1  10
ATOM     10  C   UNL     1      39.500   1.725  14.541  0.00  0.00    +0.000 C 
BRANCH  10  11
ATOM     11  C   UNL     1      39.263   3.164  14.302  0.00  0.00    +0.000 C 
ATOM     12  O   UNL     1      39.169   3.575  13.135  0.00  0.00    +0.000 OA
BRANCH  11  13
ATOM     13  C   UNL     1      39.152   4.041  15.447  0.00  0.00    +0.000 A 
ATOM     14  C   UNL     1      39.964   5.155  15.525  0.00  0.00    +0.000 A 
ATOM     15  C   UNL     1      39.867   6.010  16.626  0.00  0.00    +0.000 A 
ATOM     16  C   UNL     1      38.965   5.750  17.639  0.00  0.00    +0.000 A 
ATOM     17  C   UNL     1      38.926   6.719  18.783  0.00  0.00    +0.000 C 
ATOM     18  C   UNL     1      38.158   4.654  17.573  0.00  0.00    +0.000 A 
ATOM     19  C   UNL     1      38.277   3.820  16.465  0.00  0.00    +0.000 A 
ENDBRANCH  11  13
ENDBRANCH  10  11
ENDBRANCH   1  10
BRANCH   1  20
ATOM     20  S   UNL     1      37.854  -0.248  14.123  0.00  0.00    +0.000 S 
BRANCH  20  21
ATOM     21  C   UNL     1      36.625   0.808  14.907  0.00  0.00    +0.000 A 
ATOM     22  C   UNL     1      35.904   1.737  14.163  0.00  0.00    +0.000 A 
ATOM     23  C   UNL     1      34.973   2.522  14.808  0.00  0.00    +0.000 A 
ATOM     24  C   UNL     1      34.783   2.366  16.164  0.00  0.00    +0.000 A 
ATOM     25  C   UNL     1      35.502   1.441  16.900  0.00  0.00    +0.000 A 
ATOM     26  C   UNL     1      36.446   0.641  16.259  0.00  0.00    +0.000 A 
BRANCH  26  27
ATOM     27  N   UNL     1      37.212  -0.326  16.966  0.00  0.00    +0.000 NA
ATOM     28  C   UNL     1      36.623  -1.572  17.305  0.00  0.00    +0.000 C 
ATOM     29  C   UNL     1      37.435  -2.569  18.043  0.00  0.00    +0.000 C 
ATOM     30  O   UNL     1      35.437  -1.766  16.960  0.00  0.00    +0.000 OA
ENDBRANCH  26  27
ENDBRANCH  20  21
ENDBRANCH   1  20
TORSDOF 8
ENDMDL
MODEL 9
REMARK VINA RESULT:      -6.6      2.524      7.465
REMARK  Name = 
REMARK  8 active torsions:
REMARK  status: ('A' for Active; 'I' for Inactive)
REMARK    1  A    between atoms: O_2  and  C_3
REMARK    2  A    between atoms: C_6  and  C_7
REMARK    3  A    between atoms: C_7  and  C_8
REMARK    4  A    between atoms: C_7  and  S_18
REMARK    5  A    between atoms: C_8  and  C_9
REMARK    6  A    between atoms: C_9  and  C_11
REMARK    7  A    between atoms: S_18  and  C_19
REMARK    8  A    between atoms: C_24  and  N_25
REMARK                            x       y       z     vdW  Elec       q    Type
REMARK                         _______ _______ _______ _____ _____    ______ ____
ROOT
ATOM      1  C   UNL     1      38.707  -1.617  14.610  0.00  0.00    +0.000 C 
ENDROOT
BRANCH   1   5
ATOM      2  C   UNL     1      37.870   2.470  13.417  0.00  0.00    +0.000 A 
ATOM      3  C   UNL     1      38.969   2.167  14.183  0.00  0.00    +0.000 A 
ATOM      4  C   UNL     1      39.223   0.840  14.559  0.00  0.00    +0.000 A 
ATOM      5  C   UNL     1      38.379  -0.175  14.168  0.00  0.00    +0.000 A 
ATOM      6  C   UNL     1      37.296   0.120  13.414  0.00  0.00    +0.000 A 
ATOM      7  C   UNL     1      37.038   1.444  13.035  0.00  0.00    +0.000 A 
BRANCH   2   9
ATOM      8  C   UNL     1      37.049   4.731  13.912  0.00  0.00    +0.000 C 
ATOM      9  O   UNL     1      37.597   3.784  13.030  0.00  0.00    +0.000 OA
ENDBRANCH   2   9
ENDBRANCH   1   5
BRANCH   1  10
ATOM     10  C   UNL     1      38.515  -2.301  13.193  0.00  0.00    +0.000 C 
BRANCH  10  11
ATOM     11  C   UNL     1      39.842  -2.473  12.566  0.00  0.00    +0.000 C 
ATOM     12  O   UNL     1      40.753  -3.006  13.218  0.00  0.00    +0.000 OA
BRANCH  11  13
ATOM     13  C   UNL     1      40.026  -2.007  11.209  0.00  0.00    +0.000 A 
ATOM     14  C   UNL     1      40.410  -2.906  10.234  0.00  0.00    +0.000 A 
ATOM     15  C   UNL     1      40.593  -2.467   8.919  0.00  0.00    +0.000 A 
ATOM     16  C   UNL     1      40.393  -1.142   8.587  0.00  0.00    +0.000 A 
ATOM     17  C   UNL     1      40.612  -0.758   7.153  0.00  0.00    +0.000 C 
ATOM     18  C   UNL     1      40.015  -0.246   9.541  0.00  0.00    +0.000 A 
ATOM     19  C   UNL     1      39.840  -0.710  10.841  0.00  0.00    +0.000 A 
ENDBRANCH  11  13
ENDBRANCH  10  11
ENDBRANCH   1  10
BRANCH   1  20
ATOM     20  S   UNL     1      36.981  -2.063  15.283  0.00  0.00    +0.000 S 
BRANCH  20  21
ATOM     21  C   UNL     1      37.098  -1.968  17.077  0.00  0.00    +0.000 A 
ATOM     22  C   UNL     1      37.943  -2.818  17.782  0.00  0.00    +0.000 A 
ATOM     23  C   UNL     1      37.999  -2.707  19.155  0.00  0.00    +0.000 A 
ATOM     24  C   UNL     1      37.220  -1.763  19.787  0.00  0.00    +0.000 A 
ATOM     25  C   UNL     1      36.381  -0.919  19.082  0.00  0.00    +0.000 A 
ATOM     26  C   UNL     1      36.315  -1.022  17.694  0.00  0.00    +0.000 A 
BRANCH  26  27
ATOM     27  N   UNL     1      35.471  -0.180  16.920  0.00  0.00    +0.000 NA
ATOM     28  C   UNL     1      35.842   1.173  16.702  0.00  0.00    +0.000 C 
ATOM     29  C   UNL     1      34.949   2.037  15.893  0.00  0.00    +0.000 C 
ATOM     30  O   UNL     1      36.913   1.569  17.211  0.00  0.00    +0.000 OA
ENDBRANCH  26  27
ENDBRANCH  20  21
ENDBRANCH   1  20
TORSDOF 8
ENDMDL
MODEL 10
REMARK VINA RESULT:      -6.4      3.089      5.990
REMARK  Name = 
REMARK  8 active torsions:
REMARK  status: ('A' for Active; 'I' for Inactive)
REMARK    1  A    between atoms: O_2  and  C_3
REMARK    2  A    between atoms: C_6  and  C_7
REMARK    3  A    between atoms: C_7  and  C_8
REMARK    4  A    between atoms: C_7  and  S_18
REMARK    5  A    between atoms: C_8  and  C_9
REMARK    6  A    between atoms: C_9  and  C_11
REMARK    7  A    between atoms: S_18  and  C_19
REMARK    8  A    between atoms: C_24  and  N_25
REMARK                            x       y       z     vdW  Elec       q    Type
REMARK                         _______ _______ _______ _____ _____    ______ ____
ROOT
ATOM      1  C   UNL     1      37.734   3.898  15.286  0.00  0.00    +0.000 C 
ENDROOT
BRANCH   1   5
ATOM      2  C   UNL     1      40.344   6.048  18.004  0.00  0.00    +0.000 A 
ATOM      3  C   UNL     1      40.585   6.037  16.652  0.00  0.00    +0.000 A 
ATOM      4  C   UNL     1      39.730   5.335  15.789  0.00  0.00    +0.000 A 
ATOM      5  C   UNL     1      38.642   4.651  16.281  0.00  0.00    +0.000 A 
ATOM      6  C   UNL     1      38.403   4.661  17.612  0.00  0.00    +0.000 A 
ATOM      7  C   UNL     1      39.253   5.360  18.478  0.00  0.00    +0.000 A 
BRANCH   2   9
ATOM      8  C   UNL     1      41.026   6.677  20.279  0.00  0.00    +0.000 C 
ATOM      9  O   UNL     1      41.182   6.739  18.883  0.00  0.00    +0.000 OA
ENDBRANCH   2   9
ENDBRANCH   1   5
BRANCH   1  10
ATOM     10  C   UNL     1      36.956   3.027  16.357  0.00  0.00    +0.000 C 
BRANCH  10  11
ATOM     11  C   UNL     1      35.820   2.358  15.690  0.00  0.00    +0.000 C 
ATOM     12  O   UNL     1      35.060   3.029  14.974  0.00  0.00    +0.000 OA
BRANCH  11  13
ATOM     13  C   UNL     1      35.637   0.939  15.901  0.00  0.00    +0.000 A 
ATOM     14  C   UNL     1      36.284   0.044  15.071  0.00  0.00    +0.000 A 
ATOM     15  C   UNL     1      36.114  -1.330  15.265  0.00  0.00    +0.000 A 
ATOM     16  C   UNL     1      35.304  -1.801  16.280  0.00  0.00    +0.000 A 
ATOM     17  C   UNL     1      35.179  -3.289  16.417  0.00  0.00    +0.000 C 
ATOM     18  C   UNL     1      34.662  -0.928  17.105  0.00  0.00    +0.000 A 
ATOM     19  C   UNL     1      34.849   0.435  16.889  0.00  0.00    +0.000 A 
ENDBRANCH  11  13
ENDBRANCH  10  11
ENDBRANCH   1  10
BRANCH   1  20
ATOM     20  S   UNL     1      38.983   2.544  14.797  0.00  0.00    +0.000 S 
BRANCH  20  21
ATOM     21  C   UNL     1      38.647   2.145  13.073  0.00  0.00    +0.000 A 
ATOM     22  C   UNL     1      37.659   2.821  12.365  0.00  0.00    +0.000 A 
ATOM     23  C   UNL     1      37.439   2.481  11.047  0.00  0.00    +0.000 A 
ATOM     24  C   UNL     1      38.199   1.486  10.472  0.00  0.00    +0.000 A 
ATOM     25  C   UNL     1      39.180   0.816  11.181  0.00  0.00    +0.000 A 
ATOM     26  C   UNL     1      39.412   1.150  12.514  0.00  0.00    +0.000 A 
BRANCH  26  27
ATOM     27  N   UNL     1      40.408   0.495  13.288  0.00  0.00    +0.000 NA
ATOM     28  C   UNL     1      40.188  -0.836  13.728  0.00  0.00    +0.000 C 
ATOM     29  C   UNL     1      41.237  -1.504  14.535  0.00  0.00    +0.000 C 
ATOM     30  O   UNL     1      39.109  -1.381  13.410  0.00  0.00    +0.000 OA
ENDBRANCH  26  27
ENDBRANCH  20  21
ENDBRANCH   1  20
TORSDOF 8
ENDMDL
