MODEL 1
REMARK VINA RESULT:      -6.1      0.000      0.000
REMARK  Name = 
REMARK  5 active torsions:
REMARK  status: ('A' for Active; 'I' for Inactive)
REMARK    1  A    between atoms: C_2  and  N_3
REMARK    2  A    between atoms: C_2  and  C_12
REMARK    3  A    between atoms: N_3  and  N_4
REMARK    4  A    between atoms: C_5  and  O_7
REMARK    5  A    between atoms: O_7  and  C_8
REMARK                            x       y       z     vdW  Elec       q    Type
REMARK                         _______ _______ _______ _____ _____    ______ ____
ROOT
ATOM      1  C   UNL     1      13.871  11.714  37.151  0.00  0.00    +0.000 C 
ATOM      2  C   UNL     1      14.866  12.305  36.465  0.00  0.00    +0.000 C 
ENDROOT
BRANCH   2   3
ATOM      3  C   UNL     1      14.620  12.641  35.063  0.00  0.00    +0.000 A 
ATOM      4  C   UNL     1      15.098  11.902  34.012  0.00  0.00    +0.000 A 
ATOM      5  C   UNL     1      14.851  12.263  32.694  0.00  0.00    +0.000 A 
ATOM      6  C   UNL     1      14.105  13.392  32.370  0.00  0.00    +0.000 A 
ATOM      7 CL   UNL     1      13.807  13.837  30.702  0.00  0.00    +0.000 Cl
ATOM      8  C   UNL     1      13.621  14.139  33.424  0.00  0.00    +0.000 A 
ATOM      9  C   UNL     1      13.868  13.778  34.730  0.00  0.00    +0.000 A 
ENDBRANCH   2   3
BRANCH   2  10
ATOM     10  N   UNL     1      16.115  12.593  37.107  0.00  0.00    +0.000 NA
BRANCH  10  11
ATOM     11  N   UNL     1      17.221  11.777  36.754  0.00  0.00    +0.000 NA
ATOM     12  C   UNL     1      17.574  10.646  37.517  0.00  0.00    +0.000 C 
ATOM     13  O   UNL     1      16.859  10.395  38.518  0.00  0.00    +0.000 OA
BRANCH  12  14
ATOM     14  O   UNL     1      18.668   9.821  37.194  0.00  0.00    +0.000 OA
BRANCH  14  15
ATOM     15  C   UNL     1      19.902  10.188  37.840  0.00  0.00    +0.000 C 
ATOM     16  C   UNL     1      19.980  11.639  38.161  0.00  0.00    +0.000 C 
ATOM     17  C   UNL     1      21.028   9.862  36.841  0.00  0.00    +0.000 C 
ATOM     18  C   UNL     1      20.136   9.325  39.062  0.00  0.00    +0.000 C 
ENDBRANCH  14  15
ENDBRANCH  12  14
ENDBRANCH  10  11
ENDBRANCH   2  10
TORSDOF 5
ENDMDL
MODEL 2
REMARK VINA RESULT:      -5.7     21.001     22.409
REMARK  Name = 
REMARK  5 active torsions:
REMARK  status: ('A' for Active; 'I' for Inactive)
REMARK    1  A    between atoms: C_2  and  N_3
REMARK    2  A    between atoms: C_2  and  C_12
REMARK    3  A    between atoms: N_3  and  N_4
REMARK    4  A    between atoms: C_5  and  O_7
REMARK    5  A    between atoms: O_7  and  C_8
REMARK                            x       y       z     vdW  Elec       q    Type
REMARK                         _______ _______ _______ _____ _____    ______ ____
ROOT
ATOM      1  C   UNL     1      25.943  23.793  24.218  0.00  0.00    +0.000 C 
ATOM      2  C   UNL     1      27.159  23.402  23.794  0.00  0.00    +0.000 C 
ENDROOT
BRANCH   2   3
ATOM      3  C   UNL     1      28.137  23.004  24.804  0.00  0.00    +0.000 A 
ATOM      4  C   UNL     1      27.807  22.698  26.100  0.00  0.00    +0.000 A 
ATOM      5  C   UNL     1      28.769  22.336  27.032  0.00  0.00    +0.000 A 
ATOM      6  C   UNL     1      30.119  22.262  26.703  0.00  0.00    +0.000 A 
ATOM      7 CL   UNL     1      31.322  21.808  27.893  0.00  0.00    +0.000 Cl
ATOM      8  C   UNL     1      30.457  22.568  25.401  0.00  0.00    +0.000 A 
ATOM      9  C   UNL     1      29.500  22.927  24.479  0.00  0.00    +0.000 A 
ENDBRANCH   2   3
BRANCH   2  10
ATOM     10  N   UNL     1      27.461  23.378  22.392  0.00  0.00    +0.000 NA
BRANCH  10  11
ATOM     11  N   UNL     1      27.542  24.631  21.732  0.00  0.00    +0.000 NA
ATOM     12  C   UNL     1      28.746  25.082  21.154  0.00  0.00    +0.000 C 
ATOM     13  O   UNL     1      29.738  24.318  21.249  0.00  0.00    +0.000 OA
BRANCH  12  14
ATOM     14  O   UNL     1      28.859  26.321  20.497  0.00  0.00    +0.000 OA
BRANCH  14  15
ATOM     15  C   UNL     1      28.807  27.465  21.370  0.00  0.00    +0.000 C 
ATOM     16  C   UNL     1      29.293  27.169  22.745  0.00  0.00    +0.000 C 
ATOM     17  C   UNL     1      27.324  27.869  21.468  0.00  0.00    +0.000 C 
ATOM     18  C   UNL     1      29.541  28.637  20.751  0.00  0.00    +0.000 C 
ENDBRANCH  14  15
ENDBRANCH  12  14
ENDBRANCH  10  11
ENDBRANCH   2  10
TORSDOF 5
ENDMDL
MODEL 3
REMARK VINA RESULT:      -5.6      2.825      3.978
REMARK  Name = 
REMARK  5 active torsions:
REMARK  status: ('A' for Active; 'I' for Inactive)
REMARK    1  A    between atoms: C_2  and  N_3
REMARK    2  A    between atoms: C_2  and  C_12
REMARK    3  A    between atoms: N_3  and  N_4
REMARK    4  A    between atoms: C_5  and  O_7
REMARK    5  A    between atoms: O_7  and  C_8
REMARK                            x       y       z     vdW  Elec       q    Type
REMARK                         _______ _______ _______ _____ _____    ______ ____
ROOT
ATOM      1  C   UNL     1      16.959  10.247  38.620  0.00  0.00    +0.000 C 
ATOM      2  C   UNL     1      17.799   9.945  37.614  0.00  0.00    +0.000 C 
ENDROOT
BRANCH   2   3
ATOM      3  C   UNL     1      17.398  10.318  36.258  0.00  0.00    +0.000 A 
ATOM      4  C   UNL     1      17.906   9.727  35.129  0.00  0.00    +0.000 A 
ATOM      5  C   UNL     1      17.507  10.120  33.858  0.00  0.00    +0.000 A 
ATOM      6  C   UNL     1      16.572  11.131  33.662  0.00  0.00    +0.000 A 
ATOM      7 CL   UNL     1      16.083  11.619  32.052  0.00  0.00    +0.000 Cl
ATOM      8  C   UNL     1      16.057  11.728  34.795  0.00  0.00    +0.000 A 
ATOM      9  C   UNL     1      16.456  11.336  36.054  0.00  0.00    +0.000 A 
ENDBRANCH   2   3
BRANCH   2  10
ATOM     10  N   UNL     1      19.043   9.285  37.884  0.00  0.00    +0.000 NA
BRANCH  10  11
ATOM     11  N   UNL     1      20.168  10.113  38.130  0.00  0.00    +0.000 NA
ATOM     12  C   UNL     1      21.215  10.229  37.192  0.00  0.00    +0.000 C 
ATOM     13  O   UNL     1      21.098   9.567  36.132  0.00  0.00    +0.000 OA
BRANCH  12  14
ATOM     14  O   UNL     1      22.346  11.038  37.409  0.00  0.00    +0.000 OA
BRANCH  14  15
ATOM     15  C   UNL     1      23.593  10.319  37.454  0.00  0.00    +0.000 C 
ATOM     16  C   UNL     1      23.505   9.052  38.229  0.00  0.00    +0.000 C 
ATOM     17  C   UNL     1      24.600  11.242  38.166  0.00  0.00    +0.000 C 
ATOM     18  C   UNL     1      24.122  10.091  36.053  0.00  0.00    +0.000 C 
ENDBRANCH  14  15
ENDBRANCH  12  14
ENDBRANCH  10  11
ENDBRANCH   2  10
TORSDOF 5
ENDMDL
MODEL 4
REMARK VINA RESULT:      -5.6     20.845     23.238
REMARK  Name = 
REMARK  5 active torsions:
REMARK  status: ('A' for Active; 'I' for Inactive)
REMARK    1  A    between atoms: C_2  and  N_3
REMARK    2  A    between atoms: C_2  and  C_12
REMARK    3  A    between atoms: N_3  and  N_4
REMARK    4  A    between atoms: C_5  and  O_7
REMARK    5  A    between atoms: O_7  and  C_8
REMARK                            x       y       z     vdW  Elec       q    Type
REMARK                         _______ _______ _______ _____ _____    ______ ____
ROOT
ATOM      1  C   UNL     1      32.167  -2.904  35.420  0.00  0.00    +0.000 C 
ATOM      2  C   UNL     1      33.103  -2.662  34.483  0.00  0.00    +0.000 C 
ENDROOT
BRANCH   2   3
ATOM      3  C   UNL     1      33.263  -1.284  34.021  0.00  0.00    +0.000 A 
ATOM      4  C   UNL     1      34.169  -0.907  33.063  0.00  0.00    +0.000 A 
ATOM      5  C   UNL     1      34.297   0.415  32.661  0.00  0.00    +0.000 A 
ATOM      6  C   UNL     1      33.514   1.428  33.205  0.00  0.00    +0.000 A 
ATOM      7 CL   UNL     1      33.692   3.092  32.690  0.00  0.00    +0.000 Cl
ATOM      8  C   UNL     1      32.600   1.054  34.168  0.00  0.00    +0.000 A 
ATOM      9  C   UNL     1      32.475  -0.259  34.566  0.00  0.00    +0.000 A 
ENDBRANCH   2   3
BRANCH   2  10
ATOM     10  N   UNL     1      33.909  -3.733  33.975  0.00  0.00    +0.000 NA
BRANCH  10  11
ATOM     11  N   UNL     1      33.587  -4.221  32.682  0.00  0.00    +0.000 NA
ATOM     12  C   UNL     1      33.238  -5.570  32.472  0.00  0.00    +0.000 C 
ATOM     13  O   UNL     1      33.223  -6.314  33.483  0.00  0.00    +0.000 OA
BRANCH  12  14
ATOM     14  O   UNL     1      32.919  -6.085  31.201  0.00  0.00    +0.000 OA
BRANCH  14  15
ATOM     15  C   UNL     1      34.059  -6.469  30.410  0.00  0.00    +0.000 C 
ATOM     16  C   UNL     1      35.340  -6.400  31.164  0.00  0.00    +0.000 C 
ATOM     17  C   UNL     1      34.139  -5.462  29.247  0.00  0.00    +0.000 C 
ATOM     18  C   UNL     1      33.839  -7.835  29.793  0.00  0.00    +0.000 C 
ENDBRANCH  14  15
ENDBRANCH  12  14
ENDBRANCH  10  11
ENDBRANCH   2  10
TORSDOF 5
ENDMDL
MODEL 5
REMARK VINA RESULT:      -5.5     19.905     21.231
REMARK  Name = 
REMARK  5 active torsions:
REMARK  status: ('A' for Active; 'I' for Inactive)
REMARK    1  A    between atoms: C_2  and  N_3
REMARK    2  A    between atoms: C_2  and  C_12
REMARK    3  A    between atoms: N_3  and  N_4
REMARK    4  A    between atoms: C_5  and  O_7
REMARK    5  A    between atoms: O_7  and  C_8
REMARK                            x       y       z     vdW  Elec       q    Type
REMARK                         _______ _______ _______ _____ _____    ______ ____
ROOT
ATOM      1  C   UNL     1      26.002  24.878  24.437  0.00  0.00    +0.000 C 
ATOM      2  C   UNL     1      26.692  23.743  24.654  0.00  0.00    +0.000 C 
ENDROOT
BRANCH   2   3
ATOM      3  C   UNL     1      26.939  23.352  26.041  0.00  0.00    +0.000 A 
ATOM      4  C   UNL     1      27.974  22.538  26.426  0.00  0.00    +0.000 A 
ATOM      5  C   UNL     1      28.166  22.181  27.753  0.00  0.00    +0.000 A 
ATOM      6  C   UNL     1      27.321  22.629  28.764  0.00  0.00    +0.000 A 
ATOM      7 CL   UNL     1      27.574  22.164  30.434  0.00  0.00    +0.000 Cl
ATOM      8  C   UNL     1      26.279  23.449  28.383  0.00  0.00    +0.000 A 
ATOM      9  C   UNL     1      26.091  23.801  27.065  0.00  0.00    +0.000 A 
ENDBRANCH   2   3
BRANCH   2  10
ATOM     10  N   UNL     1      27.154  22.956  23.549  0.00  0.00    +0.000 NA
BRANCH  10  11
ATOM     11  N   UNL     1      27.504  23.656  22.365  0.00  0.00    +0.000 NA
ATOM     12  C   UNL     1      28.838  24.026  22.097  0.00  0.00    +0.000 C 
ATOM     13  O   UNL     1      29.697  23.701  22.954  0.00  0.00    +0.000 OA
BRANCH  12  14
ATOM     14  O   UNL     1      29.216  24.724  20.935  0.00  0.00    +0.000 OA
BRANCH  14  15
ATOM     15  C   UNL     1      29.095  26.156  21.035  0.00  0.00    +0.000 C 
ATOM     16  C   UNL     1      29.548  26.687  22.349  0.00  0.00    +0.000 C 
ATOM     17  C   UNL     1      27.596  26.476  20.885  0.00  0.00    +0.000 C 
ATOM     18  C   UNL     1      29.805  26.828  19.878  0.00  0.00    +0.000 C 
ENDBRANCH  14  15
ENDBRANCH  12  14
ENDBRANCH  10  11
ENDBRANCH   2  10
TORSDOF 5
ENDMDL
MODEL 6
REMARK VINA RESULT:      -5.3     23.161     24.294
REMARK  Name = 
REMARK  5 active torsions:
REMARK  status: ('A' for Active; 'I' for Inactive)
REMARK    1  A    between atoms: C_2  and  N_3
REMARK    2  A    between atoms: C_2  and  C_12
REMARK    3  A    between atoms: N_3  and  N_4
REMARK    4  A    between atoms: C_5  and  O_7
REMARK    5  A    between atoms: O_7  and  C_8
REMARK                            x       y       z     vdW  Elec       q    Type
REMARK                         _______ _______ _______ _____ _____    ______ ____
ROOT
ATOM      1  C   UNL     1      28.651  26.909  21.873  0.00  0.00    +0.000 C 
ATOM      2  C   UNL     1      29.323  26.382  20.833  0.00  0.00    +0.000 C 
ENDROOT
BRANCH   2   3
ATOM      3  C   UNL     1      29.818  27.300  19.808  0.00  0.00    +0.000 A 
ATOM      4  C   UNL     1      29.833  28.663  19.955  0.00  0.00    +0.000 A 
ATOM      5  C   UNL     1      30.300  29.500  18.951  0.00  0.00    +0.000 A 
ATOM      6  C   UNL     1      30.780  29.002  17.744  0.00  0.00    +0.000 A 
ATOM      7 CL   UNL     1      31.362  30.071  16.485  0.00  0.00    +0.000 Cl
ATOM      8  C   UNL     1      30.768  27.630  17.591  0.00  0.00    +0.000 A 
ATOM      9  C   UNL     1      30.302  26.803  18.589  0.00  0.00    +0.000 A 
ENDBRANCH   2   3
BRANCH   2  10
ATOM     10  N   UNL     1      29.540  24.967  20.756  0.00  0.00    +0.000 NA
BRANCH  10  11
ATOM     11  N   UNL     1      29.653  24.267  21.985  0.00  0.00    +0.000 NA
ATOM     12  C   UNL     1      28.600  23.468  22.475  0.00  0.00    +0.000 C 
ATOM     13  O   UNL     1      27.564  23.404  21.768  0.00  0.00    +0.000 OA
BRANCH  12  14
ATOM     14  O   UNL     1      28.679  22.766  23.693  0.00  0.00    +0.000 OA
BRANCH  14  15
ATOM     15  C   UNL     1      27.946  23.369  24.776  0.00  0.00    +0.000 C 
ATOM     16  C   UNL     1      28.222  24.823  24.926  0.00  0.00    +0.000 C 
ATOM     17  C   UNL     1      28.415  22.663  26.062  0.00  0.00    +0.000 C 
ATOM     18  C   UNL     1      26.465  23.085  24.634  0.00  0.00    +0.000 C 
ENDBRANCH  14  15
ENDBRANCH  12  14
ENDBRANCH  10  11
ENDBRANCH   2  10
TORSDOF 5
ENDMDL
MODEL 7
REMARK VINA RESULT:      -5.3     19.104     20.759
REMARK  Name = 
REMARK  5 active torsions:
REMARK  status: ('A' for Active; 'I' for Inactive)
REMARK    1  A    between atoms: C_2  and  N_3
REMARK    2  A    between atoms: C_2  and  C_12
REMARK    3  A    between atoms: N_3  and  N_4
REMARK    4  A    between atoms: C_5  and  O_7
REMARK    5  A    between atoms: O_7  and  C_8
REMARK                            x       y       z     vdW  Elec       q    Type
REMARK                         _______ _______ _______ _____ _____    ______ ____
ROOT
ATOM      1  C   UNL     1      33.951   1.057  36.387  0.00  0.00    +0.000 C 
ATOM      2  C   UNL     1      33.572   0.782  35.126  0.00  0.00    +0.000 C 
ENDROOT
BRANCH   2   3
ATOM      3  C   UNL     1      33.224  -0.602  34.807  0.00  0.00    +0.000 A 
ATOM      4  C   UNL     1      32.270  -1.318  35.483  0.00  0.00    +0.000 A 
ATOM      5  C   UNL     1      31.978  -2.635  35.156  0.00  0.00    +0.000 A 
ATOM      6  C   UNL     1      32.635  -3.299  34.125  0.00  0.00    +0.000 A 
ATOM      7 CL   UNL     1      32.259  -4.962  33.728  0.00  0.00    +0.000 Cl
ATOM      8  C   UNL     1      33.595  -2.582  33.440  0.00  0.00    +0.000 A 
ATOM      9  C   UNL     1      33.883  -1.276  33.768  0.00  0.00    +0.000 A 
ENDBRANCH   2   3
BRANCH   2  10
ATOM     10  N   UNL     1      33.511   1.826  34.145  0.00  0.00    +0.000 NA
BRANCH  10  11
ATOM     11  N   UNL     1      34.205   3.027  34.443  0.00  0.00    +0.000 NA
ATOM     12  C   UNL     1      33.684   4.286  34.084  0.00  0.00    +0.000 C 
ATOM     13  O   UNL     1      32.575   4.291  33.494  0.00  0.00    +0.000 OA
BRANCH  12  14
ATOM     14  O   UNL     1      34.351   5.495  34.361  0.00  0.00    +0.000 OA
BRANCH  14  15
ATOM     15  C   UNL     1      34.467   5.803  35.763  0.00  0.00    +0.000 C 
ATOM     16  C   UNL     1      33.430   5.133  36.593  0.00  0.00    +0.000 C 
ATOM     17  C   UNL     1      34.267   7.325  35.891  0.00  0.00    +0.000 C 
ATOM     18  C   UNL     1      35.867   5.501  36.256  0.00  0.00    +0.000 C 
ENDBRANCH  14  15
ENDBRANCH  12  14
ENDBRANCH  10  11
ENDBRANCH   2  10
TORSDOF 5
ENDMDL
MODEL 8
REMARK VINA RESULT:      -5.3      3.488      6.933
REMARK  Name = 
REMARK  5 active torsions:
REMARK  status: ('A' for Active; 'I' for Inactive)
REMARK    1  A    between atoms: C_2  and  N_3
REMARK    2  A    between atoms: C_2  and  C_12
REMARK    3  A    between atoms: N_3  and  N_4
REMARK    4  A    between atoms: C_5  and  O_7
REMARK    5  A    between atoms: O_7  and  C_8
REMARK                            x       y       z     vdW  Elec       q    Type
REMARK                         _______ _______ _______ _____ _____    ______ ____
ROOT
ATOM      1  C   UNL     1      22.024  10.164  37.028  0.00  0.00    +0.000 C 
ATOM      2  C   UNL     1      21.006  10.731  37.700  0.00  0.00    +0.000 C 
ENDROOT
BRANCH   2   3
ATOM      3  C   UNL     1      21.177  12.108  38.159  0.00  0.00    +0.000 A 
ATOM      4  C   UNL     1      22.394  12.653  38.482  0.00  0.00    +0.000 A 
ATOM      5  C   UNL     1      22.512  13.963  38.926  0.00  0.00    +0.000 A 
ATOM      6  C   UNL     1      21.405  14.793  39.068  0.00  0.00    +0.000 A 
ATOM      7 CL   UNL     1      21.570  16.442  39.635  0.00  0.00    +0.000 Cl
ATOM      8  C   UNL     1      20.178  14.250  38.744  0.00  0.00    +0.000 A 
ATOM      9  C   UNL     1      20.064  12.950  38.304  0.00  0.00    +0.000 A 
ENDBRANCH   2   3
BRANCH   2  10
ATOM     10  N   UNL     1      19.799   9.995  37.938  0.00  0.00    +0.000 NA
BRANCH  10  11
ATOM     11  N   UNL     1      18.752  10.155  36.994  0.00  0.00    +0.000 NA
ATOM     12  C   UNL     1      17.402  10.215  37.395  0.00  0.00    +0.000 C 
ATOM     13  O   UNL     1      17.175  10.125  38.627  0.00  0.00    +0.000 OA
BRANCH  12  14
ATOM     14  O   UNL     1      16.342  10.368  36.482  0.00  0.00    +0.000 OA
BRANCH  14  15
ATOM     15  C   UNL     1      15.604  11.596  36.626  0.00  0.00    +0.000 C 
ATOM     16  C   UNL     1      14.508  11.501  37.628  0.00  0.00    +0.000 C 
ATOM     17  C   UNL     1      14.969  11.884  35.253  0.00  0.00    +0.000 C 
ATOM     18  C   UNL     1      16.545  12.745  36.924  0.00  0.00    +0.000 C 
ENDBRANCH  14  15
ENDBRANCH  12  14
ENDBRANCH  10  11
ENDBRANCH   2  10
TORSDOF 5
ENDMDL
MODEL 9
REMARK VINA RESULT:      -5.3     20.239     21.382
REMARK  Name = 
REMARK  5 active torsions:
REMARK  status: ('A' for Active; 'I' for Inactive)
REMARK    1  A    between atoms: C_2  and  N_3
REMARK    2  A    between atoms: C_2  and  C_12
REMARK    3  A    between atoms: N_3  and  N_4
REMARK    4  A    between atoms: C_5  and  O_7
REMARK    5  A    between atoms: O_7  and  C_8
REMARK                            x       y       z     vdW  Elec       q    Type
REMARK                         _______ _______ _______ _____ _____    ______ ____
ROOT
ATOM      1  C   UNL     1      29.120  25.050  21.263  0.00  0.00    +0.000 C 
ATOM      2  C   UNL     1      28.947  24.228  22.315  0.00  0.00    +0.000 C 
ENDROOT
BRANCH   2   3
ATOM      3  C   UNL     1      29.914  24.311  23.408  0.00  0.00    +0.000 A 
ATOM      4  C   UNL     1      30.355  25.496  23.942  0.00  0.00    +0.000 A 
ATOM      5  C   UNL     1      31.283  25.530  24.973  0.00  0.00    +0.000 A 
ATOM      6  C   UNL     1      31.816  24.368  25.521  0.00  0.00    +0.000 A 
ATOM      7 CL   UNL     1      32.991  24.430  26.819  0.00  0.00    +0.000 Cl
ATOM      8  C   UNL     1      31.375  23.174  24.989  0.00  0.00    +0.000 A 
ATOM      9  C   UNL     1      30.454  23.143  23.966  0.00  0.00    +0.000 A 
ENDBRANCH   2   3
BRANCH   2  10
ATOM     10  N   UNL     1      27.842  23.315  22.345  0.00  0.00    +0.000 NA
BRANCH  10  11
ATOM     11  N   UNL     1      27.385  22.903  23.623  0.00  0.00    +0.000 NA
ATOM     12  C   UNL     1      26.482  23.688  24.369  0.00  0.00    +0.000 C 
ATOM     13  O   UNL     1      26.101  24.763  23.843  0.00  0.00    +0.000 OA
BRANCH  12  14
ATOM     14  O   UNL     1      26.014  23.308  25.641  0.00  0.00    +0.000 OA
BRANCH  14  15
ATOM     15  C   UNL     1      26.967  23.493  26.705  0.00  0.00    +0.000 C 
ATOM     16  C   UNL     1      27.854  22.315  26.900  0.00  0.00    +0.000 C 
ATOM     17  C   UNL     1      26.146  23.687  27.994  0.00  0.00    +0.000 C 
ATOM     18  C   UNL     1      27.757  24.767  26.492  0.00  0.00    +0.000 C 
ENDBRANCH  14  15
ENDBRANCH  12  14
ENDBRANCH  10  11
ENDBRANCH   2  10
TORSDOF 5
ENDMDL
MODEL 10
REMARK VINA RESULT:      -5.0     20.420     22.708
REMARK  Name = 
REMARK  5 active torsions:
REMARK  status: ('A' for Active; 'I' for Inactive)
REMARK    1  A    between atoms: C_2  and  N_3
REMARK    2  A    between atoms: C_2  and  C_12
REMARK    3  A    between atoms: N_3  and  N_4
REMARK    4  A    between atoms: C_5  and  O_7
REMARK    5  A    between atoms: O_7  and  C_8
REMARK                            x       y       z     vdW  Elec       q    Type
REMARK                         _______ _______ _______ _____ _____    ______ ____
ROOT
ATOM      1  C   UNL     1      34.375  -1.936  35.868  0.00  0.00    +0.000 C 
ATOM      2  C   UNL     1      33.754  -1.420  34.791  0.00  0.00    +0.000 C 
ENDROOT
BRANCH   2   3
ATOM      3  C   UNL     1      33.753   0.034  34.637  0.00  0.00    +0.000 A 
ATOM      4  C   UNL     1      33.840   0.907  35.691  0.00  0.00    +0.000 A 
ATOM      5  C   UNL     1      33.824   2.282  35.501  0.00  0.00    +0.000 A 
ATOM      6  C   UNL     1      33.720   2.848  34.234  0.00  0.00    +0.000 A 
ATOM      7 CL   UNL     1      33.696   4.585  34.013  0.00  0.00    +0.000 Cl
ATOM      8  C   UNL     1      33.633   1.973  33.171  0.00  0.00    +0.000 A 
ATOM      9  C   UNL     1      33.649   0.610  33.362  0.00  0.00    +0.000 A 
ENDBRANCH   2   3
BRANCH   2  10
ATOM     10  N   UNL     1      33.126  -2.286  33.836  0.00  0.00    +0.000 NA
BRANCH  10  11
ATOM     11  N   UNL     1      33.825  -3.471  33.488  0.00  0.00    +0.000 NA
ATOM     12  C   UNL     1      33.196  -4.732  33.518  0.00  0.00    +0.000 C 
ATOM     13  O   UNL     1      31.988  -4.752  33.863  0.00  0.00    +0.000 OA
BRANCH  12  14
ATOM     14  O   UNL     1      33.863  -5.925  33.183  0.00  0.00    +0.000 OA
BRANCH  14  15
ATOM     15  C   UNL     1      34.089  -6.106  31.772  0.00  0.00    +0.000 C 
ATOM     16  C   UNL     1      33.226  -5.235  30.930  0.00  0.00    +0.000 C 
ATOM     17  C   UNL     1      33.734  -7.571  31.460  0.00  0.00    +0.000 C 
ATOM     18  C   UNL     1      35.558  -5.931  31.446  0.00  0.00    +0.000 C 
ENDBRANCH  14  15
ENDBRANCH  12  14
ENDBRANCH  10  11
ENDBRANCH   2  10
TORSDOF 5
ENDMDL
