MODEL 1
REMARK VINA RESULT:      -7.6      0.000      0.000
REMARK  Name = 
REMARK  3 active torsions:
REMARK  status: ('A' for Active; 'I' for Inactive)
REMARK    1  A    between atoms: C_8  and  N_9
REMARK    2  A    between atoms: C_10  and  C_12
REMARK    3  A    between atoms: C_15  and  N_16
REMARK                            x       y       z     vdW  Elec       q    Type
REMARK                         _______ _______ _______ _____ _____    ______ ____
ROOT
ATOM      1  N   UNL     1      15.719  11.381  35.444  0.00  0.00    +0.000 NA
ATOM      2  C   UNL     1      16.796  11.782  36.250  0.00  0.00    +0.000 C 
ATOM      3  O   UNL     1      17.258  12.918  36.134  0.00  0.00    +0.000 OA
ENDROOT
BRANCH   1  11
ATOM      4  C   UNL     1      16.188  10.765  32.784  0.00  0.00    +0.000 C 
ATOM      5  C   UNL     1      15.298  11.905  33.139  0.00  0.00    +0.000 A 
ATOM      6  C   UNL     1      14.711  12.647  32.123  0.00  0.00    +0.000 A 
ATOM      7  C   UNL     1      13.881  13.711  32.431  0.00  0.00    +0.000 A 
ATOM      8  F   UNL     1      13.297  14.450  31.445  0.00  0.00    +0.000 F 
ATOM      9  C   UNL     1      13.676  13.982  33.766  0.00  0.00    +0.000 A 
ATOM     10  C   UNL     1      14.258  13.245  34.777  0.00  0.00    +0.000 A 
ATOM     11  C   UNL     1      15.087  12.184  34.475  0.00  0.00    +0.000 A 
ENDBRANCH   1  11
BRANCH   2  12
ATOM     12  C   UNL     1      17.335  10.813  37.213  0.00  0.00    +0.000 A 
ATOM     13  C   UNL     1      18.503  10.107  36.965  0.00  0.00    +0.000 A 
ATOM     14  C   UNL     1      18.978   9.206  37.895  0.00  0.00    +0.000 A 
ATOM     15  C   UNL     1      18.321   8.965  39.101  0.00  0.00    +0.000 A 
ATOM     16  C   UNL     1      17.167   9.665  39.339  0.00  0.00    +0.000 A 
ATOM     17  C   UNL     1      16.437   9.435  40.617  0.00  0.00    +0.000 C 
ATOM     18  C   UNL     1      16.713  10.554  38.408  0.00  0.00    +0.000 A 
BRANCH  15  19
ATOM     19  N   UNL     1      18.853   8.028  40.022  0.00  0.00    +0.000 N 
ATOM     20  O   UNL     1      18.575   6.830  39.859  0.00  0.00    +0.000 OA
ATOM     21  O   UNL     1      19.648   8.434  41.057  0.00  0.00    +0.000 OA
ENDBRANCH  15  19
ENDBRANCH   2  12
TORSDOF 3
ENDMDL
MODEL 2
REMARK VINA RESULT:      -7.6      1.829      2.465
REMARK  Name = 
REMARK  3 active torsions:
REMARK  status: ('A' for Active; 'I' for Inactive)
REMARK    1  A    between atoms: C_8  and  N_9
REMARK    2  A    between atoms: C_10  and  C_12
REMARK    3  A    between atoms: C_15  and  N_16
REMARK                            x       y       z     vdW  Elec       q    Type
REMARK                         _______ _______ _______ _____ _____    ______ ____
ROOT
ATOM      1  N   UNL     1      15.276  11.318  35.112  0.00  0.00    +0.000 NA
ATOM      2  C   UNL     1      15.806  11.957  36.242  0.00  0.00    +0.000 C 
ATOM      3  O   UNL     1      16.259  13.099  36.145  0.00  0.00    +0.000 OA
ENDROOT
BRANCH   1  11
ATOM      4  C   UNL     1      17.090  10.397  33.232  0.00  0.00    +0.000 C 
ATOM      5  C   UNL     1      16.095  11.440  32.858  0.00  0.00    +0.000 A 
ATOM      6  C   UNL     1      16.091  11.938  31.562  0.00  0.00    +0.000 A 
ATOM      7  C   UNL     1      15.175  12.908  31.194  0.00  0.00    +0.000 A 
ATOM      8  F   UNL     1      15.158  13.408  29.927  0.00  0.00    +0.000 F 
ATOM      9  C   UNL     1      14.292  13.337  32.161  0.00  0.00    +0.000 A 
ATOM     10  C   UNL     1      14.294  12.843  33.449  0.00  0.00    +0.000 A 
ATOM     11  C   UNL     1      15.206  11.876  33.821  0.00  0.00    +0.000 A 
ENDBRANCH   1  11
BRANCH   2  12
ATOM     12  C   UNL     1      15.800  11.226  37.516  0.00  0.00    +0.000 A 
ATOM     13  C   UNL     1      14.658  11.124  38.297  0.00  0.00    +0.000 A 
ATOM     14  C   UNL     1      14.691  10.428  39.486  0.00  0.00    +0.000 A 
ATOM     15  C   UNL     1      15.849   9.807  39.952  0.00  0.00    +0.000 A 
ATOM     16  C   UNL     1      16.975   9.911  39.177  0.00  0.00    +0.000 A 
ATOM     17  C   UNL     1      18.232   9.260  39.642  0.00  0.00    +0.000 C 
ATOM     18  C   UNL     1      16.922  10.604  38.002  0.00  0.00    +0.000 A 
BRANCH  15  19
ATOM     19  N   UNL     1      15.829   9.103  41.183  0.00  0.00    +0.000 N 
ATOM     20  O   UNL     1      16.087   9.735  42.218  0.00  0.00    +0.000 OA
ATOM     21  O   UNL     1      15.534   7.769  41.224  0.00  0.00    +0.000 OA
ENDBRANCH  15  19
ENDBRANCH   2  12
TORSDOF 3
ENDMDL
MODEL 3
REMARK VINA RESULT:      -7.2      1.280      2.015
REMARK  Name = 
REMARK  3 active torsions:
REMARK  status: ('A' for Active; 'I' for Inactive)
REMARK    1  A    between atoms: C_8  and  N_9
REMARK    2  A    between atoms: C_10  and  C_12
REMARK    3  A    between atoms: C_15  and  N_16
REMARK                            x       y       z     vdW  Elec       q    Type
REMARK                         _______ _______ _______ _____ _____    ______ ____
ROOT
ATOM      1  N   UNL     1      15.941  11.808  34.511  0.00  0.00    +0.000 NA
ATOM      2  C   UNL     1      15.473  11.453  35.785  0.00  0.00    +0.000 C 
ATOM      3  O   UNL     1      14.289  11.629  36.074  0.00  0.00    +0.000 OA
ENDROOT
BRANCH   1  11
ATOM      4  C   UNL     1      16.103  10.636  32.006  0.00  0.00    +0.000 C 
ATOM      5  C   UNL     1      15.213  11.809  32.223  0.00  0.00    +0.000 A 
ATOM      6  C   UNL     1      14.470  12.302  31.158  0.00  0.00    +0.000 A 
ATOM      7  C   UNL     1      13.637  13.392  31.339  0.00  0.00    +0.000 A 
ATOM      8  F   UNL     1      12.901  13.888  30.304  0.00  0.00    +0.000 F 
ATOM      9  C   UNL     1      13.588  13.944  32.600  0.00  0.00    +0.000 A 
ATOM     10  C   UNL     1      14.325  13.455  33.659  0.00  0.00    +0.000 A 
ATOM     11  C   UNL     1      15.157  12.368  33.484  0.00  0.00    +0.000 A 
ENDBRANCH   1  11
BRANCH   2  12
ATOM     12  C   UNL     1      16.433  10.878  36.738  0.00  0.00    +0.000 A 
ATOM     13  C   UNL     1      16.094  10.632  38.060  0.00  0.00    +0.000 A 
ATOM     14  C   UNL     1      17.023  10.091  38.923  0.00  0.00    +0.000 A 
ATOM     15  C   UNL     1      18.319   9.773  38.518  0.00  0.00    +0.000 A 
ATOM     16  C   UNL     1      18.647  10.019  37.210  0.00  0.00    +0.000 A 
ATOM     17  C   UNL     1      20.023   9.692  36.740  0.00  0.00    +0.000 C 
ATOM     18  C   UNL     1      17.715  10.554  36.370  0.00  0.00    +0.000 A 
BRANCH  15  19
ATOM     19  N   UNL     1      19.235   9.217  39.447  0.00  0.00    +0.000 N 
ATOM     20  O   UNL     1      19.187   7.995  39.651  0.00  0.00    +0.000 OA
ATOM     21  O   UNL     1      20.143  10.007  40.095  0.00  0.00    +0.000 OA
ENDBRANCH  15  19
ENDBRANCH   2  12
TORSDOF 3
ENDMDL
MODEL 4
REMARK VINA RESULT:      -6.9      3.505      4.389
REMARK  Name = 
REMARK  3 active torsions:
REMARK  status: ('A' for Active; 'I' for Inactive)
REMARK    1  A    between atoms: C_8  and  N_9
REMARK    2  A    between atoms: C_10  and  C_12
REMARK    3  A    between atoms: C_15  and  N_16
REMARK                            x       y       z     vdW  Elec       q    Type
REMARK                         _______ _______ _______ _____ _____    ______ ____
ROOT
ATOM      1  N   UNL     1      16.273  11.432  37.847  0.00  0.00    +0.000 NA
ATOM      2  C   UNL     1      17.139  10.610  37.110  0.00  0.00    +0.000 C 
ATOM      3  O   UNL     1      16.679   9.815  36.289  0.00  0.00    +0.000 OA
ENDROOT
BRANCH   1  11
ATOM      4  C   UNL     1      15.168  13.010  35.855  0.00  0.00    +0.000 C 
ATOM      5  C   UNL     1      14.284  12.215  36.753  0.00  0.00    +0.000 A 
ATOM      6  C   UNL     1      12.908  12.276  36.576  0.00  0.00    +0.000 A 
ATOM      7  C   UNL     1      12.069  11.546  37.400  0.00  0.00    +0.000 A 
ATOM      8  F   UNL     1      10.717  11.596  37.240  0.00  0.00    +0.000 F 
ATOM      9  C   UNL     1      12.662  10.777  38.377  0.00  0.00    +0.000 A 
ATOM     10  C   UNL     1      14.029  10.715  38.554  0.00  0.00    +0.000 A 
ATOM     11  C   UNL     1      14.869  11.441  37.735  0.00  0.00    +0.000 A 
ENDBRANCH   1  11
BRANCH   2  12
ATOM     12  C   UNL     1      18.582  10.733  37.355  0.00  0.00    +0.000 A 
ATOM     13  C   UNL     1      19.481   9.759  36.945  0.00  0.00    +0.000 A 
ATOM     14  C   UNL     1      20.828   9.911  37.192  0.00  0.00    +0.000 A 
ATOM     15  C   UNL     1      21.342  11.025  37.854  0.00  0.00    +0.000 A 
ATOM     16  C   UNL     1      20.449  11.984  38.258  0.00  0.00    +0.000 A 
ATOM     17  C   UNL     1      20.961  13.190  38.968  0.00  0.00    +0.000 C 
ATOM     18  C   UNL     1      19.119  11.817  38.003  0.00  0.00    +0.000 A 
BRANCH  15  19
ATOM     19  N   UNL     1      22.737  11.133  38.083  0.00  0.00    +0.000 N 
ATOM     20  O   UNL     1      23.446  11.566  37.162  0.00  0.00    +0.000 OA
ATOM     21  O   UNL     1      23.281  10.770  39.283  0.00  0.00    +0.000 OA
ENDBRANCH  15  19
ENDBRANCH   2  12
TORSDOF 3
ENDMDL
MODEL 5
REMARK VINA RESULT:      -6.7      0.905      1.671
REMARK  Name = 
REMARK  3 active torsions:
REMARK  status: ('A' for Active; 'I' for Inactive)
REMARK    1  A    between atoms: C_8  and  N_9
REMARK    2  A    between atoms: C_10  and  C_12
REMARK    3  A    between atoms: C_15  and  N_16
REMARK                            x       y       z     vdW  Elec       q    Type
REMARK                         _______ _______ _______ _____ _____    ______ ____
ROOT
ATOM      1  N   UNL     1      16.260  10.744  35.545  0.00  0.00    +0.000 NA
ATOM      2  C   UNL     1      17.171  11.249  36.486  0.00  0.00    +0.000 C 
ATOM      3  O   UNL     1      17.663  12.366  36.323  0.00  0.00    +0.000 OA
ENDROOT
BRANCH   1  11
ATOM      4  C   UNL     1      14.164  12.535  35.813  0.00  0.00    +0.000 C 
ATOM      5  C   UNL     1      14.792  12.318  34.480  0.00  0.00    +0.000 A 
ATOM      6  C   UNL     1      14.315  13.022  33.383  0.00  0.00    +0.000 A 
ATOM      7  C   UNL     1      14.885  12.835  32.136  0.00  0.00    +0.000 A 
ATOM      8  F   UNL     1      14.428  13.519  31.049  0.00  0.00    +0.000 F 
ATOM      9  C   UNL     1      15.924  11.934  32.049  0.00  0.00    +0.000 A 
ATOM     10  C   UNL     1      16.399  11.233  33.138  0.00  0.00    +0.000 A 
ATOM     11  C   UNL     1      15.835  11.417  34.384  0.00  0.00    +0.000 A 
ENDBRANCH   1  11
BRANCH   2  12
ATOM     12  C   UNL     1      17.504  10.409  37.644  0.00  0.00    +0.000 A 
ATOM     13  C   UNL     1      18.677   9.671  37.700  0.00  0.00    +0.000 A 
ATOM     14  C   UNL     1      18.955   8.895  38.805  0.00  0.00    +0.000 A 
ATOM     15  C   UNL     1      18.089   8.814  39.894  0.00  0.00    +0.000 A 
ATOM     16  C   UNL     1      16.930   9.544  39.832  0.00  0.00    +0.000 A 
ATOM     17  C   UNL     1      15.980   9.484  40.978  0.00  0.00    +0.000 C 
ATOM     18  C   UNL     1      16.673  10.308  38.731  0.00  0.00    +0.000 A 
BRANCH  15  19
ATOM     19  N   UNL     1      18.422   8.000  41.006  0.00  0.00    +0.000 N 
ATOM     20  O   UNL     1      18.096   6.804  40.969  0.00  0.00    +0.000 OA
ATOM     21  O   UNL     1      19.084   8.520  42.083  0.00  0.00    +0.000 OA
ENDBRANCH  15  19
ENDBRANCH   2  12
TORSDOF 3
ENDMDL
MODEL 6
REMARK VINA RESULT:      -6.6     19.620     21.206
REMARK  Name = 
REMARK  3 active torsions:
REMARK  status: ('A' for Active; 'I' for Inactive)
REMARK    1  A    between atoms: C_8  and  N_9
REMARK    2  A    between atoms: C_10  and  C_12
REMARK    3  A    between atoms: C_15  and  N_16
REMARK                            x       y       z     vdW  Elec       q    Type
REMARK                         _______ _______ _______ _____ _____    ______ ____
ROOT
ATOM      1  N   UNL     1      33.089   0.418  34.550  0.00  0.00    +0.000 NA
ATOM      2  C   UNL     1      33.729  -0.592  33.815  0.00  0.00    +0.000 C 
ATOM      3  O   UNL     1      34.662  -0.305  33.063  0.00  0.00    +0.000 OA
ENDROOT
BRANCH   1  11
ATOM      4  C   UNL     1      34.100   1.542  36.872  0.00  0.00    +0.000 C 
ATOM      5  C   UNL     1      33.930   2.379  35.652  0.00  0.00    +0.000 A 
ATOM      6  C   UNL     1      34.285   3.721  35.696  0.00  0.00    +0.000 A 
ATOM      7  C   UNL     1      34.134   4.516  34.573  0.00  0.00    +0.000 A 
ATOM      8  F   UNL     1      34.477   5.835  34.600  0.00  0.00    +0.000 F 
ATOM      9  C   UNL     1      33.627   3.916  33.441  0.00  0.00    +0.000 A 
ATOM     10  C   UNL     1      33.275   2.583  33.395  0.00  0.00    +0.000 A 
ATOM     11  C   UNL     1      33.423   1.786  34.512  0.00  0.00    +0.000 A 
ENDBRANCH   1  11
BRANCH   2  12
ATOM     12  C   UNL     1      33.249  -1.971  33.975  0.00  0.00    +0.000 A 
ATOM     13  C   UNL     1      32.375  -2.329  34.990  0.00  0.00    +0.000 A 
ATOM     14  C   UNL     1      31.947  -3.634  35.108  0.00  0.00    +0.000 A 
ATOM     15  C   UNL     1      32.364  -4.636  34.232  0.00  0.00    +0.000 A 
ATOM     16  C   UNL     1      33.229  -4.276  33.231  0.00  0.00    +0.000 A 
ATOM     17  C   UNL     1      33.697  -5.318  32.275  0.00  0.00    +0.000 C 
ATOM     18  C   UNL     1      33.641  -2.978  33.130  0.00  0.00    +0.000 A 
BRANCH  15  19
ATOM     19  N   UNL     1      31.894  -5.963  34.397  0.00  0.00    +0.000 N 
ATOM     20  O   UNL     1      32.548  -6.725  35.124  0.00  0.00    +0.000 OA
ATOM     21  O   UNL     1      30.753  -6.386  33.774  0.00  0.00    +0.000 OA
ENDBRANCH  15  19
ENDBRANCH   2  12
TORSDOF 3
ENDMDL
MODEL 7
REMARK VINA RESULT:      -6.6      2.327      3.418
REMARK  Name = 
REMARK  3 active torsions:
REMARK  status: ('A' for Active; 'I' for Inactive)
REMARK    1  A    between atoms: C_8  and  N_9
REMARK    2  A    between atoms: C_10  and  C_12
REMARK    3  A    between atoms: C_15  and  N_16
REMARK                            x       y       z     vdW  Elec       q    Type
REMARK                         _______ _______ _______ _____ _____    ______ ____
ROOT
ATOM      1  N   UNL     1      17.713  10.761  34.852  0.00  0.00    +0.000 NA
ATOM      2  C   UNL     1      17.874   9.580  35.594  0.00  0.00    +0.000 C 
ATOM      3  O   UNL     1      17.201   8.586  35.318  0.00  0.00    +0.000 OA
ENDROOT
BRANCH   1  11
ATOM      4  C   UNL     1      15.449  12.288  35.311  0.00  0.00    +0.000 C 
ATOM      5  C   UNL     1      15.681  11.684  33.970  0.00  0.00    +0.000 A 
ATOM      6  C   UNL     1      14.751  11.899  32.961  0.00  0.00    +0.000 A 
ATOM      7  C   UNL     1      14.947  11.346  31.708  0.00  0.00    +0.000 A 
ATOM      8  F   UNL     1      14.044  11.546  30.707  0.00  0.00    +0.000 F 
ATOM      9  C   UNL     1      16.086  10.593  31.524  0.00  0.00    +0.000 A 
ATOM     10  C   UNL     1      17.011  10.379  32.526  0.00  0.00    +0.000 A 
ATOM     11  C   UNL     1      16.820  10.928  33.777  0.00  0.00    +0.000 A 
ENDBRANCH   1  11
BRANCH   2  12
ATOM     12  C   UNL     1      18.856   9.581  36.687  0.00  0.00    +0.000 A 
ATOM     13  C   UNL     1      18.491   9.320  37.999  0.00  0.00    +0.000 A 
ATOM     14  C   UNL     1      19.442   9.329  38.997  0.00  0.00    +0.000 A 
ATOM     15  C   UNL     1      20.786   9.596  38.742  0.00  0.00    +0.000 A 
ATOM     16  C   UNL     1      21.141   9.855  37.443  0.00  0.00    +0.000 A 
ATOM     17  C   UNL     1      22.568  10.144  37.131  0.00  0.00    +0.000 C 
ATOM     18  C   UNL     1      20.186   9.840  36.468  0.00  0.00    +0.000 A 
BRANCH  15  19
ATOM     19  N   UNL     1      21.724   9.593  39.806  0.00  0.00    +0.000 N 
ATOM     20  O   UNL     1      22.252   8.513  40.112  0.00  0.00    +0.000 OA
ATOM     21  O   UNL     1      22.036  10.746  40.471  0.00  0.00    +0.000 OA
ENDBRANCH  15  19
ENDBRANCH   2  12
TORSDOF 3
ENDMDL
MODEL 8
REMARK VINA RESULT:      -6.4      4.288      7.603
REMARK  Name = 
REMARK  3 active torsions:
REMARK  status: ('A' for Active; 'I' for Inactive)
REMARK    1  A    between atoms: C_8  and  N_9
REMARK    2  A    between atoms: C_10  and  C_12
REMARK    3  A    between atoms: C_15  and  N_16
REMARK                            x       y       z     vdW  Elec       q    Type
REMARK                         _______ _______ _______ _____ _____    ______ ____
ROOT
ATOM      1  N   UNL     1      19.387  10.838  37.421  0.00  0.00    +0.000 NA
ATOM      2  C   UNL     1      18.298  10.006  37.724  0.00  0.00    +0.000 C 
ATOM      3  O   UNL     1      18.496   8.877  38.174  0.00  0.00    +0.000 OA
ENDROOT
BRANCH   1  11
ATOM      4  C   UNL     1      20.638  11.689  39.741  0.00  0.00    +0.000 C 
ATOM      5  C   UNL     1      21.398  10.901  38.732  0.00  0.00    +0.000 A 
ATOM      6  C   UNL     1      22.732  10.602  38.971  0.00  0.00    +0.000 A 
ATOM      7  C   UNL     1      23.457   9.871  38.045  0.00  0.00    +0.000 A 
ATOM      8  F   UNL     1      24.768   9.569  38.265  0.00  0.00    +0.000 F 
ATOM      9  C   UNL     1      22.795   9.469  36.905  0.00  0.00    +0.000 A 
ATOM     10  C   UNL     1      21.469   9.766  36.666  0.00  0.00    +0.000 A 
ATOM     11  C   UNL     1      20.743  10.494  37.587  0.00  0.00    +0.000 A 
ENDBRANCH   1  11
BRANCH   2  12
ATOM     12  C   UNL     1      16.945  10.528  37.488  0.00  0.00    +0.000 A 
ATOM     13  C   UNL     1      16.001  10.598  38.501  0.00  0.00    +0.000 A 
ATOM     14  C   UNL     1      14.741  11.094  38.240  0.00  0.00    +0.000 A 
ATOM     15  C   UNL     1      14.364  11.538  36.974  0.00  0.00    +0.000 A 
ATOM     16  C   UNL     1      15.302  11.465  35.977  0.00  0.00    +0.000 A 
ATOM     17  C   UNL     1      14.936  11.932  34.609  0.00  0.00    +0.000 C 
ATOM     18  C   UNL     1      16.544  10.972  36.254  0.00  0.00    +0.000 A 
BRANCH  15  19
ATOM     19  N   UNL     1      13.055  12.040  36.759  0.00  0.00    +0.000 N 
ATOM     20  O   UNL     1      12.109  11.241  36.821  0.00  0.00    +0.000 OA
ATOM     21  O   UNL     1      12.846  13.364  36.493  0.00  0.00    +0.000 OA
ENDBRANCH  15  19
ENDBRANCH   2  12
TORSDOF 3
ENDMDL
MODEL 9
REMARK VINA RESULT:      -6.3      4.032      7.984
REMARK  Name = 
REMARK  3 active torsions:
REMARK  status: ('A' for Active; 'I' for Inactive)
REMARK    1  A    between atoms: C_8  and  N_9
REMARK    2  A    between atoms: C_10  and  C_12
REMARK    3  A    between atoms: C_15  and  N_16
REMARK                            x       y       z     vdW  Elec       q    Type
REMARK                         _______ _______ _______ _____ _____    ______ ____
ROOT
ATOM      1  N   UNL     1      17.853   9.302  38.461  0.00  0.00    +0.000 NA
ATOM      2  C   UNL     1      18.156  10.452  37.717  0.00  0.00    +0.000 C 
ATOM      3  O   UNL     1      18.900  11.311  38.192  0.00  0.00    +0.000 OA
ENDROOT
BRANCH   1  11
ATOM      4  C   UNL     1      16.089   9.621  40.574  0.00  0.00    +0.000 C 
ATOM      5  C   UNL     1      17.485   9.167  40.830  0.00  0.00    +0.000 A 
ATOM      6  C   UNL     1      17.884   8.908  42.134  0.00  0.00    +0.000 A 
ATOM      7  C   UNL     1      19.176   8.487  42.394  0.00  0.00    +0.000 A 
ATOM      8  F   UNL     1      19.584   8.229  43.669  0.00  0.00    +0.000 F 
ATOM      9  C   UNL     1      20.019   8.343  41.314  0.00  0.00    +0.000 A 
ATOM     10  C   UNL     1      19.624   8.600  40.017  0.00  0.00    +0.000 A 
ATOM     11  C   UNL     1      18.336   9.020  39.753  0.00  0.00    +0.000 A 
ENDBRANCH   1  11
BRANCH   2  12
ATOM     12  C   UNL     1      17.561  10.586  36.380  0.00  0.00    +0.000 A 
ATOM     13  C   UNL     1      18.055   9.891  35.287  0.00  0.00    +0.000 A 
ATOM     14  C   UNL     1      17.470  10.042  34.048  0.00  0.00    +0.000 A 
ATOM     15  C   UNL     1      16.378  10.883  33.838  0.00  0.00    +0.000 A 
ATOM     16  C   UNL     1      15.895  11.568  34.923  0.00  0.00    +0.000 A 
ATOM     17  C   UNL     1      14.728  12.477  34.739  0.00  0.00    +0.000 C 
ATOM     18  C   UNL     1      16.487  11.405  36.142  0.00  0.00    +0.000 A 
BRANCH  15  19
ATOM     19  N   UNL     1      15.813  11.003  32.543  0.00  0.00    +0.000 N 
ATOM     20  O   UNL     1      16.270  11.874  31.788  0.00  0.00    +0.000 OA
ATOM     21  O   UNL     1      14.797  10.181  32.142  0.00  0.00    +0.000 OA
ENDBRANCH  15  19
ENDBRANCH   2  12
TORSDOF 3
ENDMDL
MODEL 10
REMARK VINA RESULT:      -6.2     20.363     22.443
REMARK  Name = 
REMARK  3 active torsions:
REMARK  status: ('A' for Active; 'I' for Inactive)
REMARK    1  A    between atoms: C_8  and  N_9
REMARK    2  A    between atoms: C_10  and  C_12
REMARK    3  A    between atoms: C_15  and  N_16
REMARK                            x       y       z     vdW  Elec       q    Type
REMARK                         _______ _______ _______ _____ _____    ______ ____
ROOT
ATOM      1  N   UNL     1      31.301  22.296  28.049  0.00  0.00    +0.000 NA
ATOM      2  C   UNL     1      31.487  23.491  27.338  0.00  0.00    +0.000 C 
ATOM      3  O   UNL     1      32.174  24.391  27.821  0.00  0.00    +0.000 OA
ENDROOT
BRANCH   1  11
ATOM      4  C   UNL     1      29.696  22.766  30.257  0.00  0.00    +0.000 C 
ATOM      5  C   UNL     1      31.074  22.233  30.439  0.00  0.00    +0.000 A 
ATOM      6  C   UNL     1      31.538  21.977  31.722  0.00  0.00    +0.000 A 
ATOM      7  C   UNL     1      32.816  21.482  31.913  0.00  0.00    +0.000 A 
ATOM      8  F   UNL     1      33.287  21.226  33.166  0.00  0.00    +0.000 F 
ATOM      9  C   UNL     1      33.580  21.264  30.787  0.00  0.00    +0.000 A 
ATOM     10  C   UNL     1      33.121  21.518  29.511  0.00  0.00    +0.000 A 
ATOM     11  C   UNL     1      31.847  22.011  29.316  0.00  0.00    +0.000 A 
ENDBRANCH   1  11
BRANCH   2  12
ATOM     12  C   UNL     1      30.841  23.620  26.024  0.00  0.00    +0.000 A 
ATOM     13  C   UNL     1      30.365  22.517  25.331  0.00  0.00    +0.000 A 
ATOM     14  C   UNL     1      29.765  22.679  24.101  0.00  0.00    +0.000 A 
ATOM     15  C   UNL     1      29.612  23.931  23.506  0.00  0.00    +0.000 A 
ATOM     16  C   UNL     1      30.086  25.017  24.196  0.00  0.00    +0.000 A 
ATOM     17  C   UNL     1      29.940  26.371  23.593  0.00  0.00    +0.000 C 
ATOM     18  C   UNL     1      30.676  24.837  25.413  0.00  0.00    +0.000 A 
BRANCH  15  19
ATOM     19  N   UNL     1      28.987  24.041  22.239  0.00  0.00    +0.000 N 
ATOM     20  O   UNL     1      27.749  23.985  22.194  0.00  0.00    +0.000 OA
ATOM     21  O   UNL     1      29.728  24.206  21.102  0.00  0.00    +0.000 OA
ENDBRANCH  15  19
ENDBRANCH   2  12
TORSDOF 3
ENDMDL
