MODEL 1
REMARK VINA RESULT:      -7.8      0.000      0.000
REMARK  Name = 
REMARK  6 active torsions:
REMARK  status: ('A' for Active; 'I' for Inactive)
REMARK    1  A    between atoms: C_2  and  O_3
REMARK    2  A    between atoms: O_3  and  C_4
REMARK    3  A    between atoms: C_9  and  N_10
REMARK    4  A    between atoms: C_11  and  C_13
REMARK    5  A    between atoms: C_14  and  N_15
REMARK    6  A    between atoms: C_16  and  C_18
REMARK                            x       y       z     vdW  Elec       q    Type
REMARK                         _______ _______ _______ _____ _____    ______ ____
ROOT
ATOM      1  C   UNL     1      39.581  -0.109  14.259  0.00  0.00    +0.000 A 
ATOM      2  C   UNL     1      40.018   1.173  14.302  0.00  0.00    +0.000 A 
ATOM      3  S   UNL     1      41.350   1.124  13.140  0.00  0.00    +0.000 S 
ATOM      4  C   UNL     1      41.253  -0.502  12.685  0.00  0.00    +0.000 A 
ATOM      5  C   UNL     1      40.217  -0.962  13.426  0.00  0.00    +0.000 A 
ATOM      6  C   UNL     1      40.034  -2.445  13.089  0.00  0.00    +0.000 C 
ATOM      7  C   UNL     1      39.615  -2.461  11.702  0.00  0.00    +0.000 C 
ATOM      8  C   UNL     1      40.812  -1.997  10.692  0.00  0.00    +0.000 C 
ATOM      9  C   UNL     1      40.162  -0.511  10.433  0.00  0.00    +0.000 C 
ATOM     10  C   UNL     1      41.909  -1.486  11.791  0.00  0.00    +0.000 C 
ENDROOT
BRANCH   1  12
ATOM     11  N   UNL     1      37.110  -0.533  14.755  0.00  0.00    +0.000 NA
ATOM     12  C   UNL     1      38.491  -0.638  15.129  0.00  0.00    +0.000 C 
ATOM     13  O   UNL     1      38.648  -1.198  16.212  0.00  0.00    +0.000 OA
BRANCH  11  19
ATOM     14  C   UNL     1      35.489  -0.166  16.476  0.00  0.00    +0.000 A 
ATOM     15  C   UNL     1      34.457  -0.581  17.332  0.00  0.00    +0.000 A 
ATOM     16  C   UNL     1      34.001  -1.873  17.298  0.00  0.00    +0.000 A 
ATOM     17  C   UNL     1      34.589  -2.741  16.401  0.00  0.00    +0.000 A 
ATOM     18  C   UNL     1      35.609  -2.331  15.555  0.00  0.00    +0.000 A 
ATOM     19  C   UNL     1      36.070  -1.037  15.584  0.00  0.00    +0.000 A 
BRANCH  14  20
ATOM     20  O   UNL     1      35.945   1.146  16.516  0.00  0.00    +0.000 OA
BRANCH  20  22
ATOM     21  C   UNL     1      34.898   2.579  14.867  0.00  0.00    +0.000 C 
ATOM     22  C   UNL     1      35.009   2.189  16.322  0.00  0.00    +0.000 C 
ENDBRANCH  20  22
ENDBRANCH  14  20
ENDBRANCH  11  19
ENDBRANCH   1  12
BRANCH   2  23
ATOM     23  N   UNL     1      39.713   2.358  14.859  0.00  0.00    +0.000 NA
ATOM     24  C   UNL     1      39.009   3.485  14.927  0.00  0.00    +0.000 C 
ATOM     25  O   UNL     1      38.122   3.658  14.040  0.00  0.00    +0.000 OA
BRANCH  24  26
ATOM     26  C   UNL     1      39.187   4.542  15.958  0.00  0.00    +0.000 A 
ATOM     27  C   UNL     1      40.078   5.553  15.742  0.00  0.00    +0.000 A 
ATOM     28  C   UNL     1      40.270   6.569  16.696  0.00  0.00    +0.000 A 
ATOM     29  C   UNL     1      39.538   6.533  17.871  0.00  0.00    +0.000 A 
ATOM     30  C   UNL     1      38.641   5.523  18.097  0.00  0.00    +0.000 A 
ATOM     31  C   UNL     1      38.473   4.525  17.126  0.00  0.00    +0.000 A 
ENDBRANCH  24  26
ENDBRANCH   2  23
TORSDOF 6
ENDMDL
MODEL 2
REMARK VINA RESULT:      -7.7      2.401      3.842
REMARK  Name = 
REMARK  6 active torsions:
REMARK  status: ('A' for Active; 'I' for Inactive)
REMARK    1  A    between atoms: C_2  and  O_3
REMARK    2  A    between atoms: O_3  and  C_4
REMARK    3  A    between atoms: C_9  and  N_10
REMARK    4  A    between atoms: C_11  and  C_13
REMARK    5  A    between atoms: C_14  and  N_15
REMARK    6  A    between atoms: C_16  and  C_18
REMARK                            x       y       z     vdW  Elec       q    Type
REMARK                         _______ _______ _______ _____ _____    ______ ____
ROOT
ATOM      1  C   UNL     1      38.354   3.072  14.672  0.00  0.00    +0.000 A 
ATOM      2  C   UNL     1      39.004   4.065  15.326  0.00  0.00    +0.000 A 
ATOM      3  S   UNL     1      40.144   4.607  14.088  0.00  0.00    +0.000 S 
ATOM      4  C   UNL     1      39.715   3.547  12.841  0.00  0.00    +0.000 A 
ATOM      5  C   UNL     1      38.722   2.813  13.397  0.00  0.00    +0.000 A 
ATOM      6  C   UNL     1      38.248   1.808  12.342  0.00  0.00    +0.000 C 
ATOM      7  C   UNL     1      37.655   2.619  11.299  0.00  0.00    +0.000 C 
ATOM      8  C   UNL     1      38.770   3.501  10.495  0.00  0.00    +0.000 C 
ATOM      9  C   UNL     1      38.353   4.904  11.239  0.00  0.00    +0.000 C 
ATOM     10  C   UNL     1      40.073   3.215  11.441  0.00  0.00    +0.000 C 
ENDROOT
BRANCH   1  12
ATOM     11  N   UNL     1      37.618   0.895  15.787  0.00  0.00    +0.000 NA
ATOM     12  C   UNL     1      37.314   2.211  15.305  0.00  0.00    +0.000 C 
ATOM     13  O   UNL     1      36.136   2.519  15.475  0.00  0.00    +0.000 OA
BRANCH  11  19
ATOM     14  C   UNL     1      36.123  -0.969  15.644  0.00  0.00    +0.000 A 
ATOM     15  C   UNL     1      35.142  -1.828  16.162  0.00  0.00    +0.000 A 
ATOM     16  C   UNL     1      34.659  -1.650  17.433  0.00  0.00    +0.000 A 
ATOM     17  C   UNL     1      35.169  -0.604  18.175  0.00  0.00    +0.000 A 
ATOM     18  C   UNL     1      36.139   0.246  17.663  0.00  0.00    +0.000 A 
ATOM     19  C   UNL     1      36.627   0.072  16.390  0.00  0.00    +0.000 A 
BRANCH  14  20
ATOM     20  O   UNL     1      36.608  -1.157  14.355  0.00  0.00    +0.000 OA
BRANCH  20  22
ATOM     21  C   UNL     1      38.521  -2.043  13.162  0.00  0.00    +0.000 C 
ATOM     22  C   UNL     1      37.358  -2.325  14.084  0.00  0.00    +0.000 C 
ENDBRANCH  20  22
ENDBRANCH  14  20
ENDBRANCH  11  19
ENDBRANCH   1  12
BRANCH   2  23
ATOM     23  N   UNL     1      38.979   4.732  16.493  0.00  0.00    +0.000 NA
ATOM     24  C   UNL     1      38.741   4.819  17.799  0.00  0.00    +0.000 C 
ATOM     25  O   UNL     1      38.278   3.786  18.365  0.00  0.00    +0.000 OA
BRANCH  24  26
ATOM     26  C   UNL     1      38.979   6.029  18.631  0.00  0.00    +0.000 A 
ATOM     27  C   UNL     1      40.043   6.061  19.487  0.00  0.00    +0.000 A 
ATOM     28  C   UNL     1      40.298   7.189  20.287  0.00  0.00    +0.000 A 
ATOM     29  C   UNL     1      39.450   8.280  20.198  0.00  0.00    +0.000 A 
ATOM     30  C   UNL     1      38.380   8.258  19.342  0.00  0.00    +0.000 A 
ATOM     31  C   UNL     1      38.154   7.118  18.558  0.00  0.00    +0.000 A 
ENDBRANCH  24  26
ENDBRANCH   2  23
TORSDOF 6
ENDMDL
MODEL 3
REMARK VINA RESULT:      -7.5      2.986      6.398
REMARK  Name = 
REMARK  6 active torsions:
REMARK  status: ('A' for Active; 'I' for Inactive)
REMARK    1  A    between atoms: C_2  and  O_3
REMARK    2  A    between atoms: O_3  and  C_4
REMARK    3  A    between atoms: C_9  and  N_10
REMARK    4  A    between atoms: C_11  and  C_13
REMARK    5  A    between atoms: C_14  and  N_15
REMARK    6  A    between atoms: C_16  and  C_18
REMARK                            x       y       z     vdW  Elec       q    Type
REMARK                         _______ _______ _______ _____ _____    ______ ____
ROOT
ATOM      1  C   UNL     1      36.465   0.878  15.180  0.00  0.00    +0.000 A 
ATOM      2  C   UNL     1      35.690   1.988  15.233  0.00  0.00    +0.000 A 
ATOM      3  S   UNL     1      34.583   1.575  16.549  0.00  0.00    +0.000 S 
ATOM      4  C   UNL     1      35.181   0.040  16.935  0.00  0.00    +0.000 A 
ATOM      5  C   UNL     1      36.201  -0.117  16.057  0.00  0.00    +0.000 A 
ATOM      6  C   UNL     1      36.826  -1.490  16.320  0.00  0.00    +0.000 C 
ATOM      7  C   UNL     1      37.406  -1.385  17.643  0.00  0.00    +0.000 C 
ATOM      8  C   UNL     1      36.268  -1.268  18.808  0.00  0.00    +0.000 C 
ATOM      9  C   UNL     1      36.510   0.340  19.033  0.00  0.00    +0.000 C 
ATOM     10  C   UNL     1      34.941  -1.085  17.869  0.00  0.00    +0.000 C 
ENDROOT
BRANCH   1  12
ATOM     11  N   UNL     1      37.331  -0.150  13.007  0.00  0.00    +0.000 NA
ATOM     12  C   UNL     1      37.539   0.669  14.165  0.00  0.00    +0.000 C 
ATOM     13  O   UNL     1      38.667   1.154  14.208  0.00  0.00    +0.000 OA
BRANCH  11  19
ATOM     14  C   UNL     1      39.133  -1.477  12.161  0.00  0.00    +0.000 A 
ATOM     15  C   UNL     1      40.165  -1.751  11.250  0.00  0.00    +0.000 A 
ATOM     16  C   UNL     1      40.421  -0.896  10.210  0.00  0.00    +0.000 A 
ATOM     17  C   UNL     1      39.635   0.233  10.094  0.00  0.00    +0.000 A 
ATOM     18  C   UNL     1      38.615   0.503  10.994  0.00  0.00    +0.000 A 
ATOM     19  C   UNL     1      38.353  -0.350  12.039  0.00  0.00    +0.000 A 
BRANCH  14  20
ATOM     20  O   UNL     1      38.879  -2.350  13.213  0.00  0.00    +0.000 OA
BRANCH  20  22
ATOM     21  C   UNL     1      40.354  -1.679  15.014  0.00  0.00    +0.000 C 
ATOM     22  C   UNL     1      39.963  -2.754  14.027  0.00  0.00    +0.000 C 
ENDBRANCH  20  22
ENDBRANCH  14  20
ENDBRANCH  11  19
ENDBRANCH   1  12
BRANCH   2  23
ATOM     23  N   UNL     1      35.583   3.210  14.682  0.00  0.00    +0.000 NA
ATOM     24  C   UNL     1      36.018   4.447  14.460  0.00  0.00    +0.000 C 
ATOM     25  O   UNL     1      37.104   4.780  15.019  0.00  0.00    +0.000 OA
BRANCH  24  26
ATOM     26  C   UNL     1      35.329   5.454  13.610  0.00  0.00    +0.000 A 
ATOM     27  C   UNL     1      34.258   6.139  14.109  0.00  0.00    +0.000 A 
ATOM     28  C   UNL     1      33.584   7.099  13.333  0.00  0.00    +0.000 A 
ATOM     29  C   UNL     1      34.021   7.346  12.042  0.00  0.00    +0.000 A 
ATOM     30  C   UNL     1      35.094   6.664  11.532  0.00  0.00    +0.000 A 
ATOM     31  C   UNL     1      35.744   5.713  12.332  0.00  0.00    +0.000 A 
ENDBRANCH  24  26
ENDBRANCH   2  23
TORSDOF 6
ENDMDL
MODEL 4
REMARK VINA RESULT:      -7.5      2.256      5.782
REMARK  Name = 
REMARK  6 active torsions:
REMARK  status: ('A' for Active; 'I' for Inactive)
REMARK    1  A    between atoms: C_2  and  O_3
REMARK    2  A    between atoms: O_3  and  C_4
REMARK    3  A    between atoms: C_9  and  N_10
REMARK    4  A    between atoms: C_11  and  C_13
REMARK    5  A    between atoms: C_14  and  N_15
REMARK    6  A    between atoms: C_16  and  C_18
REMARK                            x       y       z     vdW  Elec       q    Type
REMARK                         _______ _______ _______ _____ _____    ______ ____
ROOT
ATOM      1  C   UNL     1      38.146  -0.374  14.800  0.00  0.00    +0.000 A 
ATOM      2  C   UNL     1      37.576   0.705  15.389  0.00  0.00    +0.000 A 
ATOM      3  S   UNL     1      35.984   0.063  15.819  0.00  0.00    +0.000 S 
ATOM      4  C   UNL     1      36.159  -1.513  15.229  0.00  0.00    +0.000 A 
ATOM      5  C   UNL     1      37.415  -1.509  14.723  0.00  0.00    +0.000 A 
ATOM      6  C   UNL     1      37.687  -2.906  14.156  0.00  0.00    +0.000 C 
ATOM      7  C   UNL     1      37.688  -3.780  15.311  0.00  0.00    +0.000 C 
ATOM      8  C   UNL     1      36.202  -3.931  15.972  0.00  0.00    +0.000 C 
ATOM      9  C   UNL     1      36.549  -2.949  17.241  0.00  0.00    +0.000 C 
ATOM     10  C   UNL     1      35.409  -2.786  15.115  0.00  0.00    +0.000 C 
ENDROOT
BRANCH   1  12
ATOM     11  N   UNL     1      40.599  -1.085  14.729  0.00  0.00    +0.000 NA
ATOM     12  C   UNL     1      39.499  -0.351  14.173  0.00  0.00    +0.000 C 
ATOM     13  O   UNL     1      39.807   0.270  13.158  0.00  0.00    +0.000 OA
BRANCH  11  19
ATOM     14  C   UNL     1      42.241  -2.132  13.339  0.00  0.00    +0.000 A 
ATOM     15  C   UNL     1      43.495  -2.193  12.712  0.00  0.00    +0.000 A 
ATOM     16  C   UNL     1      44.407  -1.182  12.878  0.00  0.00    +0.000 A 
ATOM     17  C   UNL     1      44.047  -0.114  13.675  0.00  0.00    +0.000 A 
ATOM     18  C   UNL     1      42.807  -0.054  14.295  0.00  0.00    +0.000 A 
ATOM     19  C   UNL     1      41.890  -1.064  14.132  0.00  0.00    +0.000 A 
BRANCH  14  20
ATOM     20  O   UNL     1      41.323  -3.161  13.165  0.00  0.00    +0.000 OA
BRANCH  20  22
ATOM     21  C   UNL     1      40.046  -2.562  11.195  0.00  0.00    +0.000 C 
ATOM     22  C   UNL     1      40.988  -3.547  11.846  0.00  0.00    +0.000 C 
ENDBRANCH  20  22
ENDBRANCH  14  20
ENDBRANCH  11  19
ENDBRANCH   1  12
BRANCH   2  23
ATOM     23  N   UNL     1      37.869   1.961  15.767  0.00  0.00    +0.000 NA
ATOM     24  C   UNL     1      37.604   3.262  15.849  0.00  0.00    +0.000 C 
ATOM     25  O   UNL     1      36.528   3.660  15.314  0.00  0.00    +0.000 OA
BRANCH  24  26
ATOM     26  C   UNL     1      38.471   4.269  16.517  0.00  0.00    +0.000 A 
ATOM     27  C   UNL     1      39.368   4.985  15.776  0.00  0.00    +0.000 A 
ATOM     28  C   UNL     1      40.202   5.945  16.376  0.00  0.00    +0.000 A 
ATOM     29  C   UNL     1      40.104   6.162  17.740  0.00  0.00    +0.000 A 
ATOM     30  C   UNL     1      39.207   5.449  18.491  0.00  0.00    +0.000 A 
ATOM     31  C   UNL     1      38.390   4.498  17.863  0.00  0.00    +0.000 A 
ENDBRANCH  24  26
ENDBRANCH   2  23
TORSDOF 6
ENDMDL
MODEL 5
REMARK VINA RESULT:      -7.4      2.178      5.599
REMARK  Name = 
REMARK  6 active torsions:
REMARK  status: ('A' for Active; 'I' for Inactive)
REMARK    1  A    between atoms: C_2  and  O_3
REMARK    2  A    between atoms: O_3  and  C_4
REMARK    3  A    between atoms: C_9  and  N_10
REMARK    4  A    between atoms: C_11  and  C_13
REMARK    5  A    between atoms: C_14  and  N_15
REMARK    6  A    between atoms: C_16  and  C_18
REMARK                            x       y       z     vdW  Elec       q    Type
REMARK                         _______ _______ _______ _____ _____    ______ ____
ROOT
ATOM      1  C   UNL     1      37.082   0.702  15.414  0.00  0.00    +0.000 A 
ATOM      2  C   UNL     1      36.903   1.763  16.237  0.00  0.00    +0.000 A 
ATOM      3  S   UNL     1      35.614   1.170  17.293  0.00  0.00    +0.000 S 
ATOM      4  C   UNL     1      35.401  -0.369  16.622  0.00  0.00    +0.000 A 
ATOM      5  C   UNL     1      36.310  -0.389  15.618  0.00  0.00    +0.000 A 
ATOM      6  C   UNL     1      36.207  -1.756  14.934  0.00  0.00    +0.000 C 
ATOM      7  C   UNL     1      36.646  -2.706  15.935  0.00  0.00    +0.000 C 
ATOM      8  C   UNL     1      35.587  -2.831  17.172  0.00  0.00    +0.000 C 
ATOM      9  C   UNL     1      36.520  -1.955  18.200  0.00  0.00    +0.000 C 
ATOM     10  C   UNL     1      34.586  -1.595  16.795  0.00  0.00    +0.000 C 
ENDROOT
BRANCH   1  12
ATOM     11  N   UNL     1      37.618   0.281  12.952  0.00  0.00    +0.000 NA
ATOM     12  C   UNL     1      38.027   0.703  14.261  0.00  0.00    +0.000 C 
ATOM     13  O   UNL     1      39.206   1.050  14.301  0.00  0.00    +0.000 OA
BRANCH  11  19
ATOM     14  C   UNL     1      39.250  -0.862  11.627  0.00  0.00    +0.000 A 
ATOM     15  C   UNL     1      40.162  -0.946  10.564  0.00  0.00    +0.000 A 
ATOM     16  C   UNL     1      40.346   0.116   9.717  0.00  0.00    +0.000 A 
ATOM     17  C   UNL     1      39.609   1.260   9.948  0.00  0.00    +0.000 A 
ATOM     18  C   UNL     1      38.708   1.344  10.999  0.00  0.00    +0.000 A 
ATOM     19  C   UNL     1      38.519   0.282  11.851  0.00  0.00    +0.000 A 
BRANCH  14  20
ATOM     20  O   UNL     1      39.069  -1.944  12.480  0.00  0.00    +0.000 OA
BRANCH  20  22
ATOM     21  C   UNL     1      40.125  -2.364  14.619  0.00  0.00    +0.000 C 
ATOM     22  C   UNL     1      40.205  -2.495  13.117  0.00  0.00    +0.000 C 
ENDBRANCH  20  22
ENDBRANCH  14  20
ENDBRANCH  11  19
ENDBRANCH   1  12
BRANCH   2  23
ATOM     23  N   UNL     1      37.421   2.976  16.499  0.00  0.00    +0.000 NA
ATOM     24  C   UNL     1      37.956   4.137  16.130  0.00  0.00    +0.000 C 
ATOM     25  O   UNL     1      38.131   4.315  14.888  0.00  0.00    +0.000 OA
BRANCH  24  26
ATOM     26  C   UNL     1      38.356   5.226  17.059  0.00  0.00    +0.000 A 
ATOM     27  C   UNL     1      38.135   6.528  16.708  0.00  0.00    +0.000 A 
ATOM     28  C   UNL     1      38.499   7.582  17.564  0.00  0.00    +0.000 A 
ATOM     29  C   UNL     1      39.092   7.286  18.781  0.00  0.00    +0.000 A 
ATOM     30  C   UNL     1      39.317   5.984  19.142  0.00  0.00    +0.000 A 
ATOM     31  C   UNL     1      38.942   4.955  18.265  0.00  0.00    +0.000 A 
ENDBRANCH  24  26
ENDBRANCH   2  23
TORSDOF 6
ENDMDL
MODEL 6
REMARK VINA RESULT:      -7.4      3.409      5.940
REMARK  Name = 
REMARK  6 active torsions:
REMARK  status: ('A' for Active; 'I' for Inactive)
REMARK    1  A    between atoms: C_2  and  O_3
REMARK    2  A    between atoms: O_3  and  C_4
REMARK    3  A    between atoms: C_9  and  N_10
REMARK    4  A    between atoms: C_11  and  C_13
REMARK    5  A    between atoms: C_14  and  N_15
REMARK    6  A    between atoms: C_16  and  C_18
REMARK                            x       y       z     vdW  Elec       q    Type
REMARK                         _______ _______ _______ _____ _____    ______ ____
ROOT
ATOM      1  C   UNL     1      37.617   5.259  15.306  0.00  0.00    +0.000 A 
ATOM      2  C   UNL     1      38.528   6.089  15.868  0.00  0.00    +0.000 A 
ATOM      3  S   UNL     1      38.294   7.560  14.915  0.00  0.00    +0.000 S 
ATOM      4  C   UNL     1      37.064   7.021  13.884  0.00  0.00    +0.000 A 
ATOM      5  C   UNL     1      36.868   5.744  14.290  0.00  0.00    +0.000 A 
ATOM      6  C   UNL     1      35.759   5.151  13.416  0.00  0.00    +0.000 C 
ATOM      7  C   UNL     1      34.571   5.903  13.763  0.00  0.00    +0.000 C 
ATOM      8  C   UNL     1      34.653   7.453  13.255  0.00  0.00    +0.000 C 
ATOM      9  C   UNL     1      34.954   8.042  14.757  0.00  0.00    +0.000 C 
ATOM     10  C   UNL     1      36.213   7.494  12.767  0.00  0.00    +0.000 C 
ENDROOT
BRANCH   1  12
ATOM     11  N   UNL     1      36.160   3.273  15.983  0.00  0.00    +0.000 NA
ATOM     12  C   UNL     1      37.450   3.830  15.697  0.00  0.00    +0.000 C 
ATOM     13  O   UNL     1      38.358   3.009  15.813  0.00  0.00    +0.000 OA
BRANCH  11  19
ATOM     14  C   UNL     1      35.845   0.988  15.347  0.00  0.00    +0.000 A 
ATOM     15  C   UNL     1      35.680  -0.378  15.628  0.00  0.00    +0.000 A 
ATOM     16  C   UNL     1      35.669  -0.827  16.923  0.00  0.00    +0.000 A 
ATOM     17  C   UNL     1      35.825   0.104  17.930  0.00  0.00    +0.000 A 
ATOM     18  C   UNL     1      35.987   1.454  17.653  0.00  0.00    +0.000 A 
ATOM     19  C   UNL     1      35.999   1.910  16.357  0.00  0.00    +0.000 A 
BRANCH  14  20
ATOM     20  O   UNL     1      35.856   1.435  14.032  0.00  0.00    +0.000 OA
BRANCH  20  22
ATOM     21  C   UNL     1      37.328   2.032  12.203  0.00  0.00    +0.000 C 
ATOM     22  C   UNL     1      36.875   0.965  13.170  0.00  0.00    +0.000 C 
ENDBRANCH  20  22
ENDBRANCH  14  20
ENDBRANCH  11  19
ENDBRANCH   1  12
BRANCH   2  23
ATOM     23  N   UNL     1      39.410   6.132  16.883  0.00  0.00    +0.000 NA
ATOM     24  C   UNL     1      39.805   5.833  18.117  0.00  0.00    +0.000 C 
ATOM     25  O   UNL     1      39.006   5.150  18.823  0.00  0.00    +0.000 OA
BRANCH  24  26
ATOM     26  C   UNL     1      41.104   6.236  18.718  0.00  0.00    +0.000 A 
ATOM     27  C   UNL     1      42.174   6.489  17.908  0.00  0.00    +0.000 A 
ATOM     28  C   UNL     1      43.416   6.874  18.443  0.00  0.00    +0.000 A 
ATOM     29  C   UNL     1      43.546   6.996  19.817  0.00  0.00    +0.000 A 
ATOM     30  C   UNL     1      42.479   6.745  20.638  0.00  0.00    +0.000 A 
ATOM     31  C   UNL     1      41.254   6.363  20.073  0.00  0.00    +0.000 A 
ENDBRANCH  24  26
ENDBRANCH   2  23
TORSDOF 6
ENDMDL
MODEL 7
REMARK VINA RESULT:      -7.1      1.682      2.284
REMARK  Name = 
REMARK  6 active torsions:
REMARK  status: ('A' for Active; 'I' for Inactive)
REMARK    1  A    between atoms: C_2  and  O_3
REMARK    2  A    between atoms: O_3  and  C_4
REMARK    3  A    between atoms: C_9  and  N_10
REMARK    4  A    between atoms: C_11  and  C_13
REMARK    5  A    between atoms: C_14  and  N_15
REMARK    6  A    between atoms: C_16  and  C_18
REMARK                            x       y       z     vdW  Elec       q    Type
REMARK                         _______ _______ _______ _____ _____    ______ ____
ROOT
ATOM      1  C   UNL     1      39.904  -0.185  14.575  0.00  0.00    +0.000 A 
ATOM      2  C   UNL     1      40.003   1.098  14.153  0.00  0.00    +0.000 A 
ATOM      3  S   UNL     1      41.594   1.088  13.382  0.00  0.00    +0.000 S 
ATOM      4  C   UNL     1      42.013  -0.530  13.645  0.00  0.00    +0.000 A 
ATOM      5  C   UNL     1      40.938  -1.016  14.310  0.00  0.00    +0.000 A 
ATOM      6  C   UNL     1      41.209  -2.495  14.602  0.00  0.00    +0.000 C 
ATOM      7  C   UNL     1      41.238  -3.130  13.300  0.00  0.00    +0.000 C 
ATOM      8  C   UNL     1      42.540  -2.681  12.424  0.00  0.00    +0.000 C 
ATOM      9  C   UNL     1      41.675  -1.682  11.450  0.00  0.00    +0.000 C 
ATOM     10  C   UNL     1      43.113  -1.488  13.385  0.00  0.00    +0.000 C 
ENDROOT
BRANCH   1  12
ATOM     11  N   UNL     1      37.424  -0.734  14.846  0.00  0.00    +0.000 NA
ATOM     12  C   UNL     1      38.757  -0.705  15.374  0.00  0.00    +0.000 C 
ATOM     13  O   UNL     1      38.824  -1.146  16.519  0.00  0.00    +0.000 OA
BRANCH  11  19
ATOM     14  C   UNL     1      35.559  -0.313  16.285  0.00  0.00    +0.000 A 
ATOM     15  C   UNL     1      34.461  -0.716  17.060  0.00  0.00    +0.000 A 
ATOM     16  C   UNL     1      34.127  -2.041  17.160  0.00  0.00    +0.000 A 
ATOM     17  C   UNL     1      34.904  -2.955  16.477  0.00  0.00    +0.000 A 
ATOM     18  C   UNL     1      35.990  -2.557  15.711  0.00  0.00    +0.000 A 
ATOM     19  C   UNL     1      36.329  -1.229  15.607  0.00  0.00    +0.000 A 
BRANCH  14  20
ATOM     20  O   UNL     1      35.890   1.034  16.189  0.00  0.00    +0.000 OA
BRANCH  20  22
ATOM     21  C   UNL     1      34.734   3.106  15.700  0.00  0.00    +0.000 C 
ATOM     22  C   UNL     1      35.283   1.803  15.169  0.00  0.00    +0.000 C 
ENDBRANCH  20  22
ENDBRANCH  14  20
ENDBRANCH  11  19
ENDBRANCH   1  12
BRANCH   2  23
ATOM     23  N   UNL     1      39.282   2.232  14.093  0.00  0.00    +0.000 NA
ATOM     24  C   UNL     1      38.634   3.250  14.651  0.00  0.00    +0.000 C 
ATOM     25  O   UNL     1      38.595   3.277  15.917  0.00  0.00    +0.000 OA
BRANCH  24  26
ATOM     26  C   UNL     1      37.962   4.347  13.905  0.00  0.00    +0.000 A 
ATOM     27  C   UNL     1      38.187   5.645  14.264  0.00  0.00    +0.000 A 
ATOM     28  C   UNL     1      37.569   6.706  13.579  0.00  0.00    +0.000 A 
ATOM     29  C   UNL     1      36.719   6.419  12.523  0.00  0.00    +0.000 A 
ATOM     30  C   UNL     1      36.487   5.120  12.155  0.00  0.00    +0.000 A 
ATOM     31  C   UNL     1      37.119   4.085  12.859  0.00  0.00    +0.000 A 
ENDBRANCH  24  26
ENDBRANCH   2  23
TORSDOF 6
ENDMDL
MODEL 8
REMARK VINA RESULT:      -7.1      2.067      7.516
REMARK  Name = 
REMARK  6 active torsions:
REMARK  status: ('A' for Active; 'I' for Inactive)
REMARK    1  A    between atoms: C_2  and  O_3
REMARK    2  A    between atoms: O_3  and  C_4
REMARK    3  A    between atoms: C_9  and  N_10
REMARK    4  A    between atoms: C_11  and  C_13
REMARK    5  A    between atoms: C_14  and  N_15
REMARK    6  A    between atoms: C_16  and  C_18
REMARK                            x       y       z     vdW  Elec       q    Type
REMARK                         _______ _______ _______ _____ _____    ______ ____
ROOT
ATOM      1  C   UNL     1      37.997  -0.565  15.305  0.00  0.00    +0.000 A 
ATOM      2  C   UNL     1      38.686  -1.666  14.920  0.00  0.00    +0.000 A 
ATOM      3  S   UNL     1      38.113  -2.860  16.092  0.00  0.00    +0.000 S 
ATOM      4  C   UNL     1      37.047  -1.886  16.973  0.00  0.00    +0.000 A 
ATOM      5  C   UNL     1      37.156  -0.685  16.357  0.00  0.00    +0.000 A 
ATOM      6  C   UNL     1      36.219   0.288  17.079  0.00  0.00    +0.000 C 
ATOM      7  C   UNL     1      34.887  -0.215  16.815  0.00  0.00    +0.000 C 
ATOM      8  C   UNL     1      34.602  -1.633  17.572  0.00  0.00    +0.000 C 
ATOM      9  C   UNL     1      34.754  -2.520  16.199  0.00  0.00    +0.000 C 
ATOM     10  C   UNL     1      36.110  -1.953  18.119  0.00  0.00    +0.000 C 
ENDROOT
BRANCH   1  12
ATOM     11  N   UNL     1      39.315   1.597  14.958  0.00  0.00    +0.000 NA
ATOM     12  C   UNL     1      38.170   0.778  14.678  0.00  0.00    +0.000 C 
ATOM     13  O   UNL     1      37.389   1.306  13.890  0.00  0.00    +0.000 OA
BRANCH  11  19
ATOM     14  C   UNL     1      39.168   3.979  15.123  0.00  0.00    +0.000 A 
ATOM     15  C   UNL     1      39.303   5.279  14.612  0.00  0.00    +0.000 A 
ATOM     16  C   UNL     1      39.752   5.483  13.333  0.00  0.00    +0.000 A 
ATOM     17  C   UNL     1      40.064   4.373  12.575  0.00  0.00    +0.000 A 
ATOM     18  C   UNL     1      39.931   3.087  13.080  0.00  0.00    +0.000 A 
ATOM     19  C   UNL     1      39.481   2.877  14.361  0.00  0.00    +0.000 A 
BRANCH  14  20
ATOM     20  O   UNL     1      38.713   3.781  16.421  0.00  0.00    +0.000 OA
BRANCH  20  22
ATOM     21  C   UNL     1      38.949   5.042  18.477  0.00  0.00    +0.000 C 
ATOM     22  C   UNL     1      38.246   4.902  17.147  0.00  0.00    +0.000 C 
ENDBRANCH  20  22
ENDBRANCH  14  20
ENDBRANCH  11  19
ENDBRANCH   1  12
BRANCH   2  23
ATOM     23  N   UNL     1      39.531  -2.082  13.961  0.00  0.00    +0.000 NA
ATOM     24  C   UNL     1      40.730  -2.459  13.525  0.00  0.00    +0.000 C 
ATOM     25  O   UNL     1      41.670  -2.463  14.373  0.00  0.00    +0.000 OA
BRANCH  24  26
ATOM     26  C   UNL     1      41.041  -2.873  12.131  0.00  0.00    +0.000 A 
ATOM     27  C   UNL     1      40.156  -2.588  11.130  0.00  0.00    +0.000 A 
ATOM     28  C   UNL     1      40.419  -2.964   9.801  0.00  0.00    +0.000 A 
ATOM     29  C   UNL     1      41.597  -3.634   9.512  0.00  0.00    +0.000 A 
ATOM     30  C   UNL     1      42.490  -3.924  10.509  0.00  0.00    +0.000 A 
ATOM     31  C   UNL     1      42.198  -3.536  11.825  0.00  0.00    +0.000 A 
ENDBRANCH  24  26
ENDBRANCH   2  23
TORSDOF 6
ENDMDL
MODEL 9
REMARK VINA RESULT:      -7.1      2.176      5.348
REMARK  Name = 
REMARK  6 active torsions:
REMARK  status: ('A' for Active; 'I' for Inactive)
REMARK    1  A    between atoms: C_2  and  O_3
REMARK    2  A    between atoms: O_3  and  C_4
REMARK    3  A    between atoms: C_9  and  N_10
REMARK    4  A    between atoms: C_11  and  C_13
REMARK    5  A    between atoms: C_14  and  N_15
REMARK    6  A    between atoms: C_16  and  C_18
REMARK                            x       y       z     vdW  Elec       q    Type
REMARK                         _______ _______ _______ _____ _____    ______ ____
ROOT
ATOM      1  C   UNL     1      37.292  -0.062  14.958  0.00  0.00    +0.000 A 
ATOM      2  C   UNL     1      37.051   0.981  15.790  0.00  0.00    +0.000 A 
ATOM      3  S   UNL     1      35.747   0.330  16.792  0.00  0.00    +0.000 S 
ATOM      4  C   UNL     1      35.607  -1.204  16.092  0.00  0.00    +0.000 A 
ATOM      5  C   UNL     1      36.549  -1.180  15.120  0.00  0.00    +0.000 A 
ATOM      6  C   UNL     1      36.514  -2.538  14.412  0.00  0.00    +0.000 C 
ATOM      7  C   UNL     1      36.950  -3.489  15.414  0.00  0.00    +0.000 C 
ATOM      8  C   UNL     1      35.854  -3.668  16.612  0.00  0.00    +0.000 C 
ATOM      9  C   UNL     1      36.723  -2.779  17.685  0.00  0.00    +0.000 C 
ATOM     10  C   UNL     1      34.826  -2.458  16.219  0.00  0.00    +0.000 C 
ENDROOT
BRANCH   1  12
ATOM     11  N   UNL     1      37.874  -0.217  12.475  0.00  0.00    +0.000 NA
ATOM     12  C   UNL     1      38.275  -0.012  13.838  0.00  0.00    +0.000 C 
ATOM     13  O   UNL     1      39.480   0.199  13.952  0.00  0.00    +0.000 OA
BRANCH  11  19
ATOM     14  C   UNL     1      38.804   0.947  10.603  0.00  0.00    +0.000 A 
ATOM     15  C   UNL     1      39.694   1.075   9.525  0.00  0.00    +0.000 A 
ATOM     16  C   UNL     1      40.597   0.082   9.245  0.00  0.00    +0.000 A 
ATOM     17  C   UNL     1      40.598  -1.036  10.055  0.00  0.00    +0.000 A 
ATOM     18  C   UNL     1      39.718  -1.162  11.121  0.00  0.00    +0.000 A 
ATOM     19  C   UNL     1      38.811  -0.170  11.406  0.00  0.00    +0.000 A 
BRANCH  14  20
ATOM     20  O   UNL     1      37.892   1.959  10.880  0.00  0.00    +0.000 OA
BRANCH  20  22
ATOM     21  C   UNL     1      38.880   3.411  12.548  0.00  0.00    +0.000 C 
ATOM     22  C   UNL     1      38.387   3.260  11.129  0.00  0.00    +0.000 C 
ENDBRANCH  20  22
ENDBRANCH  14  20
ENDBRANCH  11  19
ENDBRANCH   1  12
BRANCH   2  23
ATOM     23  N   UNL     1      37.520   2.205  16.087  0.00  0.00    +0.000 NA
ATOM     24  C   UNL     1      37.466   3.533  16.042  0.00  0.00    +0.000 C 
ATOM     25  O   UNL     1      36.506   4.044  15.394  0.00  0.00    +0.000 OA
BRANCH  24  26
ATOM     26  C   UNL     1      38.439   4.450  16.693  0.00  0.00    +0.000 A 
ATOM     27  C   UNL     1      39.364   5.105  15.931  0.00  0.00    +0.000 A 
ATOM     28  C   UNL     1      40.298   5.979  16.514  0.00  0.00    +0.000 A 
ATOM     29  C   UNL     1      40.272   6.172  17.886  0.00  0.00    +0.000 A 
ATOM     30  C   UNL     1      39.349   5.519  18.659  0.00  0.00    +0.000 A 
ATOM     31  C   UNL     1      38.431   4.654  18.046  0.00  0.00    +0.000 A 
ENDBRANCH  24  26
ENDBRANCH   2  23
TORSDOF 6
ENDMDL
MODEL 10
REMARK VINA RESULT:      -7.1      3.034      5.298
REMARK  Name = 
REMARK  6 active torsions:
REMARK  status: ('A' for Active; 'I' for Inactive)
REMARK    1  A    between atoms: C_2  and  O_3
REMARK    2  A    between atoms: O_3  and  C_4
REMARK    3  A    between atoms: C_9  and  N_10
REMARK    4  A    between atoms: C_11  and  C_13
REMARK    5  A    between atoms: C_14  and  N_15
REMARK    6  A    between atoms: C_16  and  C_18
REMARK                            x       y       z     vdW  Elec       q    Type
REMARK                         _______ _______ _______ _____ _____    ______ ____
ROOT
ATOM      1  C   UNL     1      39.676   0.198  12.753  0.00  0.00    +0.000 A 
ATOM      2  C   UNL     1      39.527   0.597  11.467  0.00  0.00    +0.000 A 
ATOM      3  S   UNL     1      40.978  -0.086  10.722  0.00  0.00    +0.000 S 
ATOM      4  C   UNL     1      41.661  -0.824  12.083  0.00  0.00    +0.000 A 
ATOM      5  C   UNL     1      40.772  -0.532  13.062  0.00  0.00    +0.000 A 
ATOM      6  C   UNL     1      41.293  -1.161  14.358  0.00  0.00    +0.000 C 
ATOM      7  C   UNL     1      41.230  -2.590  14.127  0.00  0.00    +0.000 C 
ATOM      8  C   UNL     1      42.317  -3.082  13.013  0.00  0.00    +0.000 C 
ATOM      9  C   UNL     1      41.188  -3.268  11.836  0.00  0.00    +0.000 C 
ATOM     10  C   UNL     1      42.840  -1.626  12.485  0.00  0.00    +0.000 C 
ENDROOT
BRANCH   1  12
ATOM     11  N   UNL     1      37.350   0.235  13.808  0.00  0.00    +0.000 NA
ATOM     12  C   UNL     1      38.741   0.582  13.850  0.00  0.00    +0.000 C 
ATOM     13  O   UNL     1      39.044   1.208  14.863  0.00  0.00    +0.000 OA
BRANCH  11  19
ATOM     14  C   UNL     1      36.199  -0.338  15.827  0.00  0.00    +0.000 A 
ATOM     15  C   UNL     1      35.329  -0.061  16.893  0.00  0.00    +0.000 A 
ATOM     16  C   UNL     1      34.712   1.160  16.990  0.00  0.00    +0.000 A 
ATOM     17  C   UNL     1      34.975   2.095  16.010  0.00  0.00    +0.000 A 
ATOM     18  C   UNL     1      35.835   1.821  14.956  0.00  0.00    +0.000 A 
ATOM     19  C   UNL     1      36.456   0.600  14.853  0.00  0.00    +0.000 A 
BRANCH  14  20
ATOM     20  O   UNL     1      36.821  -1.577  15.736  0.00  0.00    +0.000 OA
BRANCH  20  22
ATOM     21  C   UNL     1      36.928  -3.392  14.135  0.00  0.00    +0.000 C 
ATOM     22  C   UNL     1      36.102  -2.649  15.158  0.00  0.00    +0.000 C 
ENDBRANCH  20  22
ENDBRANCH  14  20
ENDBRANCH  11  19
ENDBRANCH   1  12
BRANCH   2  23
ATOM     23  N   UNL     1      38.648   1.228  10.669  0.00  0.00    +0.000 NA
ATOM     24  C   UNL     1      37.675   2.107  10.446  0.00  0.00    +0.000 C 
ATOM     25  O   UNL     1      37.255   2.759  11.447  0.00  0.00    +0.000 OA
BRANCH  24  26
ATOM     26  C   UNL     1      37.054   2.376   9.122  0.00  0.00    +0.000 A 
ATOM     27  C   UNL     1      37.228   1.485   8.101  0.00  0.00    +0.000 A 
ATOM     28  C   UNL     1      36.655   1.707   6.837  0.00  0.00    +0.000 A 
ATOM     29  C   UNL     1      35.902   2.852   6.633  0.00  0.00    +0.000 A 
ATOM     30  C   UNL     1      35.722   3.752   7.650  0.00  0.00    +0.000 A 
ATOM     31  C   UNL     1      36.308   3.501   8.899  0.00  0.00    +0.000 A 
ENDBRANCH  24  26
ENDBRANCH   2  23
TORSDOF 6
ENDMDL
