MODEL 1
REMARK VINA RESULT:      -7.1      0.000      0.000
REMARK  Name = 
REMARK  4 active torsions:
REMARK  status: ('A' for Active; 'I' for Inactive)
REMARK    1  A    between atoms: C_2  and  C_3
REMARK    2  A    between atoms: C_3  and  C_16
REMARK    3  A    between atoms: C_4  and  C_5
REMARK    4  A    between atoms: C_16  and  N_18
REMARK                            x       y       z     vdW  Elec       q    Type
REMARK                         _______ _______ _______ _____ _____    ______ ____
ROOT
ATOM      1  C   UNL     1      30.850  21.258  11.606  0.00  0.00    +0.000 A 
ATOM      2  C   UNL     1      30.629  22.084  12.715  0.00  0.00    +0.000 A 
ATOM      3  C   UNL     1      29.430  22.776  12.866  0.00  0.00    +0.000 A 
ATOM      4  C   UNL     1      29.187  23.597  13.952  0.00  0.00    +0.000 A 
ATOM      5  C   UNL     1      28.009  24.293  14.126  0.00  0.00    +0.000 A 
ATOM      6  C   UNL     1      27.021  24.170  13.180  0.00  0.00    +0.000 A 
ATOM      7  C   UNL     1      27.234  23.361  12.089  0.00  0.00    +0.000 A 
ATOM      8  C   UNL     1      28.430  22.664  11.927  0.00  0.00    +0.000 A 
ATOM      9  C   UNL     1      28.648  21.856  10.841  0.00  0.00    +0.000 A 
ATOM     10  C   UNL     1      29.831  21.173  10.690  0.00  0.00    +0.000 A 
ATOM     11  C   UNL     1      30.060  20.318   9.475  0.00  0.00    +0.000 C 
ENDROOT
BRANCH   1  13
ATOM     12  C   UNL     1      33.241  21.076  11.020  0.00  0.00    +0.000 C 
ATOM     13  C   UNL     1      32.137  20.564  11.482  0.00  0.00    +0.000 C 
BRANCH  12  15
ATOM     14  C   UNL     1      33.214  22.593   9.049  0.00  0.00    +0.000 C 
ATOM     15  C   UNL     1      33.208  22.516  10.561  0.00  0.00    +0.000 C 
ENDBRANCH  12  15
BRANCH  12  16
ATOM     16  C   UNL     1      34.523  20.395  10.908  0.00  0.00    +0.000 C 
ATOM     17  O   UNL     1      34.688  19.430  10.098  0.00  0.00    +0.000 OA
BRANCH  16  18
ATOM     18  N   UNL     1      35.653  20.744  11.665  0.00  0.00    +0.000 NA
ATOM     19  C   UNL     1      36.198  20.067  12.600  0.00  0.00    +0.000 C 
ATOM     20  N   UNL     1      37.341  20.598  13.243  0.00  0.00    +0.000 NA
ATOM     21  N   UNL     1      35.672  18.823  12.982  0.00  0.00    +0.000 NA
ENDBRANCH  16  18
ENDBRANCH  12  16
ENDBRANCH   1  13
TORSDOF 4
ENDMDL
MODEL 2
REMARK VINA RESULT:      -6.8     12.748     15.016
REMARK  Name = 
REMARK  4 active torsions:
REMARK  status: ('A' for Active; 'I' for Inactive)
REMARK    1  A    between atoms: C_2  and  C_3
REMARK    2  A    between atoms: C_3  and  C_16
REMARK    3  A    between atoms: C_4  and  C_5
REMARK    4  A    between atoms: C_16  and  N_18
REMARK                            x       y       z     vdW  Elec       q    Type
REMARK                         _______ _______ _______ _____ _____    ______ ____
ROOT
ATOM      1  C   UNL     1      29.312  22.818  25.791  0.00  0.00    +0.000 A 
ATOM      2  C   UNL     1      28.279  22.573  26.704  0.00  0.00    +0.000 A 
ATOM      3  C   UNL     1      28.521  22.555  28.075  0.00  0.00    +0.000 A 
ATOM      4  C   UNL     1      27.517  22.316  28.996  0.00  0.00    +0.000 A 
ATOM      5  C   UNL     1      27.731  22.293  30.358  0.00  0.00    +0.000 A 
ATOM      6  C   UNL     1      28.999  22.520  30.835  0.00  0.00    +0.000 A 
ATOM      7  C   UNL     1      30.017  22.760  29.943  0.00  0.00    +0.000 A 
ATOM      8  C   UNL     1      29.786  22.781  28.569  0.00  0.00    +0.000 A 
ATOM      9  C   UNL     1      30.797  23.019  27.674  0.00  0.00    +0.000 A 
ATOM     10  C   UNL     1      30.560  23.036  26.321  0.00  0.00    +0.000 A 
ATOM     11  C   UNL     1      31.691  23.269  25.358  0.00  0.00    +0.000 C 
ENDROOT
BRANCH   1  13
ATOM     12  C   UNL     1      28.540  23.809  23.667  0.00  0.00    +0.000 C 
ATOM     13  C   UNL     1      29.010  22.809  24.356  0.00  0.00    +0.000 C 
BRANCH  12  15
ATOM     14  C   UNL     1      26.789  25.399  24.438  0.00  0.00    +0.000 C 
ATOM     15  C   UNL     1      28.274  25.103  24.400  0.00  0.00    +0.000 C 
ENDBRANCH  12  15
BRANCH  12  16
ATOM     16  C   UNL     1      28.252  23.808  22.240  0.00  0.00    +0.000 C 
ATOM     17  O   UNL     1      27.192  23.278  21.781  0.00  0.00    +0.000 OA
BRANCH  16  18
ATOM     18  N   UNL     1      29.099  24.384  21.279  0.00  0.00    +0.000 NA
ATOM     19  C   UNL     1      29.006  25.546  20.760  0.00  0.00    +0.000 C 
ATOM     20  N   UNL     1      29.969  25.940  19.802  0.00  0.00    +0.000 NA
ATOM     21  N   UNL     1      27.968  26.414  21.134  0.00  0.00    +0.000 NA
ENDBRANCH  16  18
ENDBRANCH  12  16
ENDBRANCH   1  13
TORSDOF 4
ENDMDL
MODEL 3
REMARK VINA RESULT:      -6.8     13.417     15.995
REMARK  Name = 
REMARK  4 active torsions:
REMARK  status: ('A' for Active; 'I' for Inactive)
REMARK    1  A    between atoms: C_2  and  C_3
REMARK    2  A    between atoms: C_3  and  C_16
REMARK    3  A    between atoms: C_4  and  C_5
REMARK    4  A    between atoms: C_16  and  N_18
REMARK                            x       y       z     vdW  Elec       q    Type
REMARK                         _______ _______ _______ _____ _____    ______ ____
ROOT
ATOM      1  C   UNL     1      25.896  23.909  26.653  0.00  0.00    +0.000 A 
ATOM      2  C   UNL     1      24.941  24.845  27.068  0.00  0.00    +0.000 A 
ATOM      3  C   UNL     1      24.864  25.251  28.397  0.00  0.00    +0.000 A 
ATOM      4  C   UNL     1      23.929  26.174  28.832  0.00  0.00    +0.000 A 
ATOM      5  C   UNL     1      23.832  26.593  30.142  0.00  0.00    +0.000 A 
ATOM      6  C   UNL     1      24.702  26.075  31.070  0.00  0.00    +0.000 A 
ATOM      7  C   UNL     1      25.641  25.155  30.668  0.00  0.00    +0.000 A 
ATOM      8  C   UNL     1      25.728  24.742  29.340  0.00  0.00    +0.000 A 
ATOM      9  C   UNL     1      26.662  23.824  28.933  0.00  0.00    +0.000 A 
ATOM     10  C   UNL     1      26.739  23.422  27.621  0.00  0.00    +0.000 A 
ATOM     11  C   UNL     1      27.751  22.391  27.205  0.00  0.00    +0.000 C 
ENDROOT
BRANCH   1  13
ATOM     12  C   UNL     1      26.446  24.179  24.262  0.00  0.00    +0.000 C 
ATOM     13  C   UNL     1      25.926  23.500  25.245  0.00  0.00    +0.000 C 
BRANCH  12  15
ATOM     14  C   UNL     1      26.164  26.649  24.173  0.00  0.00    +0.000 C 
ATOM     15  C   UNL     1      27.076  25.513  24.587  0.00  0.00    +0.000 C 
ENDBRANCH  12  15
BRANCH  12  16
ATOM     16  C   UNL     1      26.490  23.770  22.866  0.00  0.00    +0.000 C 
ATOM     17  O   UNL     1      25.615  22.987  22.380  0.00  0.00    +0.000 OA
BRANCH  16  18
ATOM     18  N   UNL     1      27.476  24.201  21.964  0.00  0.00    +0.000 NA
ATOM     19  C   UNL     1      28.723  23.930  21.991  0.00  0.00    +0.000 C 
ATOM     20  N   UNL     1      29.556  24.466  20.980  0.00  0.00    +0.000 NA
ATOM     21  N   UNL     1      29.256  23.117  23.004  0.00  0.00    +0.000 NA
ENDBRANCH  16  18
ENDBRANCH  12  16
ENDBRANCH   1  13
TORSDOF 4
ENDMDL
MODEL 4
REMARK VINA RESULT:      -6.7     27.811     29.792
REMARK  Name = 
REMARK  4 active torsions:
REMARK  status: ('A' for Active; 'I' for Inactive)
REMARK    1  A    between atoms: C_2  and  C_3
REMARK    2  A    between atoms: C_3  and  C_16
REMARK    3  A    between atoms: C_4  and  C_5
REMARK    4  A    between atoms: C_16  and  N_18
REMARK                            x       y       z     vdW  Elec       q    Type
REMARK                         _______ _______ _______ _____ _____    ______ ____
ROOT
ATOM      1  C   UNL     1      15.762  11.469  35.003  0.00  0.00    +0.000 A 
ATOM      2  C   UNL     1      16.039  11.458  33.630  0.00  0.00    +0.000 A 
ATOM      3  C   UNL     1      15.342  12.280  32.750  0.00  0.00    +0.000 A 
ATOM      4  C   UNL     1      15.598  12.288  31.390  0.00  0.00    +0.000 A 
ATOM      5  C   UNL     1      14.922  13.092  30.498  0.00  0.00    +0.000 A 
ATOM      6  C   UNL     1      13.944  13.933  30.971  0.00  0.00    +0.000 A 
ATOM      7  C   UNL     1      13.667  13.946  32.318  0.00  0.00    +0.000 A 
ATOM      8  C   UNL     1      14.359  13.128  33.208  0.00  0.00    +0.000 A 
ATOM      9  C   UNL     1      14.087  13.137  34.552  0.00  0.00    +0.000 A 
ATOM     10  C   UNL     1      14.775  12.326  35.422  0.00  0.00    +0.000 A 
ATOM     11  C   UNL     1      14.437  12.330  36.887  0.00  0.00    +0.000 C 
ENDROOT
BRANCH   1  13
ATOM     12  C   UNL     1      17.594  10.875  36.546  0.00  0.00    +0.000 C 
ATOM     13  C   UNL     1      16.512  10.571  35.887  0.00  0.00    +0.000 C 
BRANCH  12  15
ATOM     14  C   UNL     1      17.988  13.052  37.682  0.00  0.00    +0.000 C 
ATOM     15  C   UNL     1      18.140  12.275  36.392  0.00  0.00    +0.000 C 
ENDBRANCH  12  15
BRANCH  12  16
ATOM     16  C   UNL     1      18.334   9.991  37.435  0.00  0.00    +0.000 C 
ATOM     17  O   UNL     1      17.775   9.447  38.439  0.00  0.00    +0.000 OA
BRANCH  16  18
ATOM     18  N   UNL     1      19.690   9.673  37.258  0.00  0.00    +0.000 NA
ATOM     19  C   UNL     1      20.682  10.104  37.936  0.00  0.00    +0.000 C 
ATOM     20  N   UNL     1      21.980   9.657  37.596  0.00  0.00    +0.000 NA
ATOM     21  N   UNL     1      20.486  11.003  38.996  0.00  0.00    +0.000 NA
ENDBRANCH  16  18
ENDBRANCH  12  16
ENDBRANCH   1  13
TORSDOF 4
ENDMDL
MODEL 5
REMARK VINA RESULT:      -6.6     29.697     31.560
REMARK  Name = 
REMARK  4 active torsions:
REMARK  status: ('A' for Active; 'I' for Inactive)
REMARK    1  A    between atoms: C_2  and  C_3
REMARK    2  A    between atoms: C_3  and  C_16
REMARK    3  A    between atoms: C_4  and  C_5
REMARK    4  A    between atoms: C_16  and  N_18
REMARK                            x       y       z     vdW  Elec       q    Type
REMARK                         _______ _______ _______ _____ _____    ______ ____
ROOT
ATOM      1  C   UNL     1      16.431  10.561  36.431  0.00  0.00    +0.000 A 
ATOM      2  C   UNL     1      15.536  11.639  36.422  0.00  0.00    +0.000 A 
ATOM      3  C   UNL     1      15.106  12.205  35.226  0.00  0.00    +0.000 A 
ATOM      4  C   UNL     1      14.222  13.269  35.191  0.00  0.00    +0.000 A 
ATOM      5  C   UNL     1      13.780  13.847  34.020  0.00  0.00    +0.000 A 
ATOM      6  C   UNL     1      14.232  13.349  32.823  0.00  0.00    +0.000 A 
ATOM      7  C   UNL     1      15.111  12.292  32.826  0.00  0.00    +0.000 A 
ATOM      8  C   UNL     1      15.549  11.717  34.017  0.00  0.00    +0.000 A 
ATOM      9  C   UNL     1      16.426  10.664  34.026  0.00  0.00    +0.000 A 
ATOM     10  C   UNL     1      16.853  10.104  35.207  0.00  0.00    +0.000 A 
ATOM     11  C   UNL     1      17.839   8.970  35.192  0.00  0.00    +0.000 C 
ENDROOT
BRANCH   1  13
ATOM     12  C   UNL     1      17.950  10.343  38.364  0.00  0.00    +0.000 C 
ATOM     13  C   UNL     1      16.869  10.011  37.718  0.00  0.00    +0.000 C 
BRANCH  12  15
ATOM     14  C   UNL     1      20.206  10.801  37.421  0.00  0.00    +0.000 C 
ATOM     15  C   UNL     1      18.847  11.387  37.740  0.00  0.00    +0.000 C 
ENDBRANCH  12  15
BRANCH  12  16
ATOM     16  C   UNL     1      18.382   9.809  39.647  0.00  0.00    +0.000 C 
ATOM     17  O   UNL     1      19.094  10.499  40.442  0.00  0.00    +0.000 OA
BRANCH  16  18
ATOM     18  N   UNL     1      18.050   8.523  40.102  0.00  0.00    +0.000 NA
ATOM     19  C   UNL     1      17.054   8.190  40.828  0.00  0.00    +0.000 C 
ATOM     20  N   UNL     1      16.896   6.828  41.178  0.00  0.00    +0.000 NA
ATOM     21  N   UNL     1      16.138   9.157  41.270  0.00  0.00    +0.000 NA
ENDBRANCH  16  18
ENDBRANCH  12  16
ENDBRANCH   1  13
TORSDOF 4
ENDMDL
MODEL 6
REMARK VINA RESULT:      -6.5     13.009     15.286
REMARK  Name = 
REMARK  4 active torsions:
REMARK  status: ('A' for Active; 'I' for Inactive)
REMARK    1  A    between atoms: C_2  and  C_3
REMARK    2  A    between atoms: C_3  and  C_16
REMARK    3  A    between atoms: C_4  and  C_5
REMARK    4  A    between atoms: C_16  and  N_18
REMARK                            x       y       z     vdW  Elec       q    Type
REMARK                         _______ _______ _______ _____ _____    ______ ____
ROOT
ATOM      1  C   UNL     1      28.921  22.730  26.280  0.00  0.00    +0.000 A 
ATOM      2  C   UNL     1      30.210  22.310  26.631  0.00  0.00    +0.000 A 
ATOM      3  C   UNL     1      30.628  22.311  27.959  0.00  0.00    +0.000 A 
ATOM      4  C   UNL     1      31.895  21.900  28.331  0.00  0.00    +0.000 A 
ATOM      5  C   UNL     1      32.334  21.890  29.639  0.00  0.00    +0.000 A 
ATOM      6  C   UNL     1      31.478  22.307  30.629  0.00  0.00    +0.000 A 
ATOM      7  C   UNL     1      30.211  22.722  30.288  0.00  0.00    +0.000 A 
ATOM      8  C   UNL     1      29.782  22.725  28.963  0.00  0.00    +0.000 A 
ATOM      9  C   UNL     1      28.521  23.138  28.618  0.00  0.00    +0.000 A 
ATOM     10  C   UNL     1      28.107  23.138  27.308  0.00  0.00    +0.000 A 
ATOM     11  C   UNL     1      26.730  23.625  26.950  0.00  0.00    +0.000 C 
ENDROOT
BRANCH   1  13
ATOM     12  C   UNL     1      28.811  23.656  23.995  0.00  0.00    +0.000 C 
ATOM     13  C   UNL     1      28.533  22.728  24.865  0.00  0.00    +0.000 C 
BRANCH  12  15
ATOM     14  C   UNL     1      28.678  26.009  24.791  0.00  0.00    +0.000 C 
ATOM     15  C   UNL     1      29.601  24.852  24.472  0.00  0.00    +0.000 C 
ENDBRANCH  12  15
BRANCH  12  16
ATOM     16  C   UNL     1      28.440  23.651  22.587  0.00  0.00    +0.000 C 
ATOM     17  O   UNL     1      27.364  23.103  22.190  0.00  0.00    +0.000 OA
BRANCH  16  18
ATOM     18  N   UNL     1      29.220  24.240  21.579  0.00  0.00    +0.000 NA
ATOM     19  C   UNL     1      28.987  25.330  20.957  0.00  0.00    +0.000 C 
ATOM     20  N   UNL     1      29.906  25.756  19.968  0.00  0.00    +0.000 NA
ATOM     21  N   UNL     1      27.843  26.089  21.248  0.00  0.00    +0.000 NA
ENDBRANCH  16  18
ENDBRANCH  12  16
ENDBRANCH   1  13
TORSDOF 4
ENDMDL
MODEL 7
REMARK VINA RESULT:      -6.5     14.132     16.407
REMARK  Name = 
REMARK  4 active torsions:
REMARK  status: ('A' for Active; 'I' for Inactive)
REMARK    1  A    between atoms: C_2  and  C_3
REMARK    2  A    between atoms: C_3  and  C_16
REMARK    3  A    between atoms: C_4  and  C_5
REMARK    4  A    between atoms: C_16  and  N_18
REMARK                            x       y       z     vdW  Elec       q    Type
REMARK                         _______ _______ _______ _____ _____    ______ ____
ROOT
ATOM      1  C   UNL     1      28.923  22.814  26.194  0.00  0.00    +0.000 A 
ATOM      2  C   UNL     1      27.777  23.040  25.421  0.00  0.00    +0.000 A 
ATOM      3  C   UNL     1      27.877  23.428  24.087  0.00  0.00    +0.000 A 
ATOM      4  C   UNL     1      26.761  23.657  23.303  0.00  0.00    +0.000 A 
ATOM      5  C   UNL     1      26.832  24.042  21.980  0.00  0.00    +0.000 A 
ATOM      6  C   UNL     1      28.067  24.208  21.403  0.00  0.00    +0.000 A 
ATOM      7  C   UNL     1      29.195  23.988  22.159  0.00  0.00    +0.000 A 
ATOM      8  C   UNL     1      29.107  23.599  23.494  0.00  0.00    +0.000 A 
ATOM      9  C   UNL     1      30.228  23.379  24.253  0.00  0.00    +0.000 A 
ATOM     10  C   UNL     1      30.131  22.996  25.569  0.00  0.00    +0.000 A 
ATOM     11  C   UNL     1      31.374  22.792  26.390  0.00  0.00    +0.000 C 
ENDROOT
BRANCH   1  13
ATOM     12  C   UNL     1      28.805  23.225  28.625  0.00  0.00    +0.000 C 
ATOM     13  C   UNL     1      28.766  22.423  27.599  0.00  0.00    +0.000 C 
BRANCH  12  15
ATOM     14  C   UNL     1      27.725  25.450  28.358  0.00  0.00    +0.000 C 
ATOM     15  C   UNL     1      29.037  24.694  28.358  0.00  0.00    +0.000 C 
ENDBRANCH  12  15
BRANCH  12  16
ATOM     16  C   UNL     1      28.636  22.844  30.020  0.00  0.00    +0.000 C 
ATOM     17  O   UNL     1      29.365  23.344  30.933  0.00  0.00    +0.000 OA
BRANCH  16  18
ATOM     18  N   UNL     1      27.676  21.918  30.458  0.00  0.00    +0.000 NA
ATOM     19  C   UNL     1      26.434  22.130  30.665  0.00  0.00    +0.000 C 
ATOM     20  N   UNL     1      25.628  21.054  31.108  0.00  0.00    +0.000 NA
ATOM     21  N   UNL     1      25.882  23.404  30.459  0.00  0.00    +0.000 NA
ENDBRANCH  16  18
ENDBRANCH  12  16
ENDBRANCH   1  13
TORSDOF 4
ENDMDL
MODEL 8
REMARK VINA RESULT:      -6.5     14.059     16.284
REMARK  Name = 
REMARK  4 active torsions:
REMARK  status: ('A' for Active; 'I' for Inactive)
REMARK    1  A    between atoms: C_2  and  C_3
REMARK    2  A    between atoms: C_3  and  C_16
REMARK    3  A    between atoms: C_4  and  C_5
REMARK    4  A    between atoms: C_16  and  N_18
REMARK                            x       y       z     vdW  Elec       q    Type
REMARK                         _______ _______ _______ _____ _____    ______ ____
ROOT
ATOM      1  C   UNL     1      29.776  22.504  27.184  0.00  0.00    +0.000 A 
ATOM      2  C   UNL     1      31.058  22.060  27.529  0.00  0.00    +0.000 A 
ATOM      3  C   UNL     1      31.480  22.044  28.856  0.00  0.00    +0.000 A 
ATOM      4  C   UNL     1      32.741  21.609  29.222  0.00  0.00    +0.000 A 
ATOM      5  C   UNL     1      33.183  21.583  30.528  0.00  0.00    +0.000 A 
ATOM      6  C   UNL     1      32.336  22.006  31.523  0.00  0.00    +0.000 A 
ATOM      7  C   UNL     1      31.076  22.444  31.189  0.00  0.00    +0.000 A 
ATOM      8  C   UNL     1      30.643  22.464  29.865  0.00  0.00    +0.000 A 
ATOM      9  C   UNL     1      29.389  22.901  29.526  0.00  0.00    +0.000 A 
ATOM     10  C   UNL     1      28.971  22.918  28.217  0.00  0.00    +0.000 A 
ATOM     11  C   UNL     1      27.602  23.431  27.867  0.00  0.00    +0.000 C 
ENDROOT
BRANCH   1  13
ATOM     12  C   UNL     1      29.599  23.489  24.928  0.00  0.00    +0.000 C 
ATOM     13  C   UNL     1      29.385  22.519  25.771  0.00  0.00    +0.000 C 
BRANCH  12  15
ATOM     14  C   UNL     1      29.335  25.864  25.620  0.00  0.00    +0.000 C 
ATOM     15  C   UNL     1      30.310  24.719  25.441  0.00  0.00    +0.000 C 
ENDBRANCH  12  15
BRANCH  12  16
ATOM     16  C   UNL     1      29.224  23.502  23.521  0.00  0.00    +0.000 C 
ATOM     17  O   UNL     1      30.019  23.941  22.632  0.00  0.00    +0.000 OA
BRANCH  16  18
ATOM     18  N   UNL     1      27.988  23.037  23.045  0.00  0.00    +0.000 NA
ATOM     19  C   UNL     1      26.930  23.721  22.840  0.00  0.00    +0.000 C 
ATOM     20  N   UNL     1      25.779  23.058  22.351  0.00  0.00    +0.000 NA
ATOM     21  N   UNL     1      26.911  25.101  23.095  0.00  0.00    +0.000 NA
ENDBRANCH  16  18
ENDBRANCH  12  16
ENDBRANCH   1  13
TORSDOF 4
ENDMDL
MODEL 9
REMARK VINA RESULT:      -6.3     12.363     14.661
REMARK  Name = 
REMARK  4 active torsions:
REMARK  status: ('A' for Active; 'I' for Inactive)
REMARK    1  A    between atoms: C_2  and  C_3
REMARK    2  A    between atoms: C_3  and  C_16
REMARK    3  A    between atoms: C_4  and  C_5
REMARK    4  A    between atoms: C_16  and  N_18
REMARK                            x       y       z     vdW  Elec       q    Type
REMARK                         _______ _______ _______ _____ _____    ______ ____
ROOT
ATOM      1  C   UNL     1      28.433  23.254  25.115  0.00  0.00    +0.000 A 
ATOM      2  C   UNL     1      27.309  23.589  25.880  0.00  0.00    +0.000 A 
ATOM      3  C   UNL     1      27.252  23.295  27.240  0.00  0.00    +0.000 A 
ATOM      4  C   UNL     1      26.153  23.616  28.016  0.00  0.00    +0.000 A 
ATOM      5  C   UNL     1      26.071  23.336  29.364  0.00  0.00    +0.000 A 
ATOM      6  C   UNL     1      27.128  22.707  29.976  0.00  0.00    +0.000 A 
ATOM      7  C   UNL     1      28.234  22.375  29.229  0.00  0.00    +0.000 A 
ATOM      8  C   UNL     1      28.302  22.665  27.868  0.00  0.00    +0.000 A 
ATOM      9  C   UNL     1      29.402  22.336  27.118  0.00  0.00    +0.000 A 
ATOM     10  C   UNL     1      29.460  22.626  25.776  0.00  0.00    +0.000 A 
ATOM     11  C   UNL     1      30.663  22.227  24.967  0.00  0.00    +0.000 C 
ENDROOT
BRANCH   1  13
ATOM     12  C   UNL     1      28.757  24.716  23.154  0.00  0.00    +0.000 C 
ATOM     13  C   UNL     1      28.438  23.570  23.683  0.00  0.00    +0.000 C 
BRANCH  12  15
ATOM     14  C   UNL     1      30.662  25.925  24.200  0.00  0.00    +0.000 C 
ATOM     15  C   UNL     1      29.155  25.835  24.089  0.00  0.00    +0.000 C 
ENDBRANCH  12  15
BRANCH  12  16
ATOM     16  C   UNL     1      28.777  25.030  21.732  0.00  0.00    +0.000 C 
ATOM     17  O   UNL     1      29.618  24.488  20.949  0.00  0.00    +0.000 OA
BRANCH  16  18
ATOM     18  N   UNL     1      27.887  25.931  21.126  0.00  0.00    +0.000 NA
ATOM     19  C   UNL     1      28.097  27.158  20.847  0.00  0.00    +0.000 C 
ATOM     20  N   UNL     1      27.062  27.900  20.229  0.00  0.00    +0.000 NA
ATOM     21  N   UNL     1      29.330  27.758  21.147  0.00  0.00    +0.000 NA
ENDBRANCH  16  18
ENDBRANCH  12  16
ENDBRANCH   1  13
TORSDOF 4
ENDMDL
MODEL 10
REMARK VINA RESULT:      -6.3     29.247     31.051
REMARK  Name = 
REMARK  4 active torsions:
REMARK  status: ('A' for Active; 'I' for Inactive)
REMARK    1  A    between atoms: C_2  and  C_3
REMARK    2  A    between atoms: C_3  and  C_16
REMARK    3  A    between atoms: C_4  and  C_5
REMARK    4  A    between atoms: C_16  and  N_18
REMARK                            x       y       z     vdW  Elec       q    Type
REMARK                         _______ _______ _______ _____ _____    ______ ____
ROOT
ATOM      1  C   UNL     1      17.980  10.212  37.895  0.00  0.00    +0.000 A 
ATOM      2  C   UNL     1      17.545  10.953  36.789  0.00  0.00    +0.000 A 
ATOM      3  C   UNL     1      16.238  11.427  36.711  0.00  0.00    +0.000 A 
ATOM      4  C   UNL     1      15.786  12.161  35.630  0.00  0.00    +0.000 A 
ATOM      5  C   UNL     1      14.497  12.641  35.528  0.00  0.00    +0.000 A 
ATOM      6  C   UNL     1      13.611  12.385  36.546  0.00  0.00    +0.000 A 
ATOM      7  C   UNL     1      14.033  11.656  37.633  0.00  0.00    +0.000 A 
ATOM      8  C   UNL     1      15.339  11.178  37.722  0.00  0.00    +0.000 A 
ATOM      9  C   UNL     1      15.764  10.451  38.804  0.00  0.00    +0.000 A 
ATOM     10  C   UNL     1      17.054   9.983  38.882  0.00  0.00    +0.000 A 
ATOM     11  C   UNL     1      17.489   9.160  40.064  0.00  0.00    +0.000 C 
ENDROOT
BRANCH   1  13
ATOM     12  C   UNL     1      20.375  10.318  38.480  0.00  0.00    +0.000 C 
ATOM     13  C   UNL     1      19.361   9.720  37.923  0.00  0.00    +0.000 C 
BRANCH  12  15
ATOM     14  C   UNL     1      20.590  12.789  38.290  0.00  0.00    +0.000 C 
ATOM     15  C   UNL     1      20.121  11.643  39.161  0.00  0.00    +0.000 C 
ENDBRANCH  12  15
BRANCH  12  16
ATOM     16  C   UNL     1      21.745   9.827  38.522  0.00  0.00    +0.000 C 
ATOM     17  O   UNL     1      22.336   9.613  39.627  0.00  0.00    +0.000 OA
BRANCH  16  18
ATOM     18  N   UNL     1      22.504   9.553  37.373  0.00  0.00    +0.000 NA
ATOM     19  C   UNL     1      23.432  10.269  36.868  0.00  0.00    +0.000 C 
ATOM     20  N   UNL     1      24.081   9.810  35.697  0.00  0.00    +0.000 NA
ATOM     21  N   UNL     1      23.799  11.486  37.463  0.00  0.00    +0.000 NA
ENDBRANCH  16  18
ENDBRANCH  12  16
ENDBRANCH   1  13
TORSDOF 4
ENDMDL
