MODEL 1
REMARK VINA RESULT:      -8.4      0.000      0.000
REMARK  Name = 
REMARK  6 active torsions:
REMARK  status: ('A' for Active; 'I' for Inactive)
REMARK    1  A    between atoms: C_10  and  C_11
REMARK    2  A    between atoms: C_18  and  C_19
REMARK    3  A    between atoms: C_22  and  O_23
REMARK    4  A    between atoms: O_23  and  C_24
REMARK    5  A    between atoms: C_24  and  C_25
REMARK    6  A    between atoms: C_25  and  N_26
REMARK                            x       y       z     vdW  Elec       q    Type
REMARK                         _______ _______ _______ _____ _____    ______ ____
ROOT
ATOM      1  O   UNL     1      46.838   6.002  20.705  0.00  0.00    +0.000 OA
ATOM      2  C   UNL     1      45.471   6.266  20.624  0.00  0.00    +0.000 A 
ATOM      3  C   UNL     1      44.561   5.545  21.365  0.00  0.00    +0.000 A 
ATOM      4  C   UNL     1      43.209   5.797  21.292  0.00  0.00    +0.000 A 
ATOM      5  C   UNL     1      42.715   6.787  20.468  0.00  0.00    +0.000 A 
ATOM      6  C   UNL     1      43.587   7.503  19.735  0.00  0.00    +0.000 A 
ATOM      7  C   UNL     1      44.980   7.255  19.800  0.00  0.00    +0.000 A 
ATOM      8  O   UNL     1      43.184   8.539  18.860  0.00  0.00    +0.000 OA
ATOM      9  C   UNL     1      41.767   8.711  18.653  0.00  0.00    +0.000 C 
ATOM     10  C   UNL     1      41.205   8.687  20.166  0.00  0.00    +0.000 C 
ATOM     11  C   UNL     1      41.220   7.057  20.397  0.00  0.00    +0.000 C 
ENDROOT
BRANCH  10  12
ATOM     12  C   UNL     1      39.669   8.847  19.788  0.00  0.00    +0.000 A 
ATOM     13  C   UNL     1      39.419   9.297  18.491  0.00  0.00    +0.000 A 
ATOM     14  C   UNL     1      38.107   9.453  18.094  0.00  0.00    +0.000 A 
ATOM     15  C   UNL     1      37.083   9.167  18.971  0.00  0.00    +0.000 A 
ATOM     16  F   UNL     1      35.774   9.305  18.629  0.00  0.00    +0.000 F 
ATOM     17  C   UNL     1      37.381   8.722  20.252  0.00  0.00    +0.000 A 
ATOM     18  C   UNL     1      38.694   8.565  20.651  0.00  0.00    +0.000 A 
ENDBRANCH  10  12
BRANCH  11  19
ATOM     19  C   UNL     1      40.809   6.536  19.028  0.00  0.00    +0.000 A 
ATOM     20  C   UNL     1      39.569   6.007  18.873  0.00  0.00    +0.000 A 
ATOM     21  C   UNL     1      39.116   5.507  17.641  0.00  0.00    +0.000 A 
ATOM     22  C   UNL     1      39.974   5.566  16.574  0.00  0.00    +0.000 A 
ATOM     23  C   UNL     1      41.240   6.094  16.687  0.00  0.00    +0.000 A 
ATOM     24  C   UNL     1      41.624   6.572  17.935  0.00  0.00    +0.000 A 
BRANCH  22  25
ATOM     25  O   UNL     1      39.553   5.076  15.333  0.00  0.00    +0.000 OA
BRANCH  25  26
ATOM     26  C   UNL     1      38.317   4.409  15.189  0.00  0.00    +0.000 C 
BRANCH  26  27
ATOM     27  C   UNL     1      38.519   2.928  15.067  0.00  0.00    +0.000 C 
BRANCH  27  28
ATOM     28  N   UNL     1      37.609   2.187  15.937  0.00  0.00    +0.000 NA
ATOM     29  C   UNL     1      37.103   1.008  15.318  0.00  0.00    +0.000 C 
ATOM     30  C   UNL     1      36.055   1.293  14.263  0.00  0.00    +0.000 C 
ATOM     31  C   UNL     1      35.077   2.354  14.733  0.00  0.00    +0.000 C 
ATOM     32  C   UNL     1      35.208   2.564  16.247  0.00  0.00    +0.000 C 
ATOM     33  C   UNL     1      36.620   3.026  16.546  0.00  0.00    +0.000 C 
ENDBRANCH  27  28
ENDBRANCH  26  27
ENDBRANCH  25  26
ENDBRANCH  22  25
ENDBRANCH  11  19
TORSDOF 6
ENDMDL
MODEL 2
REMARK VINA RESULT:      -8.0      4.526      9.943
REMARK  Name = 
REMARK  6 active torsions:
REMARK  status: ('A' for Active; 'I' for Inactive)
REMARK    1  A    between atoms: C_10  and  C_11
REMARK    2  A    between atoms: C_18  and  C_19
REMARK    3  A    between atoms: C_22  and  O_23
REMARK    4  A    between atoms: O_23  and  C_24
REMARK    5  A    between atoms: C_24  and  C_25
REMARK    6  A    between atoms: C_25  and  N_26
REMARK                            x       y       z     vdW  Elec       q    Type
REMARK                         _______ _______ _______ _____ _____    ______ ____
ROOT
ATOM      1  O   UNL     1      43.392  -2.585  11.329  0.00  0.00    +0.000 OA
ATOM      2  C   UNL     1      42.129  -2.525  11.918  0.00  0.00    +0.000 A 
ATOM      3  C   UNL     1      40.986  -2.704  11.170  0.00  0.00    +0.000 A 
ATOM      4  C   UNL     1      39.733  -2.646  11.741  0.00  0.00    +0.000 A 
ATOM      5  C   UNL     1      39.579  -2.406  13.091  0.00  0.00    +0.000 A 
ATOM      6  C   UNL     1      40.683  -2.228  13.839  0.00  0.00    +0.000 A 
ATOM      7  C   UNL     1      41.977  -2.284  13.266  0.00  0.00    +0.000 A 
ATOM      8  O   UNL     1      40.634  -1.977  15.230  0.00  0.00    +0.000 OA
ATOM      9  C   UNL     1      39.334  -1.758  15.814  0.00  0.00    +0.000 C 
ATOM     10  C   UNL     1      38.484  -2.985  15.200  0.00  0.00    +0.000 C 
ATOM     11  C   UNL     1      38.191  -2.347  13.710  0.00  0.00    +0.000 C 
ENDROOT
BRANCH  10  12
ATOM     12  C   UNL     1      37.100  -2.604  15.883  0.00  0.00    +0.000 A 
ATOM     13  C   UNL     1      35.975  -3.220  15.334  0.00  0.00    +0.000 A 
ATOM     14  C   UNL     1      34.741  -2.938  15.884  0.00  0.00    +0.000 A 
ATOM     15  C   UNL     1      34.643  -2.068  16.947  0.00  0.00    +0.000 A 
ATOM     16  F   UNL     1      33.451  -1.757  17.524  0.00  0.00    +0.000 F 
ATOM     17  C   UNL     1      35.790  -1.479  17.460  0.00  0.00    +0.000 A 
ATOM     18  C   UNL     1      37.027  -1.759  16.912  0.00  0.00    +0.000 A 
ENDBRANCH  10  12
BRANCH  11  19
ATOM     19  C   UNL     1      37.985  -0.874  14.028  0.00  0.00    +0.000 A 
ATOM     20  C   UNL     1      36.724  -0.372  14.020  0.00  0.00    +0.000 A 
ATOM     21  C   UNL     1      36.452   0.977  14.305  0.00  0.00    +0.000 A 
ATOM     22  C   UNL     1      37.514   1.794  14.597  0.00  0.00    +0.000 A 
ATOM     23  C   UNL     1      38.807   1.326  14.616  0.00  0.00    +0.000 A 
ATOM     24  C   UNL     1      39.005  -0.019  14.325  0.00  0.00    +0.000 A 
BRANCH  22  25
ATOM     25  O   UNL     1      37.277   3.142  14.884  0.00  0.00    +0.000 OA
BRANCH  25  26
ATOM     26  C   UNL     1      37.419   3.649  16.195  0.00  0.00    +0.000 C 
BRANCH  26  27
ATOM     27  C   UNL     1      38.627   4.531  16.299  0.00  0.00    +0.000 C 
BRANCH  27  28
ATOM     28  N   UNL     1      38.456   5.559  17.324  0.00  0.00    +0.000 NA
ATOM     29  C   UNL     1      38.924   6.835  16.897  0.00  0.00    +0.000 C 
ATOM     30  C   UNL     1      40.435   6.938  16.874  0.00  0.00    +0.000 C 
ATOM     31  C   UNL     1      41.047   6.306  18.111  0.00  0.00    +0.000 C 
ATOM     32  C   UNL     1      39.970   6.077  19.179  0.00  0.00    +0.000 C 
ATOM     33  C   UNL     1      38.924   5.140  18.612  0.00  0.00    +0.000 C 
ENDBRANCH  27  28
ENDBRANCH  26  27
ENDBRANCH  25  26
ENDBRANCH  22  25
ENDBRANCH  11  19
TORSDOF 6
ENDMDL
MODEL 3
REMARK VINA RESULT:      -7.8      2.115      2.631
REMARK  Name = 
REMARK  6 active torsions:
REMARK  status: ('A' for Active; 'I' for Inactive)
REMARK    1  A    between atoms: C_10  and  C_11
REMARK    2  A    between atoms: C_18  and  C_19
REMARK    3  A    between atoms: C_22  and  O_23
REMARK    4  A    between atoms: O_23  and  C_24
REMARK    5  A    between atoms: C_24  and  C_25
REMARK    6  A    between atoms: C_25  and  N_26
REMARK                            x       y       z     vdW  Elec       q    Type
REMARK                         _______ _______ _______ _____ _____    ______ ____
ROOT
ATOM      1  O   UNL     1      46.396   5.958  20.338  0.00  0.00    +0.000 OA
ATOM      2  C   UNL     1      45.033   6.251  20.287  0.00  0.00    +0.000 A 
ATOM      3  C   UNL     1      44.150   5.688  21.182  0.00  0.00    +0.000 A 
ATOM      4  C   UNL     1      42.802   5.970  21.141  0.00  0.00    +0.000 A 
ATOM      5  C   UNL     1      42.286   6.831  20.195  0.00  0.00    +0.000 A 
ATOM      6  C   UNL     1      43.131   7.392  19.312  0.00  0.00    +0.000 A 
ATOM      7  C   UNL     1      44.519   7.112  19.341  0.00  0.00    +0.000 A 
ATOM      8  O   UNL     1      42.703   8.288  18.304  0.00  0.00    +0.000 OA
ATOM      9  C   UNL     1      41.282   8.471  18.147  0.00  0.00    +0.000 C 
ATOM     10  C   UNL     1      40.807   8.708  19.671  0.00  0.00    +0.000 C 
ATOM     11  C   UNL     1      40.796   7.137  20.161  0.00  0.00    +0.000 C 
ENDROOT
BRANCH  10  12
ATOM     12  C   UNL     1      39.257   8.857  19.355  0.00  0.00    +0.000 A 
ATOM     13  C   UNL     1      38.950   9.217  18.042  0.00  0.00    +0.000 A 
ATOM     14  C   UNL     1      37.621   9.358  17.696  0.00  0.00    +0.000 A 
ATOM     15  C   UNL     1      36.638   9.145  18.637  0.00  0.00    +0.000 A 
ATOM     16  F   UNL     1      35.315   9.271  18.348  0.00  0.00    +0.000 F 
ATOM     17  C   UNL     1      36.992   8.788  19.931  0.00  0.00    +0.000 A 
ATOM     18  C   UNL     1      38.321   8.646  20.280  0.00  0.00    +0.000 A 
ENDBRANCH  10  12
BRANCH  11  19
ATOM     19  C   UNL     1      40.295   6.418  18.919  0.00  0.00    +0.000 A 
ATOM     20  C   UNL     1      39.120   5.740  18.982  0.00  0.00    +0.000 A 
ATOM     21  C   UNL     1      38.591   5.053  17.877  0.00  0.00    +0.000 A 
ATOM     22  C   UNL     1      39.303   5.082  16.706  0.00  0.00    +0.000 A 
ATOM     23  C   UNL     1      40.497   5.756  16.598  0.00  0.00    +0.000 A 
ATOM     24  C   UNL     1      40.964   6.415  17.730  0.00  0.00    +0.000 A 
BRANCH  22  25
ATOM     25  O   UNL     1      38.803   4.407  15.587  0.00  0.00    +0.000 OA
BRANCH  25  26
ATOM     26  C   UNL     1      38.357   5.109  14.446  0.00  0.00    +0.000 C 
BRANCH  26  27
ATOM     27  C   UNL     1      37.082   5.844  14.734  0.00  0.00    +0.000 C 
BRANCH  27  28
ATOM     28  N   UNL     1      36.631   6.612  13.576  0.00  0.00    +0.000 NA
ATOM     29  C   UNL     1      36.367   7.975  13.896  0.00  0.00    +0.000 C 
ATOM     30  C   UNL     1      35.083   8.166  14.675  0.00  0.00    +0.000 C 
ATOM     31  C   UNL     1      33.963   7.315  14.105  0.00  0.00    +0.000 C 
ATOM     32  C   UNL     1      34.345   6.798  12.712  0.00  0.00    +0.000 C 
ATOM     33  C   UNL     1      35.593   5.949  12.842  0.00  0.00    +0.000 C 
ENDBRANCH  27  28
ENDBRANCH  26  27
ENDBRANCH  25  26
ENDBRANCH  22  25
ENDBRANCH  11  19
TORSDOF 6
ENDMDL
MODEL 4
REMARK VINA RESULT:      -7.7      7.004      9.920
REMARK  Name = 
REMARK  6 active torsions:
REMARK  status: ('A' for Active; 'I' for Inactive)
REMARK    1  A    between atoms: C_10  and  C_11
REMARK    2  A    between atoms: C_18  and  C_19
REMARK    3  A    between atoms: C_22  and  O_23
REMARK    4  A    between atoms: O_23  and  C_24
REMARK    5  A    between atoms: C_24  and  C_25
REMARK    6  A    between atoms: C_25  and  N_26
REMARK                            x       y       z     vdW  Elec       q    Type
REMARK                         _______ _______ _______ _____ _____    ______ ____
ROOT
ATOM      1  O   UNL     1      43.394  -2.869  11.415  0.00  0.00    +0.000 OA
ATOM      2  C   UNL     1      42.128  -2.771  11.993  0.00  0.00    +0.000 A 
ATOM      3  C   UNL     1      40.986  -2.925  11.238  0.00  0.00    +0.000 A 
ATOM      4  C   UNL     1      39.732  -2.829  11.798  0.00  0.00    +0.000 A 
ATOM      5  C   UNL     1      39.574  -2.573  13.144  0.00  0.00    +0.000 A 
ATOM      6  C   UNL     1      40.676  -2.419  13.900  0.00  0.00    +0.000 A 
ATOM      7  C   UNL     1      41.972  -2.514  13.338  0.00  0.00    +0.000 A 
ATOM      8  O   UNL     1      40.623  -2.154  15.289  0.00  0.00    +0.000 OA
ATOM      9  C   UNL     1      39.324  -1.895  15.860  0.00  0.00    +0.000 C 
ATOM     10  C   UNL     1      38.446  -3.104  15.249  0.00  0.00    +0.000 C 
ATOM     11  C   UNL     1      38.183  -2.472  13.752  0.00  0.00    +0.000 C 
ENDROOT
BRANCH  10  12
ATOM     12  C   UNL     1      37.068  -2.680  15.919  0.00  0.00    +0.000 A 
ATOM     13  C   UNL     1      35.930  -3.259  15.355  0.00  0.00    +0.000 A 
ATOM     14  C   UNL     1      34.700  -2.938  15.892  0.00  0.00    +0.000 A 
ATOM     15  C   UNL     1      34.618  -2.068  16.956  0.00  0.00    +0.000 A 
ATOM     16  F   UNL     1      33.430  -1.720  17.520  0.00  0.00    +0.000 F 
ATOM     17  C   UNL     1      35.778  -1.517  17.483  0.00  0.00    +0.000 A 
ATOM     18  C   UNL     1      37.011  -1.836  16.948  0.00  0.00    +0.000 A 
ENDBRANCH  10  12
BRANCH  11  19
ATOM     19  C   UNL     1      38.014  -0.991  14.056  0.00  0.00    +0.000 A 
ATOM     20  C   UNL     1      36.770  -0.450  14.010  0.00  0.00    +0.000 A 
ATOM     21  C   UNL     1      36.532   0.908  14.279  0.00  0.00    +0.000 A 
ATOM     22  C   UNL     1      37.610   1.694  14.596  0.00  0.00    +0.000 A 
ATOM     23  C   UNL     1      38.887   1.186  14.654  0.00  0.00    +0.000 A 
ATOM     24  C   UNL     1      39.052  -0.166  14.376  0.00  0.00    +0.000 A 
BRANCH  22  25
ATOM     25  O   UNL     1      37.407   3.051  14.869  0.00  0.00    +0.000 OA
BRANCH  25  26
ATOM     26  C   UNL     1      37.833   4.052  13.969  0.00  0.00    +0.000 C 
BRANCH  26  27
ATOM     27  C   UNL     1      37.072   3.971  12.679  0.00  0.00    +0.000 C 
BRANCH  27  28
ATOM     28  N   UNL     1      37.968   3.960  11.525  0.00  0.00    +0.000 NA
ATOM     29  C   UNL     1      37.368   3.371  10.375  0.00  0.00    +0.000 C 
ATOM     30  C   UNL     1      37.267   1.862  10.463  0.00  0.00    +0.000 C 
ATOM     31  C   UNL     1      38.545   1.258  11.017  0.00  0.00    +0.000 C 
ATOM     32  C   UNL     1      39.679   2.291  10.985  0.00  0.00    +0.000 C 
ATOM     33  C   UNL     1      39.277   3.471  11.846  0.00  0.00    +0.000 C 
ENDBRANCH  27  28
ENDBRANCH  26  27
ENDBRANCH  25  26
ENDBRANCH  22  25
ENDBRANCH  11  19
TORSDOF 6
ENDMDL
MODEL 5
REMARK VINA RESULT:      -7.4      6.981      9.933
REMARK  Name = 
REMARK  6 active torsions:
REMARK  status: ('A' for Active; 'I' for Inactive)
REMARK    1  A    between atoms: C_10  and  C_11
REMARK    2  A    between atoms: C_18  and  C_19
REMARK    3  A    between atoms: C_22  and  O_23
REMARK    4  A    between atoms: O_23  and  C_24
REMARK    5  A    between atoms: C_24  and  C_25
REMARK    6  A    between atoms: C_25  and  N_26
REMARK                            x       y       z     vdW  Elec       q    Type
REMARK                         _______ _______ _______ _____ _____    ______ ____
ROOT
ATOM      1  O   UNL     1      43.698  -2.635  11.719  0.00  0.00    +0.000 OA
ATOM      2  C   UNL     1      42.393  -2.599  12.211  0.00  0.00    +0.000 A 
ATOM      3  C   UNL     1      41.312  -2.786  11.378  0.00  0.00    +0.000 A 
ATOM      4  C   UNL     1      40.019  -2.752  11.852  0.00  0.00    +0.000 A 
ATOM      5  C   UNL     1      39.760  -2.528  13.188  0.00  0.00    +0.000 A 
ATOM      6  C   UNL     1      40.801  -2.342  14.020  0.00  0.00    +0.000 A 
ATOM      7  C   UNL     1      42.136  -2.374  13.546  0.00  0.00    +0.000 A 
ATOM      8  O   UNL     1      40.643  -2.106  15.406  0.00  0.00    +0.000 OA
ATOM      9  C   UNL     1      39.300  -1.911  15.891  0.00  0.00    +0.000 C 
ATOM     10  C   UNL     1      38.516  -3.144  15.202  0.00  0.00    +0.000 C 
ATOM     11  C   UNL     1      38.328  -2.495  13.701  0.00  0.00    +0.000 C 
ENDROOT
BRANCH  10  12
ATOM     12  C   UNL     1      37.080  -2.789  15.783  0.00  0.00    +0.000 A 
ATOM     13  C   UNL     1      37.077  -1.922  16.875  0.00  0.00    +0.000 A 
ATOM     14  C   UNL     1      35.862  -1.566  17.426  0.00  0.00    +0.000 A 
ATOM     15  C   UNL     1      34.694  -2.067  16.897  0.00  0.00    +0.000 A 
ATOM     16  F   UNL     1      33.472  -1.749  17.403  0.00  0.00    +0.000 F 
ATOM     17  C   UNL     1      34.746  -2.928  15.809  0.00  0.00    +0.000 A 
ATOM     18  C   UNL     1      35.961  -3.285  15.256  0.00  0.00    +0.000 A 
ENDBRANCH  10  12
BRANCH  11  19
ATOM     19  C   UNL     1      38.077  -1.028  14.016  0.00  0.00    +0.000 A 
ATOM     20  C   UNL     1      36.816  -0.539  13.898  0.00  0.00    +0.000 A 
ATOM     21  C   UNL     1      36.504   0.803  14.173  0.00  0.00    +0.000 A 
ATOM     22  C   UNL     1      37.525   1.627  14.570  0.00  0.00    +0.000 A 
ATOM     23  C   UNL     1      38.816   1.172  14.702  0.00  0.00    +0.000 A 
ATOM     24  C   UNL     1      39.056  -0.167  14.415  0.00  0.00    +0.000 A 
BRANCH  22  25
ATOM     25  O   UNL     1      37.247   2.969  14.851  0.00  0.00    +0.000 OA
BRANCH  25  26
ATOM     26  C   UNL     1      37.200   3.938  13.825  0.00  0.00    +0.000 C 
BRANCH  26  27
ATOM     27  C   UNL     1      35.875   4.640  13.812  0.00  0.00    +0.000 C 
BRANCH  27  28
ATOM     28  N   UNL     1      35.990   5.999  13.285  0.00  0.00    +0.000 NA
ATOM     29  C   UNL     1      35.456   6.974  14.176  0.00  0.00    +0.000 C 
ATOM     30  C   UNL     1      33.942   6.986  14.208  0.00  0.00    +0.000 C 
ATOM     31  C   UNL     1      33.362   6.870  12.810  0.00  0.00    +0.000 C 
ATOM     32  C   UNL     1      34.448   7.139  11.760  0.00  0.00    +0.000 C 
ATOM     33  C   UNL     1      35.543   6.105  11.928  0.00  0.00    +0.000 C 
ENDBRANCH  27  28
ENDBRANCH  26  27
ENDBRANCH  25  26
ENDBRANCH  22  25
ENDBRANCH  11  19
TORSDOF 6
ENDMDL
MODEL 6
REMARK VINA RESULT:      -7.3      4.027     10.154
REMARK  Name = 
REMARK  6 active torsions:
REMARK  status: ('A' for Active; 'I' for Inactive)
REMARK    1  A    between atoms: C_10  and  C_11
REMARK    2  A    between atoms: C_18  and  C_19
REMARK    3  A    between atoms: C_22  and  O_23
REMARK    4  A    between atoms: O_23  and  C_24
REMARK    5  A    between atoms: C_24  and  C_25
REMARK    6  A    between atoms: C_25  and  N_26
REMARK                            x       y       z     vdW  Elec       q    Type
REMARK                         _______ _______ _______ _____ _____    ______ ____
ROOT
ATOM      1  O   UNL     1      39.013   2.670   8.135  0.00  0.00    +0.000 OA
ATOM      2  C   UNL     1      38.578   1.954   9.250  0.00  0.00    +0.000 A 
ATOM      3  C   UNL     1      37.251   1.618   9.407  0.00  0.00    +0.000 A 
ATOM      4  C   UNL     1      36.810   0.911  10.504  0.00  0.00    +0.000 A 
ATOM      5  C   UNL     1      37.688   0.512  11.491  0.00  0.00    +0.000 A 
ATOM      6  C   UNL     1      38.988   0.830  11.357  0.00  0.00    +0.000 A 
ATOM      7  C   UNL     1      39.456   1.556  10.234  0.00  0.00    +0.000 A 
ATOM      8  O   UNL     1      39.968   0.468  12.311  0.00  0.00    +0.000 OA
ATOM      9  C   UNL     1      39.503  -0.131  13.536  0.00  0.00    +0.000 C 
ATOM     10  C   UNL     1      38.478  -1.252  12.989  0.00  0.00    +0.000 C 
ATOM     11  C   UNL     1      37.190  -0.270  12.697  0.00  0.00    +0.000 C 
ENDROOT
BRANCH  10  12
ATOM     12  C   UNL     1      38.029  -1.794  14.414  0.00  0.00    +0.000 A 
ATOM     13  C   UNL     1      36.848  -2.538  14.423  0.00  0.00    +0.000 A 
ATOM     14  C   UNL     1      36.403  -3.045  15.627  0.00  0.00    +0.000 A 
ATOM     15  C   UNL     1      37.119  -2.811  16.780  0.00  0.00    +0.000 A 
ATOM     16  F   UNL     1      36.723  -3.287  17.991  0.00  0.00    +0.000 F 
ATOM     17  C   UNL     1      38.288  -2.064  16.722  0.00  0.00    +0.000 A 
ATOM     18  C   UNL     1      38.736  -1.556  15.518  0.00  0.00    +0.000 A 
ENDBRANCH  10  12
BRANCH  11  19
ATOM     19  C   UNL     1      37.275   0.721  13.847  0.00  0.00    +0.000 A 
ATOM     20  C   UNL     1      36.389   0.616  14.870  0.00  0.00    +0.000 A 
ATOM     21  C   UNL     1      36.405   1.492  15.969  0.00  0.00    +0.000 A 
ATOM     22  C   UNL     1      37.356   2.479  15.985  0.00  0.00    +0.000 A 
ATOM     23  C   UNL     1      38.273   2.621  14.968  0.00  0.00    +0.000 A 
ATOM     24  C   UNL     1      38.201   1.720  13.911  0.00  0.00    +0.000 A 
BRANCH  22  25
ATOM     25  O   UNL     1      37.398   3.367  17.064  0.00  0.00    +0.000 OA
BRANCH  25  26
ATOM     26  C   UNL     1      37.958   4.657  16.932  0.00  0.00    +0.000 C 
BRANCH  26  27
ATOM     27  C   UNL     1      38.846   4.977  18.097  0.00  0.00    +0.000 C 
BRANCH  27  28
ATOM     28  N   UNL     1      39.506   6.271  17.932  0.00  0.00    +0.000 NA
ATOM     29  C   UNL     1      40.719   6.361  18.672  0.00  0.00    +0.000 C 
ATOM     30  C   UNL     1      40.498   6.528  20.161  0.00  0.00    +0.000 C 
ATOM     31  C   UNL     1      39.389   7.526  20.442  0.00  0.00    +0.000 C 
ATOM     32  C   UNL     1      39.068   8.334  19.178  0.00  0.00    +0.000 C 
ATOM     33  C   UNL     1      38.608   7.375  18.100  0.00  0.00    +0.000 C 
ENDBRANCH  27  28
ENDBRANCH  26  27
ENDBRANCH  25  26
ENDBRANCH  22  25
ENDBRANCH  11  19
TORSDOF 6
ENDMDL
MODEL 7
REMARK VINA RESULT:      -7.2      7.377     10.525
REMARK  Name = 
REMARK  6 active torsions:
REMARK  status: ('A' for Active; 'I' for Inactive)
REMARK    1  A    between atoms: C_10  and  C_11
REMARK    2  A    between atoms: C_18  and  C_19
REMARK    3  A    between atoms: C_22  and  O_23
REMARK    4  A    between atoms: O_23  and  C_24
REMARK    5  A    between atoms: C_24  and  C_25
REMARK    6  A    between atoms: C_25  and  N_26
REMARK                            x       y       z     vdW  Elec       q    Type
REMARK                         _______ _______ _______ _____ _____    ______ ____
ROOT
ATOM      1  O   UNL     1      37.975   4.535  11.852  0.00  0.00    +0.000 OA
ATOM      2  C   UNL     1      38.133   3.453  12.718  0.00  0.00    +0.000 A 
ATOM      3  C   UNL     1      38.980   3.526  13.802  0.00  0.00    +0.000 A 
ATOM      4  C   UNL     1      39.145   2.464  14.663  0.00  0.00    +0.000 A 
ATOM      5  C   UNL     1      38.462   1.282  14.469  0.00  0.00    +0.000 A 
ATOM      6  C   UNL     1      37.629   1.189  13.417  0.00  0.00    +0.000 A 
ATOM      7  C   UNL     1      37.450   2.273  12.523  0.00  0.00    +0.000 A 
ATOM      8  O   UNL     1      36.883   0.022  13.130  0.00  0.00    +0.000 OA
ATOM      9  C   UNL     1      37.160  -1.148  13.925  0.00  0.00    +0.000 C 
ATOM     10  C   UNL     1      37.141  -0.544  15.422  0.00  0.00    +0.000 C 
ATOM     11  C   UNL     1      38.650   0.116  15.428  0.00  0.00    +0.000 C 
ENDROOT
BRANCH  10  12
ATOM     12  C   UNL     1      37.487  -1.904  16.169  0.00  0.00    +0.000 A 
ATOM     13  C   UNL     1      37.161  -3.066  15.469  0.00  0.00    +0.000 A 
ATOM     14  C   UNL     1      37.439  -4.284  16.056  0.00  0.00    +0.000 A 
ATOM     15  C   UNL     1      38.024  -4.329  17.302  0.00  0.00    +0.000 A 
ATOM     16  F   UNL     1      38.318  -5.502  17.924  0.00  0.00    +0.000 F 
ATOM     17  C   UNL     1      38.330  -3.146  17.961  0.00  0.00    +0.000 A 
ATOM     18  C   UNL     1      38.053  -1.926  17.375  0.00  0.00    +0.000 A 
ENDBRANCH  10  12
BRANCH  11  19
ATOM     19  C   UNL     1      39.447  -0.902  14.629  0.00  0.00    +0.000 A 
ATOM     20  C   UNL     1      39.513  -0.770  13.279  0.00  0.00    +0.000 A 
ATOM     21  C   UNL     1      40.231  -1.668  12.472  0.00  0.00    +0.000 A 
ATOM     22  C   UNL     1      40.879  -2.706  13.091  0.00  0.00    +0.000 A 
ATOM     23  C   UNL     1      40.838  -2.876  14.456  0.00  0.00    +0.000 A 
ATOM     24  C   UNL     1      40.110  -1.951  15.195  0.00  0.00    +0.000 A 
BRANCH  22  25
ATOM     25  O   UNL     1      41.602  -3.618  12.315  0.00  0.00    +0.000 OA
BRANCH  25  26
ATOM     26  C   UNL     1      42.836  -3.264  11.727  0.00  0.00    +0.000 C 
BRANCH  26  27
ATOM     27  C   UNL     1      43.924  -3.211  12.757  0.00  0.00    +0.000 C 
BRANCH  27  28
ATOM     28  N   UNL     1      44.660  -1.950  12.699  0.00  0.00    +0.000 NA
ATOM     29  C   UNL     1      45.232  -1.596  13.955  0.00  0.00    +0.000 C 
ATOM     30  C   UNL     1      44.211  -1.093  14.954  0.00  0.00    +0.000 C 
ATOM     31  C   UNL     1      43.225  -0.142  14.300  0.00  0.00    +0.000 C 
ATOM     32  C   UNL     1      43.754   0.314  12.933  0.00  0.00    +0.000 C 
ATOM     33  C   UNL     1      43.920  -0.907  12.053  0.00  0.00    +0.000 C 
ENDBRANCH  27  28
ENDBRANCH  26  27
ENDBRANCH  25  26
ENDBRANCH  22  25
ENDBRANCH  11  19
TORSDOF 6
ENDMDL
MODEL 8
REMARK VINA RESULT:      -6.8      1.605      2.409
REMARK  Name = 
REMARK  6 active torsions:
REMARK  status: ('A' for Active; 'I' for Inactive)
REMARK    1  A    between atoms: C_10  and  C_11
REMARK    2  A    between atoms: C_18  and  C_19
REMARK    3  A    between atoms: C_22  and  O_23
REMARK    4  A    between atoms: O_23  and  C_24
REMARK    5  A    between atoms: C_24  and  C_25
REMARK    6  A    between atoms: C_25  and  N_26
REMARK                            x       y       z     vdW  Elec       q    Type
REMARK                         _______ _______ _______ _____ _____    ______ ____
ROOT
ATOM      1  O   UNL     1      46.780   7.095  16.996  0.00  0.00    +0.000 OA
ATOM      2  C   UNL     1      45.487   7.212  17.505  0.00  0.00    +0.000 A 
ATOM      3  C   UNL     1      45.173   6.753  18.766  0.00  0.00    +0.000 A 
ATOM      4  C   UNL     1      43.900   6.863  19.278  0.00  0.00    +0.000 A 
ATOM      5  C   UNL     1      42.887   7.441  18.542  0.00  0.00    +0.000 A 
ATOM      6  C   UNL     1      43.171   7.897  17.309  0.00  0.00    +0.000 A 
ATOM      7  C   UNL     1      44.476   7.790  16.768  0.00  0.00    +0.000 A 
ATOM      8  O   UNL     1      42.205   8.506  16.474  0.00  0.00    +0.000 OA
ATOM      9  C   UNL     1      40.837   8.488  16.929  0.00  0.00    +0.000 C 
ATOM     10  C   UNL     1      40.990   8.984  18.458  0.00  0.00    +0.000 C 
ATOM     11  C   UNL     1      41.484   7.560  19.120  0.00  0.00    +0.000 C 
ENDROOT
BRANCH  10  12
ATOM     12  C   UNL     1      39.449   8.884  18.833  0.00  0.00    +0.000 A 
ATOM     13  C   UNL     1      39.171   8.829  20.200  0.00  0.00    +0.000 A 
ATOM     14  C   UNL     1      37.852   8.748  20.597  0.00  0.00    +0.000 A 
ATOM     15  C   UNL     1      36.849   8.721  19.653  0.00  0.00    +0.000 A 
ATOM     16  F   UNL     1      35.534   8.640  19.992  0.00  0.00    +0.000 F 
ATOM     17  C   UNL     1      37.174   8.777  18.305  0.00  0.00    +0.000 A 
ATOM     18  C   UNL     1      38.493   8.859  17.905  0.00  0.00    +0.000 A 
ENDBRANCH  10  12
BRANCH  11  19
ATOM     19  C   UNL     1      40.669   6.543  18.336  0.00  0.00    +0.000 A 
ATOM     20  C   UNL     1      40.997   6.297  17.042  0.00  0.00    +0.000 A 
ATOM     21  C   UNL     1      40.294   5.371  16.253  0.00  0.00    +0.000 A 
ATOM     22  C   UNL     1      39.245   4.706  16.832  0.00  0.00    +0.000 A 
ATOM     23  C   UNL     1      38.879   4.925  18.140  0.00  0.00    +0.000 A 
ATOM     24  C   UNL     1      39.617   5.854  18.864  0.00  0.00    +0.000 A 
BRANCH  22  25
ATOM     25  O   UNL     1      38.524   3.778  16.073  0.00  0.00    +0.000 OA
BRANCH  25  26
ATOM     26  C   UNL     1      37.124   3.884  15.920  0.00  0.00    +0.000 C 
BRANCH  26  27
ATOM     27  C   UNL     1      36.414   2.909  16.812  0.00  0.00    +0.000 C 
BRANCH  27  28
ATOM     28  N   UNL     1      35.561   2.002  16.046  0.00  0.00    +0.000 NA
ATOM     29  C   UNL     1      34.855   1.087  16.879  0.00  0.00    +0.000 C 
ATOM     30  C   UNL     1      35.734  -0.014  17.433  0.00  0.00    +0.000 C 
ATOM     31  C   UNL     1      36.669  -0.559  16.368  0.00  0.00    +0.000 C 
ATOM     32  C   UNL     1      36.211  -0.104  14.976  0.00  0.00    +0.000 C 
ATOM     33  C   UNL     1      36.242   1.410  14.933  0.00  0.00    +0.000 C 
ENDBRANCH  27  28
ENDBRANCH  26  27
ENDBRANCH  25  26
ENDBRANCH  22  25
ENDBRANCH  11  19
TORSDOF 6
ENDMDL
MODEL 9
REMARK VINA RESULT:      -6.6      7.416     10.936
REMARK  Name = 
REMARK  6 active torsions:
REMARK  status: ('A' for Active; 'I' for Inactive)
REMARK    1  A    between atoms: C_10  and  C_11
REMARK    2  A    between atoms: C_18  and  C_19
REMARK    3  A    between atoms: C_22  and  O_23
REMARK    4  A    between atoms: O_23  and  C_24
REMARK    5  A    between atoms: C_24  and  C_25
REMARK    6  A    between atoms: C_25  and  N_26
REMARK                            x       y       z     vdW  Elec       q    Type
REMARK                         _______ _______ _______ _____ _____    ______ ____
ROOT
ATOM      1  O   UNL     1      37.988   4.606  12.019  0.00  0.00    +0.000 OA
ATOM      2  C   UNL     1      38.172   3.487  12.831  0.00  0.00    +0.000 A 
ATOM      3  C   UNL     1      39.107   3.488  13.843  0.00  0.00    +0.000 A 
ATOM      4  C   UNL     1      39.298   2.389  14.651  0.00  0.00    +0.000 A 
ATOM      5  C   UNL     1      38.555   1.241  14.474  0.00  0.00    +0.000 A 
ATOM      6  C   UNL     1      37.637   1.219  13.491  0.00  0.00    +0.000 A 
ATOM      7  C   UNL     1      37.429   2.341  12.652  0.00  0.00    +0.000 A 
ATOM      8  O   UNL     1      36.823   0.091  13.227  0.00  0.00    +0.000 OA
ATOM      9  C   UNL     1      37.117  -1.117  13.957  0.00  0.00    +0.000 C 
ATOM     10  C   UNL     1      37.244  -0.568  15.470  0.00  0.00    +0.000 C 
ATOM     11  C   UNL     1      38.773   0.034  15.374  0.00  0.00    +0.000 C 
ENDROOT
BRANCH  10  12
ATOM     12  C   UNL     1      37.594  -1.967  16.139  0.00  0.00    +0.000 A 
ATOM     13  C   UNL     1      38.220  -1.891  17.383  0.00  0.00    +0.000 A 
ATOM     14  C   UNL     1      38.548  -3.069  18.024  0.00  0.00    +0.000 A 
ATOM     15  C   UNL     1      38.256  -4.279  17.432  0.00  0.00    +0.000 A 
ATOM     16  F   UNL     1      38.558  -5.467  18.021  0.00  0.00    +0.000 F 
ATOM     17  C   UNL     1      37.632  -4.304  16.193  0.00  0.00    +0.000 A 
ATOM     18  C   UNL     1      37.304  -3.127  15.550  0.00  0.00    +0.000 A 
ENDBRANCH  10  12
BRANCH  11  19
ATOM     19  C   UNL     1      39.462  -0.982  14.477  0.00  0.00    +0.000 A 
ATOM     20  C   UNL     1      40.339  -1.858  15.031  0.00  0.00    +0.000 A 
ATOM     21  C   UNL     1      41.013  -2.827  14.270  0.00  0.00    +0.000 A 
ATOM     22  C   UNL     1      40.761  -2.870  12.923  0.00  0.00    +0.000 A 
ATOM     23  C   UNL     1      39.880  -2.001  12.321  0.00  0.00    +0.000 A 
ATOM     24  C   UNL     1      39.246  -1.067  13.133  0.00  0.00    +0.000 A 
BRANCH  22  25
ATOM     25  O   UNL     1      41.416  -3.823  12.137  0.00  0.00    +0.000 OA
BRANCH  25  26
ATOM     26  C   UNL     1      42.074  -3.461  10.941  0.00  0.00    +0.000 C 
BRANCH  26  27
ATOM     27  C   UNL     1      42.011  -4.574   9.937  0.00  0.00    +0.000 C 
BRANCH  27  28
ATOM     28  N   UNL     1      41.078  -4.270   8.855  0.00  0.00    +0.000 NA
ATOM     29  C   UNL     1      41.478  -4.845   7.614  0.00  0.00    +0.000 C 
ATOM     30  C   UNL     1      42.645  -4.123   6.973  0.00  0.00    +0.000 C 
ATOM     31  C   UNL     1      42.478  -2.618   7.066  0.00  0.00    +0.000 C 
ATOM     32  C   UNL     1      41.033  -2.266   7.446  0.00  0.00    +0.000 C 
ATOM     33  C   UNL     1      40.731  -2.881   8.797  0.00  0.00    +0.000 C 
ENDBRANCH  27  28
ENDBRANCH  26  27
ENDBRANCH  25  26
ENDBRANCH  22  25
ENDBRANCH  11  19
TORSDOF 6
ENDMDL
MODEL 10
REMARK VINA RESULT:      -6.6     20.644     24.160
REMARK  Name = 
REMARK  6 active torsions:
REMARK  status: ('A' for Active; 'I' for Inactive)
REMARK    1  A    between atoms: C_10  and  C_11
REMARK    2  A    between atoms: C_18  and  C_19
REMARK    3  A    between atoms: C_22  and  O_23
REMARK    4  A    between atoms: O_23  and  C_24
REMARK    5  A    between atoms: C_24  and  C_25
REMARK    6  A    between atoms: C_25  and  N_26
REMARK                            x       y       z     vdW  Elec       q    Type
REMARK                         _______ _______ _______ _____ _____    ______ ____
ROOT
ATOM      1  O   UNL     1      28.972  16.794  42.564  0.00  0.00    +0.000 OA
ATOM      2  C   UNL     1      28.548  16.437  41.284  0.00  0.00    +0.000 A 
ATOM      3  C   UNL     1      28.716  15.155  40.809  0.00  0.00    +0.000 A 
ATOM      4  C   UNL     1      28.301  14.791  39.547  0.00  0.00    +0.000 A 
ATOM      5  C   UNL     1      27.699  15.705  38.708  0.00  0.00    +0.000 A 
ATOM      6  C   UNL     1      27.525  16.963  39.152  0.00  0.00    +0.000 A 
ATOM      7  C   UNL     1      27.946  17.352  40.447  0.00  0.00    +0.000 A 
ATOM      8  O   UNL     1      26.918  17.975  38.370  0.00  0.00    +0.000 OA
ATOM      9  C   UNL     1      26.622  17.656  36.996  0.00  0.00    +0.000 C 
ATOM     10  C   UNL     1      25.895  16.221  37.138  0.00  0.00    +0.000 C 
ATOM     11  C   UNL     1      27.243  15.291  37.317  0.00  0.00    +0.000 C 
ENDROOT
BRANCH  10  12
ATOM     12  C   UNL     1      25.663  15.984  35.583  0.00  0.00    +0.000 A 
ATOM     13  C   UNL     1      25.564  17.143  34.813  0.00  0.00    +0.000 A 
ATOM     14  C   UNL     1      25.368  17.010  33.453  0.00  0.00    +0.000 A 
ATOM     15  C   UNL     1      25.275  15.756  32.890  0.00  0.00    +0.000 A 
ATOM     16  F   UNL     1      25.081  15.572  31.557  0.00  0.00    +0.000 F 
ATOM     17  C   UNL     1      25.379  14.632  33.697  0.00  0.00    +0.000 A 
ATOM     18  C   UNL     1      25.576  14.762  35.058  0.00  0.00    +0.000 A 
ENDBRANCH  10  12
BRANCH  11  19
ATOM     19  C   UNL     1      28.229  15.973  36.382  0.00  0.00    +0.000 A 
ATOM     20  C   UNL     1      28.430  15.449  35.146  0.00  0.00    +0.000 A 
ATOM     21  C   UNL     1      29.322  16.022  34.224  0.00  0.00    +0.000 A 
ATOM     22  C   UNL     1      30.002  17.149  34.610  0.00  0.00    +0.000 A 
ATOM     23  C   UNL     1      29.828  17.713  35.852  0.00  0.00    +0.000 A 
ATOM     24  C   UNL     1      28.929  17.095  36.715  0.00  0.00    +0.000 A 
BRANCH  22  25
ATOM     25  O   UNL     1      30.898  17.743  33.715  0.00  0.00    +0.000 OA
BRANCH  25  26
ATOM     26  C   UNL     1      32.295  17.644  33.901  0.00  0.00    +0.000 C 
BRANCH  26  27
ATOM     27  C   UNL     1      32.790  16.280  33.521  0.00  0.00    +0.000 C 
BRANCH  27  28
ATOM     28  N   UNL     1      33.636  15.705  34.564  0.00  0.00    +0.000 NA
ATOM     29  C   UNL     1      33.481  14.293  34.673  0.00  0.00    +0.000 C 
ATOM     30  C   UNL     1      32.182  13.886  35.335  0.00  0.00    +0.000 C 
ATOM     31  C   UNL     1      31.886  14.753  36.545  0.00  0.00    +0.000 C 
ATOM     32  C   UNL     1      33.141  15.535  36.958  0.00  0.00    +0.000 C 
ATOM     33  C   UNL     1      33.554  16.422  35.802  0.00  0.00    +0.000 C 
ENDBRANCH  27  28
ENDBRANCH  26  27
ENDBRANCH  25  26
ENDBRANCH  22  25
ENDBRANCH  11  19
TORSDOF 6
ENDMDL
