MODEL 1
REMARK VINA RESULT:      -7.3      0.000      0.000
REMARK  Name = 
REMARK  3 active torsions:
REMARK  status: ('A' for Active; 'I' for Inactive)
REMARK    1  A    between atoms: C_2  and  C_3
REMARK    2  A    between atoms: C_6  and  N_7
REMARK    3  A    between atoms: C_15  and  C_16
REMARK                            x       y       z     vdW  Elec       q    Type
REMARK                         _______ _______ _______ _____ _____    ______ ____
ROOT
ATOM      1  N   UNL     1      16.855  10.946  35.670  0.00  0.00    +0.000 NA
ATOM      2  C   UNL     1      16.043  10.833  36.827  0.00  0.00    +0.000 A 
ATOM      3  N   UNL     1      14.709  11.100  36.788  0.00  0.00    +0.000 NA
ATOM      4  C   UNL     1      13.942  10.994  37.877  0.00  0.00    +0.000 A 
ATOM      5  C   UNL     1      12.488  11.279  37.860  0.00  0.00    +0.000 C 
ATOM      6  C   UNL     1      14.509  10.605  39.071  0.00  0.00    +0.000 A 
ATOM      7  C   UNL     1      15.857  10.324  39.159  0.00  0.00    +0.000 A 
ATOM      8  C   UNL     1      16.489   9.904  40.436  0.00  0.00    +0.000 C 
ATOM      9  C   UNL     1      16.637  10.443  38.007  0.00  0.00    +0.000 A 
ENDROOT
BRANCH   1  13
ATOM     10  C   UNL     1      15.153  12.076  31.975  0.00  0.00    +0.000 A 
ATOM     11  C   UNL     1      14.755  12.655  33.156  0.00  0.00    +0.000 A 
ATOM     12  C   UNL     1      15.287  12.309  34.368  0.00  0.00    +0.000 A 
ATOM     13  C   UNL     1      16.262  11.348  34.439  0.00  0.00    +0.000 A 
ATOM     14  C   UNL     1      16.672  10.759  33.265  0.00  0.00    +0.000 A 
ATOM     15  C   UNL     1      16.141  11.101  32.039  0.00  0.00    +0.000 A 
BRANCH  10  17
ATOM     16  C   UNL     1      13.669  13.701  30.980  0.00  0.00    +0.000 C 
ATOM     17  C   UNL     1      14.550  12.481  30.685  0.00  0.00    +0.000 C 
ENDBRANCH  10  17
ENDBRANCH   1  13
BRANCH   9  18
ATOM     18  C   UNL     1      18.064  10.147  38.091  0.00  0.00    +0.000 C 
ATOM     19  N   UNL     1      19.001  11.145  38.396  0.00  0.00    +0.000 NA
ATOM     20  O   UNL     1      18.434   8.968  37.882  0.00  0.00    +0.000 OA
ENDBRANCH   9  18
TORSDOF 3
ENDMDL
MODEL 2
REMARK VINA RESULT:      -6.8      2.285      3.864
REMARK  Name = 
REMARK  3 active torsions:
REMARK  status: ('A' for Active; 'I' for Inactive)
REMARK    1  A    between atoms: C_2  and  C_3
REMARK    2  A    between atoms: C_6  and  N_7
REMARK    3  A    between atoms: C_15  and  C_16
REMARK                            x       y       z     vdW  Elec       q    Type
REMARK                         _______ _______ _______ _____ _____    ______ ____
ROOT
ATOM      1  N   UNL     1      17.504   9.585  37.481  0.00  0.00    +0.000 NA
ATOM      2  C   UNL     1      18.470  10.234  38.291  0.00  0.00    +0.000 A 
ATOM      3  N   UNL     1      19.058  11.399  37.902  0.00  0.00    +0.000 NA
ATOM      4  C   UNL     1      19.968  12.012  38.663  0.00  0.00    +0.000 A 
ATOM      5  C   UNL     1      20.622  13.280  38.262  0.00  0.00    +0.000 C 
ATOM      6  C   UNL     1      20.325  11.457  39.873  0.00  0.00    +0.000 A 
ATOM      7  C   UNL     1      19.757  10.277  40.309  0.00  0.00    +0.000 A 
ATOM      8  C   UNL     1      20.128   9.662  41.609  0.00  0.00    +0.000 C 
ATOM      9  C   UNL     1      18.809   9.657  39.495  0.00  0.00    +0.000 A 
ENDROOT
BRANCH   1  13
ATOM     10  C   UNL     1      16.488  11.246  33.734  0.00  0.00    +0.000 A 
ATOM     11  C   UNL     1      15.886  11.669  34.895  0.00  0.00    +0.000 A 
ATOM     12  C   UNL     1      16.193  11.150  36.122  0.00  0.00    +0.000 A 
ATOM     13  C   UNL     1      17.140  10.165  36.231  0.00  0.00    +0.000 A 
ATOM     14  C   UNL     1      17.752   9.729  35.078  0.00  0.00    +0.000 A 
ATOM     15  C   UNL     1      17.448  10.247  33.836  0.00  0.00    +0.000 A 
BRANCH  10  17
ATOM     16  C   UNL     1      15.910  10.661  31.463  0.00  0.00    +0.000 C 
ATOM     17  C   UNL     1      16.124  11.835  32.426  0.00  0.00    +0.000 C 
ENDBRANCH  10  17
ENDBRANCH   1  13
BRANCH   9  18
ATOM     18  C   UNL     1      18.202   8.409  39.949  0.00  0.00    +0.000 C 
ATOM     19  N   UNL     1      17.031   8.402  40.719  0.00  0.00    +0.000 NA
ATOM     20  O   UNL     1      18.761   7.332  39.629  0.00  0.00    +0.000 OA
ENDBRANCH   9  18
TORSDOF 3
ENDMDL
MODEL 3
REMARK VINA RESULT:      -6.6      2.721      4.758
REMARK  Name = 
REMARK  3 active torsions:
REMARK  status: ('A' for Active; 'I' for Inactive)
REMARK    1  A    between atoms: C_2  and  C_3
REMARK    2  A    between atoms: C_6  and  N_7
REMARK    3  A    between atoms: C_15  and  C_16
REMARK                            x       y       z     vdW  Elec       q    Type
REMARK                         _______ _______ _______ _____ _____    ______ ____
ROOT
ATOM      1  N   UNL     1      17.883   9.623  37.574  0.00  0.00    +0.000 NA
ATOM      2  C   UNL     1      19.260   9.572  37.907  0.00  0.00    +0.000 A 
ATOM      3  N   UNL     1      20.221   9.946  37.017  0.00  0.00    +0.000 NA
ATOM      4  C   UNL     1      21.519   9.900  37.329  0.00  0.00    +0.000 A 
ATOM      5  C   UNL     1      22.583  10.301  36.379  0.00  0.00    +0.000 C 
ATOM      6  C   UNL     1      21.901   9.464  38.578  0.00  0.00    +0.000 A 
ATOM      7  C   UNL     1      20.964   9.074  39.513  0.00  0.00    +0.000 A 
ATOM      8  C   UNL     1      21.355   8.601  40.865  0.00  0.00    +0.000 C 
ATOM      9  C   UNL     1      19.615   9.132  39.163  0.00  0.00    +0.000 A 
ENDROOT
BRANCH   1  13
ATOM     10  C   UNL     1      16.692  11.040  33.780  0.00  0.00    +0.000 A 
ATOM     11  C   UNL     1      17.364   9.851  33.924  0.00  0.00    +0.000 A 
ATOM     12  C   UNL     1      17.764   9.366  35.139  0.00  0.00    +0.000 A 
ATOM     13  C   UNL     1      17.494  10.075  36.280  0.00  0.00    +0.000 A 
ATOM     14  C   UNL     1      16.821  11.269  36.154  0.00  0.00    +0.000 A 
ATOM     15  C   UNL     1      16.415  11.765  34.933  0.00  0.00    +0.000 A 
BRANCH  10  17
ATOM     16  C   UNL     1      15.230  10.536  31.924  0.00  0.00    +0.000 C 
ATOM     17  C   UNL     1      16.278  11.527  32.445  0.00  0.00    +0.000 C 
ENDBRANCH  10  17
ENDBRANCH   1  13
BRANCH   9  18
ATOM     18  C   UNL     1      18.616   8.722  40.146  0.00  0.00    +0.000 C 
ATOM     19  N   UNL     1      18.193   7.389  40.247  0.00  0.00    +0.000 NA
ATOM     20  O   UNL     1      18.141   9.600  40.905  0.00  0.00    +0.000 OA
ENDBRANCH   9  18
TORSDOF 3
ENDMDL
MODEL 4
REMARK VINA RESULT:      -6.5      3.407      6.011
REMARK  Name = 
REMARK  3 active torsions:
REMARK  status: ('A' for Active; 'I' for Inactive)
REMARK    1  A    between atoms: C_2  and  C_3
REMARK    2  A    between atoms: C_6  and  N_7
REMARK    3  A    between atoms: C_15  and  C_16
REMARK                            x       y       z     vdW  Elec       q    Type
REMARK                         _______ _______ _______ _____ _____    ______ ____
ROOT
ATOM      1  N   UNL     1      19.410  10.687  37.567  0.00  0.00    +0.000 NA
ATOM      2  C   UNL     1      20.256  11.738  38.003  0.00  0.00    +0.000 A 
ATOM      3  N   UNL     1      19.748  12.917  38.458  0.00  0.00    +0.000 NA
ATOM      4  C   UNL     1      20.543  13.908  38.870  0.00  0.00    +0.000 A 
ATOM      5  C   UNL     1      20.015  15.200  39.369  0.00  0.00    +0.000 C 
ATOM      6  C   UNL     1      21.910  13.740  38.837  0.00  0.00    +0.000 A 
ATOM      7  C   UNL     1      22.470  12.563  38.384  0.00  0.00    +0.000 A 
ATOM      8  C   UNL     1      23.941  12.361  38.340  0.00  0.00    +0.000 C 
ATOM      9  C   UNL     1      21.619  11.543  37.959  0.00  0.00    +0.000 A 
ENDROOT
BRANCH   1  13
ATOM     10  C   UNL     1      15.220  11.172  37.757  0.00  0.00    +0.000 A 
ATOM     11  C   UNL     1      15.960  11.708  36.731  0.00  0.00    +0.000 A 
ATOM     12  C   UNL     1      17.317  11.569  36.642  0.00  0.00    +0.000 A 
ATOM     13  C   UNL     1      17.997  10.868  37.604  0.00  0.00    +0.000 A 
ATOM     14  C   UNL     1      17.272  10.324  38.639  0.00  0.00    +0.000 A 
ATOM     15  C   UNL     1      15.903  10.461  38.736  0.00  0.00    +0.000 A 
BRANCH  10  17
ATOM     16  C   UNL     1      13.275  10.629  39.082  0.00  0.00    +0.000 C 
ATOM     17  C   UNL     1      13.751  11.348  37.814  0.00  0.00    +0.000 C 
ENDBRANCH  10  17
ENDBRANCH   1  13
BRANCH   9  18
ATOM     18  C   UNL     1      22.203  10.294  37.479  0.00  0.00    +0.000 C 
ATOM     19  N   UNL     1      22.521  10.108  36.126  0.00  0.00    +0.000 NA
ATOM     20  O   UNL     1      22.415   9.383  38.314  0.00  0.00    +0.000 OA
ENDBRANCH   9  18
TORSDOF 3
ENDMDL
MODEL 5
REMARK VINA RESULT:      -6.4      2.839      7.594
REMARK  Name = 
REMARK  3 active torsions:
REMARK  status: ('A' for Active; 'I' for Inactive)
REMARK    1  A    between atoms: C_2  and  C_3
REMARK    2  A    between atoms: C_6  and  N_7
REMARK    3  A    between atoms: C_15  and  C_16
REMARK                            x       y       z     vdW  Elec       q    Type
REMARK                         _______ _______ _______ _____ _____    ______ ____
ROOT
ATOM      1  N   UNL     1      17.612   9.564  39.824  0.00  0.00    +0.000 NA
ATOM      2  C   UNL     1      16.727  10.236  38.943  0.00  0.00    +0.000 A 
ATOM      3  N   UNL     1      15.391  10.307  39.194  0.00  0.00    +0.000 NA
ATOM      4  C   UNL     1      14.555  10.941  38.366  0.00  0.00    +0.000 A 
ATOM      5  C   UNL     1      13.098  11.032  38.618  0.00  0.00    +0.000 C 
ATOM      6  C   UNL     1      15.052  11.537  37.228  0.00  0.00    +0.000 A 
ATOM      7  C   UNL     1      16.399  11.491  36.931  0.00  0.00    +0.000 A 
ATOM      8  C   UNL     1      16.954  12.127  35.709  0.00  0.00    +0.000 C 
ATOM      9  C   UNL     1      17.250  10.824  37.812  0.00  0.00    +0.000 A 
ENDROOT
BRANCH   1  13
ATOM     10  C   UNL     1      16.070   7.827  43.350  0.00  0.00    +0.000 A 
ATOM     11  C   UNL     1      16.340   7.071  42.235  0.00  0.00    +0.000 A 
ATOM     12  C   UNL     1      16.838   7.604  41.079  0.00  0.00    +0.000 A 
ATOM     13  C   UNL     1      17.092   8.949  40.999  0.00  0.00    +0.000 A 
ATOM     14  C   UNL     1      16.827   9.721  42.107  0.00  0.00    +0.000 A 
ATOM     15  C   UNL     1      16.323   9.191  43.277  0.00  0.00    +0.000 A 
BRANCH  10  17
ATOM     16  C   UNL     1      15.775   8.209  45.717  0.00  0.00    +0.000 C 
ATOM     17  C   UNL     1      15.530   7.208  44.581  0.00  0.00    +0.000 C 
ENDBRANCH  10  17
ENDBRANCH   1  13
BRANCH   9  18
ATOM     18  C   UNL     1      18.677  10.770  37.505  0.00  0.00    +0.000 C 
ATOM     19  N   UNL     1      19.221   9.729  36.740  0.00  0.00    +0.000 NA
ATOM     20  O   UNL     1      19.409  11.687  37.948  0.00  0.00    +0.000 OA
ENDBRANCH   9  18
TORSDOF 3
ENDMDL
MODEL 6
REMARK VINA RESULT:      -6.3     29.785     32.996
REMARK  Name = 
REMARK  3 active torsions:
REMARK  status: ('A' for Active; 'I' for Inactive)
REMARK    1  A    between atoms: C_2  and  C_3
REMARK    2  A    between atoms: C_6  and  N_7
REMARK    3  A    between atoms: C_15  and  C_16
REMARK                            x       y       z     vdW  Elec       q    Type
REMARK                         _______ _______ _______ _____ _____    ______ ____
ROOT
ATOM      1  N   UNL     1      31.935  21.005   9.875  0.00  0.00    +0.000 NA
ATOM      2  C   UNL     1      33.130  21.596   9.392  0.00  0.00    +0.000 A 
ATOM      3  N   UNL     1      33.582  22.785   9.879  0.00  0.00    +0.000 NA
ATOM      4  C   UNL     1      34.708  23.344   9.427  0.00  0.00    +0.000 A 
ATOM      5  C   UNL     1      35.220  24.636   9.940  0.00  0.00    +0.000 C 
ATOM      6  C   UNL     1      35.433  22.707   8.443  0.00  0.00    +0.000 A 
ATOM      7  C   UNL     1      35.015  21.502   7.919  0.00  0.00    +0.000 A 
ATOM      8  C   UNL     1      35.782  20.799   6.859  0.00  0.00    +0.000 C 
ATOM      9  C   UNL     1      33.836  20.938   8.409  0.00  0.00    +0.000 A 
ENDROOT
BRANCH   1  13
ATOM     10  C   UNL     1      29.678  23.018  12.820  0.00  0.00    +0.000 A 
ATOM     11  C   UNL     1      30.658  22.117  13.158  0.00  0.00    +0.000 A 
ATOM     12  C   UNL     1      31.405  21.449  12.227  0.00  0.00    +0.000 A 
ATOM     13  C   UNL     1      31.190  21.668  10.891  0.00  0.00    +0.000 A 
ATOM     14  C   UNL     1      30.211  22.568  10.536  0.00  0.00    +0.000 A 
ATOM     15  C   UNL     1      29.453  23.246  11.468  0.00  0.00    +0.000 A 
BRANCH  10  17
ATOM     16  C   UNL     1      27.418  23.583  13.461  0.00  0.00    +0.000 C 
ATOM     17  C   UNL     1      28.893  23.719  13.861  0.00  0.00    +0.000 C 
ENDBRANCH  10  17
ENDBRANCH   1  13
BRANCH   9  18
ATOM     18  C   UNL     1      33.385  19.663   7.860  0.00  0.00    +0.000 C 
ATOM     19  N   UNL     1      32.501  19.605   6.774  0.00  0.00    +0.000 NA
ATOM     20  O   UNL     1      33.814  18.610   8.390  0.00  0.00    +0.000 OA
ENDBRANCH   9  18
TORSDOF 3
ENDMDL
MODEL 7
REMARK VINA RESULT:      -6.3     19.398     21.721
REMARK  Name = 
REMARK  3 active torsions:
REMARK  status: ('A' for Active; 'I' for Inactive)
REMARK    1  A    between atoms: C_2  and  C_3
REMARK    2  A    between atoms: C_6  and  N_7
REMARK    3  A    between atoms: C_15  and  C_16
REMARK                            x       y       z     vdW  Elec       q    Type
REMARK                         _______ _______ _______ _____ _____    ______ ____
ROOT
ATOM      1  N   UNL     1      27.465  23.511  24.778  0.00  0.00    +0.000 NA
ATOM      2  C   UNL     1      28.054  24.710  24.302  0.00  0.00    +0.000 A 
ATOM      3  N   UNL     1      28.428  25.705  25.153  0.00  0.00    +0.000 NA
ATOM      4  C   UNL     1      28.984  26.835  24.707  0.00  0.00    +0.000 A 
ATOM      5  C   UNL     1      29.398  27.932  25.612  0.00  0.00    +0.000 C 
ATOM      6  C   UNL     1      29.186  27.004  23.354  0.00  0.00    +0.000 A 
ATOM      7  C   UNL     1      28.823  26.023  22.454  0.00  0.00    +0.000 A 
ATOM      8  C   UNL     1      29.033  26.185  20.992  0.00  0.00    +0.000 C 
ATOM      9  C   UNL     1      28.245  24.852  22.945  0.00  0.00    +0.000 A 
ENDROOT
BRANCH   1  13
ATOM     10  C   UNL     1      26.935  22.964  28.930  0.00  0.00    +0.000 A 
ATOM     11  C   UNL     1      26.027  23.668  28.176  0.00  0.00    +0.000 A 
ATOM     12  C   UNL     1      26.171  23.862  26.831  0.00  0.00    +0.000 A 
ATOM     13  C   UNL     1      27.259  23.344  26.177  0.00  0.00    +0.000 A 
ATOM     14  C   UNL     1      28.178  22.636  26.917  0.00  0.00    +0.000 A 
ATOM     15  C   UNL     1      28.040  22.435  28.275  0.00  0.00    +0.000 A 
BRANCH  10  17
ATOM     16  C   UNL     1      26.155  21.371  30.570  0.00  0.00    +0.000 C 
ATOM     17  C   UNL     1      26.739  22.778  30.385  0.00  0.00    +0.000 C 
ENDBRANCH  10  17
ENDBRANCH   1  13
BRANCH   9  18
ATOM     18  C   UNL     1      27.858  23.809  21.999  0.00  0.00    +0.000 C 
ATOM     19  N   UNL     1      26.530  23.664  21.574  0.00  0.00    +0.000 NA
ATOM     20  O   UNL     1      28.752  23.040  21.573  0.00  0.00    +0.000 OA
ENDBRANCH   9  18
TORSDOF 3
ENDMDL
MODEL 8
REMARK VINA RESULT:      -6.2     20.940     22.826
REMARK  Name = 
REMARK  3 active torsions:
REMARK  status: ('A' for Active; 'I' for Inactive)
REMARK    1  A    between atoms: C_2  and  C_3
REMARK    2  A    between atoms: C_6  and  N_7
REMARK    3  A    between atoms: C_15  and  C_16
REMARK                            x       y       z     vdW  Elec       q    Type
REMARK                         _______ _______ _______ _____ _____    ______ ____
ROOT
ATOM      1  N   UNL     1      25.974   4.520  18.013  0.00  0.00    +0.000 NA
ATOM      2  C   UNL     1      26.356   5.193  16.824  0.00  0.00    +0.000 A 
ATOM      3  N   UNL     1      25.666   5.030  15.662  0.00  0.00    +0.000 NA
ATOM      4  C   UNL     1      26.023   5.664  14.541  0.00  0.00    +0.000 A 
ATOM      5  C   UNL     1      25.289   5.503  13.264  0.00  0.00    +0.000 C 
ATOM      6  C   UNL     1      27.116   6.503  14.556  0.00  0.00    +0.000 A 
ATOM      7  C   UNL     1      27.846   6.699  15.710  0.00  0.00    +0.000 A 
ATOM      8  C   UNL     1      29.027   7.599  15.747  0.00  0.00    +0.000 C 
ATOM      9  C   UNL     1      27.452   6.026  16.867  0.00  0.00    +0.000 A 
ENDROOT
BRANCH   1  13
ATOM     10  C   UNL     1      22.681   1.879  17.927  0.00  0.00    +0.000 A 
ATOM     11  C   UNL     1      22.520   3.221  18.178  0.00  0.00    +0.000 A 
ATOM     12  C   UNL     1      23.567   4.100  18.213  0.00  0.00    +0.000 A 
ATOM     13  C   UNL     1      24.844   3.654  17.990  0.00  0.00    +0.000 A 
ATOM     14  C   UNL     1      25.022   2.313  17.737  0.00  0.00    +0.000 A 
ATOM     15  C   UNL     1      23.973   1.419  17.701  0.00  0.00    +0.000 A 
BRANCH  10  17
ATOM     16  C   UNL     1      20.286   1.831  17.622  0.00  0.00    +0.000 C 
ATOM     17  C   UNL     1      21.520   0.962  17.898  0.00  0.00    +0.000 C 
ENDBRANCH  10  17
ENDBRANCH   1  13
BRANCH   9  18
ATOM     18  C   UNL     1      28.219   6.228  18.093  0.00  0.00    +0.000 C 
ATOM     19  N   UNL     1      27.947   7.297  18.959  0.00  0.00    +0.000 NA
ATOM     20  O   UNL     1      29.136   5.413  18.354  0.00  0.00    +0.000 OA
ENDBRANCH   9  18
TORSDOF 3
ENDMDL
MODEL 9
REMARK VINA RESULT:      -6.1     20.524     22.807
REMARK  Name = 
REMARK  3 active torsions:
REMARK  status: ('A' for Active; 'I' for Inactive)
REMARK    1  A    between atoms: C_2  and  C_3
REMARK    2  A    between atoms: C_6  and  N_7
REMARK    3  A    between atoms: C_15  and  C_16
REMARK                            x       y       z     vdW  Elec       q    Type
REMARK                         _______ _______ _______ _____ _____    ______ ____
ROOT
ATOM      1  N   UNL     1      33.589  -1.989  33.499  0.00  0.00    +0.000 NA
ATOM      2  C   UNL     1      34.315  -2.610  34.547  0.00  0.00    +0.000 A 
ATOM      3  N   UNL     1      35.013  -1.879  35.459  0.00  0.00    +0.000 NA
ATOM      4  C   UNL     1      35.697  -2.462  36.448  0.00  0.00    +0.000 A 
ATOM      5  C   UNL     1      36.464  -1.689  37.452  0.00  0.00    +0.000 C 
ATOM      6  C   UNL     1      35.701  -3.836  36.551  0.00  0.00    +0.000 A 
ATOM      7  C   UNL     1      35.009  -4.619  35.649  0.00  0.00    +0.000 A 
ATOM      8  C   UNL     1      35.000  -6.101  35.743  0.00  0.00    +0.000 C 
ATOM      9  C   UNL     1      34.302  -3.986  34.627  0.00  0.00    +0.000 A 
ENDROOT
BRANCH   1  13
ATOM     10  C   UNL     1      33.524   2.226  33.271  0.00  0.00    +0.000 A 
ATOM     11  C   UNL     1      34.322   1.474  32.443  0.00  0.00    +0.000 A 
ATOM     12  C   UNL     1      34.365   0.108  32.494  0.00  0.00    +0.000 A 
ATOM     13  C   UNL     1      33.589  -0.568  33.399  0.00  0.00    +0.000 A 
ATOM     14  C   UNL     1      32.783   0.170  34.235  0.00  0.00    +0.000 A 
ATOM     15  C   UNL     1      32.734   1.548  34.191  0.00  0.00    +0.000 A 
BRANCH  10  17
ATOM     16  C   UNL     1      33.968   4.228  34.548  0.00  0.00    +0.000 C 
ATOM     17  C   UNL     1      33.509   3.704  33.182  0.00  0.00    +0.000 C 
ENDBRANCH  10  17
ENDBRANCH   1  13
BRANCH   9  18
ATOM     18  C   UNL     1      33.567  -4.806  33.668  0.00  0.00    +0.000 C 
ATOM     19  N   UNL     1      34.164  -5.259  32.484  0.00  0.00    +0.000 NA
ATOM     20  O   UNL     1      32.376  -5.097  33.934  0.00  0.00    +0.000 OA
ENDBRANCH   9  18
TORSDOF 3
ENDMDL
MODEL 10
REMARK VINA RESULT:      -6.1      5.104      8.375
REMARK  Name = 
REMARK  3 active torsions:
REMARK  status: ('A' for Active; 'I' for Inactive)
REMARK    1  A    between atoms: C_2  and  C_3
REMARK    2  A    between atoms: C_6  and  N_7
REMARK    3  A    between atoms: C_15  and  C_16
REMARK                            x       y       z     vdW  Elec       q    Type
REMARK                         _______ _______ _______ _____ _____    ______ ____
ROOT
ATOM      1  N   UNL     1      21.514   9.681  37.166  0.00  0.00    +0.000 NA
ATOM      2  C   UNL     1      20.797  10.854  37.517  0.00  0.00    +0.000 A 
ATOM      3  N   UNL     1      21.428  11.947  38.026  0.00  0.00    +0.000 NA
ATOM      4  C   UNL     1      20.756  13.053  38.356  0.00  0.00    +0.000 A 
ATOM      5  C   UNL     1      21.420  14.255  38.912  0.00  0.00    +0.000 C 
ATOM      6  C   UNL     1      19.390  13.093  38.180  0.00  0.00    +0.000 A 
ATOM      7  C   UNL     1      18.706  12.010  37.668  0.00  0.00    +0.000 A 
ATOM      8  C   UNL     1      17.234  12.033  37.471  0.00  0.00    +0.000 C 
ATOM      9  C   UNL     1      19.432  10.867  37.331  0.00  0.00    +0.000 A 
ENDROOT
BRANCH   1  13
ATOM     10  C   UNL     1      25.710   9.622  37.629  0.00  0.00    +0.000 A 
ATOM     11  C   UNL     1      24.875   9.066  38.568  0.00  0.00    +0.000 A 
ATOM     12  C   UNL     1      23.513   9.070  38.447  0.00  0.00    +0.000 A 
ATOM     13  C   UNL     1      22.926   9.646  37.350  0.00  0.00    +0.000 A 
ATOM     14  C   UNL     1      23.747  10.208  36.400  0.00  0.00    +0.000 A 
ATOM     15  C   UNL     1      25.122  10.209  36.515  0.00  0.00    +0.000 A 
BRANCH  10  17
ATOM     16  C   UNL     1      27.530  10.757  38.740  0.00  0.00    +0.000 C 
ATOM     17  C   UNL     1      27.180   9.596  37.801  0.00  0.00    +0.000 C 
ENDBRANCH  10  17
ENDBRANCH   1  13
BRANCH   9  18
ATOM     18  C   UNL     1      18.717   9.715  36.788  0.00  0.00    +0.000 C 
ATOM     19  N   UNL     1      18.541   9.548  35.407  0.00  0.00    +0.000 NA
ATOM     20  O   UNL     1      18.261   8.871  37.596  0.00  0.00    +0.000 OA
ENDBRANCH   9  18
TORSDOF 3
ENDMDL
