MODEL 1
REMARK VINA RESULT:      -6.3      0.000      0.000
REMARK  Name = 
REMARK  3 active torsions:
REMARK  status: ('A' for Active; 'I' for Inactive)
REMARK    1  A    between atoms: C_3  and  C_4
REMARK    2  A    between atoms: N_6  and  C_7
REMARK    3  A    between atoms: C_17  and  N_18
REMARK                            x       y       z     vdW  Elec       q    Type
REMARK                         _______ _______ _______ _____ _____    ______ ____
ROOT
ATOM      1  C   UNL     1      33.768   2.100  36.351  0.00  0.00    +0.000 C 
ATOM      2  C   UNL     1      33.867   1.601  34.945  0.00  0.00    +0.000 A 
ATOM      3  C   UNL     1      33.833   2.511  33.913  0.00  0.00    +0.000 A 
ATOM      4  C   UNL     1      33.918   2.063  32.613  0.00  0.00    +0.000 A 
ATOM      5  C   UNL     1      34.038   0.686  32.392  0.00  0.00    +0.000 A 
ATOM      6  C   UNL     1      34.069  -0.205  33.445  0.00  0.00    +0.000 A 
ATOM      7  C   UNL     1      33.985   0.222  34.759  0.00  0.00    +0.000 A 
ENDROOT
BRANCH   3   8
ATOM      8  C   UNL     1      33.723   3.968  34.207  0.00  0.00    +0.000 C 
ATOM      9  O   UNL     1      32.717   4.561  33.772  0.00  0.00    +0.000 OA
ATOM     10  N   UNL     1      34.699   4.648  34.928  0.00  0.00    +0.000 NA
BRANCH  10  11
ATOM     11  C   UNL     1      34.614   6.147  35.222  0.00  0.00    +0.000 C 
ATOM     12  C   UNL     1      36.160   6.496  34.927  0.00  0.00    +0.000 C 
ATOM     13  C   UNL     1      36.306   7.744  36.003  0.00  0.00    +0.000 C 
ATOM     14  C   UNL     1      34.731   8.219  36.088  0.00  0.00    +0.000 C 
ATOM     15  C   UNL     1      34.162   7.571  37.218  0.00  0.00    +0.000 C 
ATOM     16  C   UNL     1      34.713   6.053  36.913  0.00  0.00    +0.000 C 
ATOM     17  C   UNL     1      36.216   6.574  37.138  0.00  0.00    +0.000 C 
ENDBRANCH  10  11
ENDBRANCH   3   8
BRANCH   7  18
ATOM     18  N   UNL     1      34.039  -0.672  35.861  0.00  0.00    +0.000 N 
ATOM     19  O   UNL     1      35.082  -1.072  36.396  0.00  0.00    +0.000 OA
ATOM     20  O   UNL     1      32.855  -1.139  36.370  0.00  0.00    +0.000 OA
ENDBRANCH   7  18
TORSDOF 3
ENDMDL
MODEL 2
REMARK VINA RESULT:      -6.2     19.553     21.186
REMARK  Name = 
REMARK  3 active torsions:
REMARK  status: ('A' for Active; 'I' for Inactive)
REMARK    1  A    between atoms: C_3  and  C_4
REMARK    2  A    between atoms: N_6  and  C_7
REMARK    3  A    between atoms: C_17  and  N_18
REMARK                            x       y       z     vdW  Elec       q    Type
REMARK                         _______ _______ _______ _____ _____    ______ ____
ROOT
ATOM      1  C   UNL     1      20.317  -9.218  26.371  0.00  0.00    +0.000 C 
ATOM      2  C   UNL     1      19.760  -7.831  26.403  0.00  0.00    +0.000 A 
ATOM      3  C   UNL     1      20.442  -6.827  25.756  0.00  0.00    +0.000 A 
ATOM      4  C   UNL     1      19.941  -5.544  25.782  0.00  0.00    +0.000 A 
ATOM      5  C   UNL     1      18.746  -5.311  26.473  0.00  0.00    +0.000 A 
ATOM      6  C   UNL     1      18.082  -6.337  27.114  0.00  0.00    +0.000 A 
ATOM      7  C   UNL     1      18.567  -7.634  27.101  0.00  0.00    +0.000 A 
ENDROOT
BRANCH   3   8
ATOM      8  C   UNL     1      21.702  -7.133  25.020  0.00  0.00    +0.000 C 
ATOM      9  O   UNL     1      22.753  -6.631  25.460  0.00  0.00    +0.000 OA
ATOM     10  N   UNL     1      21.712  -7.939  23.886  0.00  0.00    +0.000 NA
BRANCH  10  11
ATOM     11  C   UNL     1      22.990  -8.249  23.106  0.00  0.00    +0.000 C 
ATOM     12  C   UNL     1      22.460  -7.775  21.659  0.00  0.00    +0.000 C 
ATOM     13  C   UNL     1      23.350  -8.833  20.749  0.00  0.00    +0.000 C 
ATOM     14  C   UNL     1      24.599  -9.105  21.787  0.00  0.00    +0.000 C 
ATOM     15  C   UNL     1      24.289 -10.291  22.508  0.00  0.00    +0.000 C 
ATOM     16  C   UNL     1      22.741  -9.916  22.913  0.00  0.00    +0.000 C 
ATOM     17  C   UNL     1      22.342  -9.964  21.357  0.00  0.00    +0.000 C 
ENDBRANCH  10  11
ENDBRANCH   3   8
BRANCH   7  18
ATOM     18  N   UNL     1      17.890  -8.711  27.731  0.00  0.00    +0.000 N 
ATOM     19  O   UNL     1      16.995  -9.389  27.207  0.00  0.00    +0.000 OA
ATOM     20  O   UNL     1      18.241  -9.026  29.020  0.00  0.00    +0.000 OA
ENDBRANCH   7  18
TORSDOF 3
ENDMDL
MODEL 3
REMARK VINA RESULT:      -6.1     20.714     23.034
REMARK  Name = 
REMARK  3 active torsions:
REMARK  status: ('A' for Active; 'I' for Inactive)
REMARK    1  A    between atoms: C_3  and  C_4
REMARK    2  A    between atoms: N_6  and  C_7
REMARK    3  A    between atoms: C_17  and  N_18
REMARK                            x       y       z     vdW  Elec       q    Type
REMARK                         _______ _______ _______ _____ _____    ______ ____
ROOT
ATOM      1  C   UNL     1      26.955  22.912  27.742  0.00  0.00    +0.000 C 
ATOM      2  C   UNL     1      28.117  22.836  28.679  0.00  0.00    +0.000 A 
ATOM      3  C   UNL     1      29.390  22.827  28.159  0.00  0.00    +0.000 A 
ATOM      4  C   UNL     1      30.469  22.752  29.012  0.00  0.00    +0.000 A 
ATOM      5  C   UNL     1      30.224  22.689  30.389  0.00  0.00    +0.000 A 
ATOM      6  C   UNL     1      28.937  22.700  30.884  0.00  0.00    +0.000 A 
ATOM      7  C   UNL     1      27.838  22.774  30.046  0.00  0.00    +0.000 A 
ENDROOT
BRANCH   3   8
ATOM      8  C   UNL     1      29.595  22.913  26.685  0.00  0.00    +0.000 C 
ATOM      9  O   UNL     1      30.013  21.891  26.108  0.00  0.00    +0.000 OA
ATOM     10  N   UNL     1      29.341  24.083  25.976  0.00  0.00    +0.000 NA
BRANCH  10  11
ATOM     11  C   UNL     1      29.564  24.198  24.467  0.00  0.00    +0.000 C 
ATOM     12  C   UNL     1      29.956  25.761  24.442  0.00  0.00    +0.000 C 
ATOM     13  C   UNL     1      29.358  26.108  22.940  0.00  0.00    +0.000 C 
ATOM     14  C   UNL     1      29.439  24.610  22.259  0.00  0.00    +0.000 C 
ATOM     15  C   UNL     1      28.158  24.013  22.416  0.00  0.00    +0.000 C 
ATOM     16  C   UNL     1      27.938  24.357  24.009  0.00  0.00    +0.000 C 
ATOM     17  C   UNL     1      27.898  25.922  23.646  0.00  0.00    +0.000 C 
ENDBRANCH  10  11
ENDBRANCH   3   8
BRANCH   7  18
ATOM     18  N   UNL     1      26.504  22.813  30.532  0.00  0.00    +0.000 N 
ATOM     19  O   UNL     1      25.858  23.848  30.744  0.00  0.00    +0.000 OA
ATOM     20  O   UNL     1      25.880  21.620  30.797  0.00  0.00    +0.000 OA
ENDBRANCH   7  18
TORSDOF 3
ENDMDL
MODEL 4
REMARK VINA RESULT:      -6.1     21.381     23.845
REMARK  Name = 
REMARK  3 active torsions:
REMARK  status: ('A' for Active; 'I' for Inactive)
REMARK    1  A    between atoms: C_3  and  C_4
REMARK    2  A    between atoms: N_6  and  C_7
REMARK    3  A    between atoms: C_17  and  N_18
REMARK                            x       y       z     vdW  Elec       q    Type
REMARK                         _______ _______ _______ _____ _____    ______ ____
ROOT
ATOM      1  C   UNL     1      29.974  24.322  24.021  0.00  0.00    +0.000 C 
ATOM      2  C   UNL     1      28.566  23.985  23.649  0.00  0.00    +0.000 A 
ATOM      3  C   UNL     1      27.768  23.352  24.574  0.00  0.00    +0.000 A 
ATOM      4  C   UNL     1      26.470  23.032  24.241  0.00  0.00    +0.000 A 
ATOM      5  C   UNL     1      26.009  23.369  22.962  0.00  0.00    +0.000 A 
ATOM      6  C   UNL     1      26.831  24.004  22.054  0.00  0.00    +0.000 A 
ATOM      7  C   UNL     1      28.138  24.335  22.366  0.00  0.00    +0.000 A 
ENDROOT
BRANCH   3   8
ATOM      8  C   UNL     1      28.304  23.032  25.928  0.00  0.00    +0.000 C 
ATOM      9  O   UNL     1      29.226  22.197  25.991  0.00  0.00    +0.000 OA
ATOM     10  N   UNL     1      27.797  23.629  27.078  0.00  0.00    +0.000 NA
BRANCH  10  11
ATOM     11  C   UNL     1      28.320  23.300  28.477  0.00  0.00    +0.000 C 
ATOM     12  C   UNL     1      27.323  22.068  28.776  0.00  0.00    +0.000 C 
ATOM     13  C   UNL     1      27.223  22.269  30.415  0.00  0.00    +0.000 C 
ATOM     14  C   UNL     1      28.653  23.040  30.686  0.00  0.00    +0.000 C 
ATOM     15  C   UNL     1      28.378  24.435  30.695  0.00  0.00    +0.000 C 
ATOM     16  C   UNL     1      27.472  24.500  29.325  0.00  0.00    +0.000 C 
ATOM     17  C   UNL     1      26.353  23.600  30.045  0.00  0.00    +0.000 C 
ENDBRANCH  10  11
ENDBRANCH   3   8
BRANCH   7  18
ATOM     18  N   UNL     1      28.996  25.010  21.458  0.00  0.00    +0.000 N 
ATOM     19  O   UNL     1      29.759  24.452  20.657  0.00  0.00    +0.000 OA
ATOM     20  O   UNL     1      28.994  26.382  21.470  0.00  0.00    +0.000 OA
ENDBRANCH   7  18
TORSDOF 3
ENDMDL
MODEL 5
REMARK VINA RESULT:      -5.8      6.035      8.853
REMARK  Name = 
REMARK  3 active torsions:
REMARK  status: ('A' for Active; 'I' for Inactive)
REMARK    1  A    between atoms: C_3  and  C_4
REMARK    2  A    between atoms: N_6  and  C_7
REMARK    3  A    between atoms: C_17  and  N_18
REMARK                            x       y       z     vdW  Elec       q    Type
REMARK                         _______ _______ _______ _____ _____    ______ ____
ROOT
ATOM      1  C   UNL     1      31.467  -6.308  32.902  0.00  0.00    +0.000 C 
ATOM      2  C   UNL     1      32.275  -6.179  31.651  0.00  0.00    +0.000 A 
ATOM      3  C   UNL     1      33.392  -5.376  31.662  0.00  0.00    +0.000 A 
ATOM      4  C   UNL     1      34.142  -5.245  30.514  0.00  0.00    +0.000 A 
ATOM      5  C   UNL     1      33.734  -5.942  29.370  0.00  0.00    +0.000 A 
ATOM      6  C   UNL     1      32.609  -6.740  29.387  0.00  0.00    +0.000 A 
ATOM      7  C   UNL     1      31.840  -6.887  30.529  0.00  0.00    +0.000 A 
ENDROOT
BRANCH   3   8
ATOM      8  C   UNL     1      33.792  -4.670  32.912  0.00  0.00    +0.000 C 
ATOM      9  O   UNL     1      34.668  -5.209  33.615  0.00  0.00    +0.000 OA
ATOM     10  N   UNL     1      33.211  -3.463  33.292  0.00  0.00    +0.000 NA
BRANCH  10  11
ATOM     11  C   UNL     1      33.593  -2.734  34.580  0.00  0.00    +0.000 C 
ATOM     12  C   UNL     1      32.093  -2.442  35.095  0.00  0.00    +0.000 C 
ATOM     13  C   UNL     1      32.411  -1.024  35.885  0.00  0.00    +0.000 C 
ATOM     14  C   UNL     1      34.010  -1.243  36.213  0.00  0.00    +0.000 C 
ATOM     15  C   UNL     1      34.739  -0.601  35.175  0.00  0.00    +0.000 C 
ATOM     16  C   UNL     1      33.906  -1.213  33.897  0.00  0.00    +0.000 C 
ATOM     17  C   UNL     1      32.603  -0.409  34.385  0.00  0.00    +0.000 C 
ENDBRANCH  10  11
ENDBRANCH   3   8
BRANCH   7  18
ATOM     18  N   UNL     1      30.693  -7.722  30.579  0.00  0.00    +0.000 N 
ATOM     19  O   UNL     1      30.720  -8.954  30.711  0.00  0.00    +0.000 OA
ATOM     20  O   UNL     1      29.461  -7.131  30.463  0.00  0.00    +0.000 OA
ENDBRANCH   7  18
TORSDOF 3
ENDMDL
MODEL 6
REMARK VINA RESULT:      -5.8     20.773     23.699
REMARK  Name = 
REMARK  3 active torsions:
REMARK  status: ('A' for Active; 'I' for Inactive)
REMARK    1  A    between atoms: C_3  and  C_4
REMARK    2  A    between atoms: N_6  and  C_7
REMARK    3  A    between atoms: C_17  and  N_18
REMARK                            x       y       z     vdW  Elec       q    Type
REMARK                         _______ _______ _______ _____ _____    ______ ____
ROOT
ATOM      1  C   UNL     1      19.154  -9.485  25.544  0.00  0.00    +0.000 C 
ATOM      2  C   UNL     1      19.097  -8.021  25.840  0.00  0.00    +0.000 A 
ATOM      3  C   UNL     1      17.951  -7.500  26.394  0.00  0.00    +0.000 A 
ATOM      4  C   UNL     1      17.885  -6.151  26.668  0.00  0.00    +0.000 A 
ATOM      5  C   UNL     1      18.999  -5.357  26.368  0.00  0.00    +0.000 A 
ATOM      6  C   UNL     1      20.136  -5.906  25.813  0.00  0.00    +0.000 A 
ATOM      7  C   UNL     1      20.225  -7.258  25.530  0.00  0.00    +0.000 A 
ENDROOT
BRANCH   3   8
ATOM      8  C   UNL     1      16.800  -8.394  26.709  0.00  0.00    +0.000 C 
ATOM      9  O   UNL     1      16.896  -9.108  27.725  0.00  0.00    +0.000 OA
ATOM     10  N   UNL     1      15.666  -8.442  25.904  0.00  0.00    +0.000 NA
BRANCH  10  11
ATOM     11  C   UNL     1      14.485  -9.367  26.198  0.00  0.00    +0.000 C 
ATOM     12  C   UNL     1      14.293  -9.927  24.699  0.00  0.00    +0.000 C 
ATOM     13  C   UNL     1      12.657 -10.166  24.768  0.00  0.00    +0.000 C 
ATOM     14  C   UNL     1      12.476 -10.360  26.393  0.00  0.00    +0.000 C 
ATOM     15  C   UNL     1      12.116  -9.092  26.926  0.00  0.00    +0.000 C 
ATOM     16  C   UNL     1      13.262  -8.191  26.167  0.00  0.00    +0.000 C 
ATOM     17  C   UNL     1      12.573  -8.536  24.757  0.00  0.00    +0.000 C 
ENDBRANCH  10  11
ENDBRANCH   3   8
BRANCH   7  18
ATOM     18  N   UNL     1      21.392  -7.852  24.981  0.00  0.00    +0.000 N 
ATOM     19  O   UNL     1      22.361  -8.250  25.643  0.00  0.00    +0.000 OA
ATOM     20  O   UNL     1      21.466  -7.989  23.619  0.00  0.00    +0.000 OA
ENDBRANCH   7  18
TORSDOF 3
ENDMDL
MODEL 7
REMARK VINA RESULT:      -5.7     19.085     20.681
REMARK  Name = 
REMARK  3 active torsions:
REMARK  status: ('A' for Active; 'I' for Inactive)
REMARK    1  A    between atoms: C_3  and  C_4
REMARK    2  A    between atoms: N_6  and  C_7
REMARK    3  A    between atoms: C_17  and  N_18
REMARK                            x       y       z     vdW  Elec       q    Type
REMARK                         _______ _______ _______ _____ _____    ______ ____
ROOT
ATOM      1  C   UNL     1      23.396   2.942  16.167  0.00  0.00    +0.000 C 
ATOM      2  C   UNL     1      23.941   1.646  16.674  0.00  0.00    +0.000 A 
ATOM      3  C   UNL     1      25.303   1.508  16.814  0.00  0.00    +0.000 A 
ATOM      4  C   UNL     1      25.818   0.317  17.277  0.00  0.00    +0.000 A 
ATOM      5  C   UNL     1      24.925  -0.716  17.590  0.00  0.00    +0.000 A 
ATOM      6  C   UNL     1      23.564  -0.550  17.440  0.00  0.00    +0.000 A 
ATOM      7  C   UNL     1      23.024   0.637  16.977  0.00  0.00    +0.000 A 
ENDROOT
BRANCH   3   8
ATOM      8  C   UNL     1      26.207   2.646  16.483  0.00  0.00    +0.000 C 
ATOM      9  O   UNL     1      26.852   2.569  15.420  0.00  0.00    +0.000 OA
ATOM     10  N   UNL     1      26.338   3.748  17.322  0.00  0.00    +0.000 NA
BRANCH  10  11
ATOM     11  C   UNL     1      27.274   4.916  17.010  0.00  0.00    +0.000 C 
ATOM     12  C   UNL     1      27.343   5.520  18.503  0.00  0.00    +0.000 C 
ATOM     13  C   UNL     1      27.545   7.107  18.082  0.00  0.00    +0.000 C 
ATOM     14  C   UNL     1      28.222   6.913  16.593  0.00  0.00    +0.000 C 
ATOM     15  C   UNL     1      27.169   6.998  15.643  0.00  0.00    +0.000 C 
ATOM     16  C   UNL     1      26.111   5.979  16.381  0.00  0.00    +0.000 C 
ATOM     17  C   UNL     1      25.988   7.018  17.600  0.00  0.00    +0.000 C 
ENDBRANCH  10  11
ENDBRANCH   3   8
BRANCH   7  18
ATOM     18  N   UNL     1      21.626   0.842  16.837  0.00  0.00    +0.000 N 
ATOM     19  O   UNL     1      20.882   1.273  17.729  0.00  0.00    +0.000 OA
ATOM     20  O   UNL     1      21.047   0.532  15.633  0.00  0.00    +0.000 OA
ENDBRANCH   7  18
TORSDOF 3
ENDMDL
MODEL 8
REMARK VINA RESULT:      -5.7     22.122     24.268
REMARK  Name = 
REMARK  3 active torsions:
REMARK  status: ('A' for Active; 'I' for Inactive)
REMARK    1  A    between atoms: C_3  and  C_4
REMARK    2  A    between atoms: N_6  and  C_7
REMARK    3  A    between atoms: C_17  and  N_18
REMARK                            x       y       z     vdW  Elec       q    Type
REMARK                         _______ _______ _______ _____ _____    ______ ____
ROOT
ATOM      1  C   UNL     1      28.386  25.407  24.718  0.00  0.00    +0.000 C 
ATOM      2  C   UNL     1      27.444  24.608  23.876  0.00  0.00    +0.000 A 
ATOM      3  C   UNL     1      26.346  24.032  24.472  0.00  0.00    +0.000 A 
ATOM      4  C   UNL     1      25.473  23.290  23.708  0.00  0.00    +0.000 A 
ATOM      5  C   UNL     1      25.741  23.150  22.341  0.00  0.00    +0.000 A 
ATOM      6  C   UNL     1      26.849  23.738  21.769  0.00  0.00    +0.000 A 
ATOM      7  C   UNL     1      27.740  24.488  22.517  0.00  0.00    +0.000 A 
ENDROOT
BRANCH   3   8
ATOM      8  C   UNL     1      26.099  24.227  25.930  0.00  0.00    +0.000 C 
ATOM      9  O   UNL     1      25.349  25.165  26.259  0.00  0.00    +0.000 OA
ATOM     10  N   UNL     1      26.685  23.407  26.889  0.00  0.00    +0.000 NA
BRANCH  10  11
ATOM     11  C   UNL     1      26.460  23.603  28.389  0.00  0.00    +0.000 C 
ATOM     12  C   UNL     1      27.710  24.588  28.650  0.00  0.00    +0.000 C 
ATOM     13  C   UNL     1      28.024  24.126  30.207  0.00  0.00    +0.000 C 
ATOM     14  C   UNL     1      26.533  23.576  30.637  0.00  0.00    +0.000 C 
ATOM     15  C   UNL     1      26.533  22.170  30.428  0.00  0.00    +0.000 C 
ATOM     16  C   UNL     1      27.183  22.162  28.918  0.00  0.00    +0.000 C 
ATOM     17  C   UNL     1      28.554  22.740  29.526  0.00  0.00    +0.000 C 
ENDBRANCH  10  11
ENDBRANCH   3   8
BRANCH   7  18
ATOM     18  N   UNL     1      28.875  25.125  21.947  0.00  0.00    +0.000 N 
ATOM     19  O   UNL     1      29.142  26.329  22.063  0.00  0.00    +0.000 OA
ATOM     20  O   UNL     1      29.738  24.359  21.206  0.00  0.00    +0.000 OA
ENDBRANCH   7  18
TORSDOF 3
ENDMDL
MODEL 9
REMARK VINA RESULT:      -5.7     22.110     23.655
REMARK  Name = 
REMARK  3 active torsions:
REMARK  status: ('A' for Active; 'I' for Inactive)
REMARK    1  A    between atoms: C_3  and  C_4
REMARK    2  A    between atoms: N_6  and  C_7
REMARK    3  A    between atoms: C_17  and  N_18
REMARK                            x       y       z     vdW  Elec       q    Type
REMARK                         _______ _______ _______ _____ _____    ______ ____
ROOT
ATOM      1  C   UNL     1      26.214  23.836  25.544  0.00  0.00    +0.000 C 
ATOM      2  C   UNL     1      27.598  23.395  25.189  0.00  0.00    +0.000 A 
ATOM      3  C   UNL     1      28.468  23.060  26.201  0.00  0.00    +0.000 A 
ATOM      4  C   UNL     1      29.747  22.657  25.887  0.00  0.00    +0.000 A 
ATOM      5  C   UNL     1      30.115  22.603  24.537  0.00  0.00    +0.000 A 
ATOM      6  C   UNL     1      29.222  22.944  23.542  0.00  0.00    +0.000 A 
ATOM      7  C   UNL     1      27.932  23.352  23.834  0.00  0.00    +0.000 A 
ENDROOT
BRANCH   3   8
ATOM      8  C   UNL     1      28.019  23.119  27.621  0.00  0.00    +0.000 C 
ATOM      9  O   UNL     1      27.794  22.034  28.192  0.00  0.00    +0.000 OA
ATOM     10  N   UNL     1      27.848  24.328  28.288  0.00  0.00    +0.000 NA
BRANCH  10  11
ATOM     11  C   UNL     1      27.370  24.410  29.738  0.00  0.00    +0.000 C 
ATOM     12  C   UNL     1      25.796  24.555  29.420  0.00  0.00    +0.000 C 
ATOM     13  C   UNL     1      25.397  25.476  30.735  0.00  0.00    +0.000 C 
ATOM     14  C   UNL     1      26.605  25.029  31.761  0.00  0.00    +0.000 C 
ATOM     15  C   UNL     1      27.635  26.001  31.639  0.00  0.00    +0.000 C 
ATOM     16  C   UNL     1      27.709  26.052  29.997  0.00  0.00    +0.000 C 
ATOM     17  C   UNL     1      26.221  26.657  29.967  0.00  0.00    +0.000 C 
ENDBRANCH  10  11
ENDBRANCH   3   8
BRANCH   7  18
ATOM     18  N   UNL     1      26.987  23.686  22.828  0.00  0.00    +0.000 N 
ATOM     19  O   UNL     1      26.050  22.958  22.468  0.00  0.00    +0.000 OA
ATOM     20  O   UNL     1      27.119  24.895  22.195  0.00  0.00    +0.000 OA
ENDBRANCH   7  18
TORSDOF 3
ENDMDL
MODEL 10
REMARK VINA RESULT:      -5.5     22.142     23.798
REMARK  Name = 
REMARK  3 active torsions:
REMARK  status: ('A' for Active; 'I' for Inactive)
REMARK    1  A    between atoms: C_3  and  C_4
REMARK    2  A    between atoms: N_6  and  C_7
REMARK    3  A    between atoms: C_17  and  N_18
REMARK                            x       y       z     vdW  Elec       q    Type
REMARK                         _______ _______ _______ _____ _____    ______ ____
ROOT
ATOM      1  C   UNL     1      29.239  24.252  23.229  0.00  0.00    +0.000 C 
ATOM      2  C   UNL     1      28.926  23.535  24.504  0.00  0.00    +0.000 A 
ATOM      3  C   UNL     1      29.959  23.205  25.350  0.00  0.00    +0.000 A 
ATOM      4  C   UNL     1      29.684  22.540  26.525  0.00  0.00    +0.000 A 
ATOM      5  C   UNL     1      28.351  22.226  26.814  0.00  0.00    +0.000 A 
ATOM      6  C   UNL     1      27.334  22.569  25.948  0.00  0.00    +0.000 A 
ATOM      7  C   UNL     1      27.587  23.236  24.762  0.00  0.00    +0.000 A 
ENDROOT
BRANCH   3   8
ATOM      8  C   UNL     1      31.359  23.579  25.001  0.00  0.00    +0.000 C 
ATOM      9  O   UNL     1      31.977  22.818  24.232  0.00  0.00    +0.000 OA
ATOM     10  N   UNL     1      31.963  24.724  25.514  0.00  0.00    +0.000 NA
BRANCH  10  11
ATOM     11  C   UNL     1      33.404  25.114  25.184  0.00  0.00    +0.000 C 
ATOM     12  C   UNL     1      34.079  24.534  26.528  0.00  0.00    +0.000 C 
ATOM     13  C   UNL     1      35.316  25.628  26.634  0.00  0.00    +0.000 C 
ATOM     14  C   UNL     1      35.442  26.056  25.049  0.00  0.00    +0.000 C 
ATOM     15  C   UNL     1      34.672  27.238  24.875  0.00  0.00    +0.000 C 
ATOM     16  C   UNL     1      33.311  26.742  25.652  0.00  0.00    +0.000 C 
ATOM     17  C   UNL     1      34.139  26.689  27.028  0.00  0.00    +0.000 C 
ENDBRANCH  10  11
ENDBRANCH   3   8
BRANCH   7  18
ATOM     18  N   UNL     1      26.556  23.623  23.865  0.00  0.00    +0.000 N 
ATOM     19  O   UNL     1      26.161  22.944  22.906  0.00  0.00    +0.000 OA
ATOM     20  O   UNL     1      25.955  24.840  24.060  0.00  0.00    +0.000 OA
ENDBRANCH   7  18
TORSDOF 3
ENDMDL
