MODEL 1
REMARK VINA RESULT:      -6.5      0.000      0.000
REMARK  Name = 
REMARK  4 active torsions:
REMARK  status: ('A' for Active; 'I' for Inactive)
REMARK    1  A    between atoms: C_2  and  C_4
REMARK    2  A    between atoms: C_4  and  C_5
REMARK    3  A    between atoms: C_5  and  C_6
REMARK    4  A    between atoms: C_9  and  C_10
REMARK                            x       y       z     vdW  Elec       q    Type
REMARK                         _______ _______ _______ _____ _____    ______ ____
ROOT
ATOM      1  C   UNL     1      33.758   3.474  34.441  0.00  0.00    +0.000 A 
ATOM      2  C   UNL     1      34.019   2.938  35.698  0.00  0.00    +0.000 A 
ATOM      3  C   UNL     1      34.059   1.561  35.880  0.00  0.00    +0.000 A 
ATOM      4  C   UNL     1      33.837   0.733  34.798  0.00  0.00    +0.000 A 
ATOM      5  C   UNL     1      33.582   1.244  33.564  0.00  0.00    +0.000 A 
ATOM      6  C   UNL     1      33.543   2.607  33.392  0.00  0.00    +0.000 A 
ENDROOT
BRANCH   4   7
ATOM      7  C   UNL     1      33.890  -0.735  35.041  0.00  0.00    +0.000 C 
ATOM      8  C   UNL     1      34.847  -1.073  36.158  0.00  0.00    +0.000 C 
ATOM      9  N   UNL     1      34.296  -1.437  33.841  0.00  0.00    +0.000 NA
ATOM     10  C   UNL     1      33.396  -2.525  33.672  0.00  0.00    +0.000 C 
ATOM     11  O   UNL     1      33.559  -3.422  32.806  0.00  0.00    +0.000 OA
ATOM     12  N   UNL     1      32.322  -2.437  34.606  0.00  0.00    +0.000 NA
ATOM     13  C   UNL     1      32.563  -1.274  35.364  0.00  0.00    +0.000 C 
ATOM     14  O   UNL     1      31.754  -0.784  36.191  0.00  0.00    +0.000 OA
ENDBRANCH   4   7
BRANCH   1  15
ATOM     15  C   UNL     1      33.712   4.949  34.232  0.00  0.00    +0.000 C 
BRANCH  15  16
ATOM     16  C   UNL     1      34.302   5.605  35.463  0.00  0.00    +0.000 C 
BRANCH  16  18
ATOM     17  C   UNL     1      35.766   7.629  35.601  0.00  0.00    +0.000 C 
ATOM     18  C   UNL     1      35.647   6.225  35.090  0.00  0.00    +0.000 C 
ATOM     19  C   UNL     1      36.799   5.343  35.490  0.00  0.00    +0.000 C 
ENDBRANCH  16  18
ENDBRANCH  15  16
ENDBRANCH   1  15
TORSDOF 4
ENDMDL
MODEL 2
REMARK VINA RESULT:      -6.3     22.531     25.455
REMARK  Name = 
REMARK  4 active torsions:
REMARK  status: ('A' for Active; 'I' for Inactive)
REMARK    1  A    between atoms: C_2  and  C_4
REMARK    2  A    between atoms: C_4  and  C_5
REMARK    3  A    between atoms: C_5  and  C_6
REMARK    4  A    between atoms: C_9  and  C_10
REMARK                            x       y       z     vdW  Elec       q    Type
REMARK                         _______ _______ _______ _____ _____    ______ ____
ROOT
ATOM      1  C   UNL     1      30.269  22.537  26.056  0.00  0.00    +0.000 A 
ATOM      2  C   UNL     1      28.886  22.594  25.921  0.00  0.00    +0.000 A 
ATOM      3  C   UNL     1      28.312  23.186  24.803  0.00  0.00    +0.000 A 
ATOM      4  C   UNL     1      29.133  23.717  23.828  0.00  0.00    +0.000 A 
ATOM      5  C   UNL     1      30.487  23.669  23.948  0.00  0.00    +0.000 A 
ATOM      6  C   UNL     1      31.046  23.081  25.058  0.00  0.00    +0.000 A 
ENDROOT
BRANCH   4   7
ATOM      7  C   UNL     1      28.475  24.342  22.648  0.00  0.00    +0.000 C 
ATOM      8  C   UNL     1      27.114  23.741  22.397  0.00  0.00    +0.000 C 
ATOM      9  N   UNL     1      29.291  24.179  21.462  0.00  0.00    +0.000 NA
ATOM     10  C   UNL     1      29.350  25.448  20.823  0.00  0.00    +0.000 C 
ATOM     11  O   UNL     1      29.858  25.619  19.685  0.00  0.00    +0.000 OA
ATOM     12  N   UNL     1      28.765  26.453  21.647  0.00  0.00    +0.000 NA
ATOM     13  C   UNL     1      28.336  25.794  22.816  0.00  0.00    +0.000 C 
ATOM     14  O   UNL     1      27.903  26.376  23.841  0.00  0.00    +0.000 OA
ENDBRANCH   4   7
BRANCH   1  15
ATOM     15  C   UNL     1      30.896  21.904  27.251  0.00  0.00    +0.000 C 
BRANCH  15  16
ATOM     16  C   UNL     1      31.737  22.958  27.940  0.00  0.00    +0.000 C 
BRANCH  16  18
ATOM     17  C   UNL     1      30.289  22.793  29.973  0.00  0.00    +0.000 C 
ATOM     18  C   UNL     1      31.690  22.714  29.446  0.00  0.00    +0.000 C 
ATOM     19  C   UNL     1      32.402  21.444  29.829  0.00  0.00    +0.000 C 
ENDBRANCH  16  18
ENDBRANCH  15  16
ENDBRANCH   1  15
TORSDOF 4
ENDMDL
MODEL 3
REMARK VINA RESULT:      -6.2     22.320     24.146
REMARK  Name = 
REMARK  4 active torsions:
REMARK  status: ('A' for Active; 'I' for Inactive)
REMARK    1  A    between atoms: C_2  and  C_4
REMARK    2  A    between atoms: C_4  and  C_5
REMARK    3  A    between atoms: C_5  and  C_6
REMARK    4  A    between atoms: C_9  and  C_10
REMARK                            x       y       z     vdW  Elec       q    Type
REMARK                         _______ _______ _______ _____ _____    ______ ____
ROOT
ATOM      1  C   UNL     1      29.367  23.013  25.558  0.00  0.00    +0.000 A 
ATOM      2  C   UNL     1      28.071  22.654  25.913  0.00  0.00    +0.000 A 
ATOM      3  C   UNL     1      27.697  22.600  27.250  0.00  0.00    +0.000 A 
ATOM      4  C   UNL     1      28.630  22.907  28.221  0.00  0.00    +0.000 A 
ATOM      5  C   UNL     1      29.900  23.258  27.888  0.00  0.00    +0.000 A 
ATOM      6  C   UNL     1      30.261  23.309  26.562  0.00  0.00    +0.000 A 
ENDROOT
BRANCH   4   7
ATOM      7  C   UNL     1      28.185  22.835  29.640  0.00  0.00    +0.000 C 
ATOM      8  C   UNL     1      29.358  22.910  30.587  0.00  0.00    +0.000 C 
ATOM      9  N   UNL     1      27.456  21.608  29.886  0.00  0.00    +0.000 NA
ATOM     10  C   UNL     1      26.276  21.962  30.597  0.00  0.00    +0.000 C 
ATOM     11  O   UNL     1      25.495  21.112  31.095  0.00  0.00    +0.000 OA
ATOM     12  N   UNL     1      26.130  23.379  30.651  0.00  0.00    +0.000 NA
ATOM     13  C   UNL     1      27.238  23.909  29.962  0.00  0.00    +0.000 C 
ATOM     14  O   UNL     1      27.380  25.123  29.672  0.00  0.00    +0.000 OA
ENDBRANCH   4   7
BRANCH   1  15
ATOM     15  C   UNL     1      29.780  23.074  24.127  0.00  0.00    +0.000 C 
BRANCH  15  16
ATOM     16  C   UNL     1      28.520  23.116  23.288  0.00  0.00    +0.000 C 
BRANCH  16  18
ATOM     17  C   UNL     1      27.201  25.241  23.353  0.00  0.00    +0.000 C 
ATOM     18  C   UNL     1      28.356  24.524  22.721  0.00  0.00    +0.000 C 
ATOM     19  C   UNL     1      29.644  25.301  22.774  0.00  0.00    +0.000 C 
ENDBRANCH  16  18
ENDBRANCH  15  16
ENDBRANCH   1  15
TORSDOF 4
ENDMDL
MODEL 4
REMARK VINA RESULT:      -6.2      4.164      7.201
REMARK  Name = 
REMARK  4 active torsions:
REMARK  status: ('A' for Active; 'I' for Inactive)
REMARK    1  A    between atoms: C_2  and  C_4
REMARK    2  A    between atoms: C_4  and  C_5
REMARK    3  A    between atoms: C_5  and  C_6
REMARK    4  A    between atoms: C_9  and  C_10
REMARK                            x       y       z     vdW  Elec       q    Type
REMARK                         _______ _______ _______ _____ _____    ______ ____
ROOT
ATOM      1  C   UNL     1      33.477   1.906  34.324  0.00  0.00    +0.000 A 
ATOM      2  C   UNL     1      33.618   3.139  33.693  0.00  0.00    +0.000 A 
ATOM      3  C   UNL     1      34.097   4.238  34.396  0.00  0.00    +0.000 A 
ATOM      4  C   UNL     1      34.431   4.090  35.727  0.00  0.00    +0.000 A 
ATOM      5  C   UNL     1      34.298   2.892  36.356  0.00  0.00    +0.000 A 
ATOM      6  C   UNL     1      33.823   1.810  35.653  0.00  0.00    +0.000 A 
ENDROOT
BRANCH   4   7
ATOM      7  C   UNL     1      34.939   5.295  36.440  0.00  0.00    +0.000 C 
ATOM      8  C   UNL     1      35.175   5.008  37.902  0.00  0.00    +0.000 C 
ATOM      9  N   UNL     1      34.003   6.394  36.318  0.00  0.00    +0.000 NA
ATOM     10  C   UNL     1      34.758   7.543  35.954  0.00  0.00    +0.000 C 
ATOM     11  O   UNL     1      34.267   8.700  35.913  0.00  0.00    +0.000 OA
ATOM     12  N   UNL     1      36.105   7.184  35.656  0.00  0.00    +0.000 NA
ATOM     13  C   UNL     1      36.184   5.789  35.839  0.00  0.00    +0.000 C 
ATOM     14  O   UNL     1      37.178   5.087  35.529  0.00  0.00    +0.000 OA
ENDBRANCH   4   7
BRANCH   1  15
ATOM     15  C   UNL     1      32.965   0.720  33.581  0.00  0.00    +0.000 C 
BRANCH  15  16
ATOM     16  C   UNL     1      34.113  -0.255  33.427  0.00  0.00    +0.000 C 
BRANCH  16  18
ATOM     17  C   UNL     1      33.563  -2.695  33.373  0.00  0.00    +0.000 C 
ATOM     18  C   UNL     1      33.806  -1.505  34.250  0.00  0.00    +0.000 C 
ATOM     19  C   UNL     1      34.849  -1.746  35.309  0.00  0.00    +0.000 C 
ENDBRANCH  16  18
ENDBRANCH  15  16
ENDBRANCH   1  15
TORSDOF 4
ENDMDL
MODEL 5
REMARK VINA RESULT:      -5.9     17.725     19.539
REMARK  Name = 
REMARK  4 active torsions:
REMARK  status: ('A' for Active; 'I' for Inactive)
REMARK    1  A    between atoms: C_2  and  C_4
REMARK    2  A    between atoms: C_4  and  C_5
REMARK    3  A    between atoms: C_5  and  C_6
REMARK    4  A    between atoms: C_9  and  C_10
REMARK                            x       y       z     vdW  Elec       q    Type
REMARK                         _______ _______ _______ _____ _____    ______ ____
ROOT
ATOM      1  C   UNL     1      21.840  -7.016  25.168  0.00  0.00    +0.000 A 
ATOM      2  C   UNL     1      20.866  -6.036  25.334  0.00  0.00    +0.000 A 
ATOM      3  C   UNL     1      19.643  -6.352  25.914  0.00  0.00    +0.000 A 
ATOM      4  C   UNL     1      19.408  -7.649  26.323  0.00  0.00    +0.000 A 
ATOM      5  C   UNL     1      20.351  -8.616  26.166  0.00  0.00    +0.000 A 
ATOM      6  C   UNL     1      21.559  -8.295  25.591  0.00  0.00    +0.000 A 
ENDROOT
BRANCH   4   7
ATOM      7  C   UNL     1      18.085  -7.941  26.939  0.00  0.00    +0.000 C 
ATOM      8  C   UNL     1      17.279  -6.680  27.131  0.00  0.00    +0.000 C 
ATOM      9  N   UNL     1      18.250  -8.598  28.219  0.00  0.00    +0.000 NA
ATOM     10  C   UNL     1      17.362  -9.708  28.233  0.00  0.00    +0.000 C 
ATOM     11  O   UNL     1      17.151 -10.403  29.260  0.00  0.00    +0.000 OA
ATOM     12  N   UNL     1      16.776  -9.898  26.948  0.00  0.00    +0.000 NA
ATOM     13  C   UNL     1      17.310  -8.887  26.125  0.00  0.00    +0.000 C 
ATOM     14  O   UNL     1      17.141  -8.819  24.883  0.00  0.00    +0.000 OA
ENDBRANCH   4   7
BRANCH   1  15
ATOM     15  C   UNL     1      23.155  -6.689  24.547  0.00  0.00    +0.000 C 
BRANCH  15  16
ATOM     16  C   UNL     1      23.107  -7.146  23.105  0.00  0.00    +0.000 C 
BRANCH  16  18
ATOM     17  C   UNL     1      25.599  -7.101  23.328  0.00  0.00    +0.000 C 
ATOM     18  C   UNL     1      24.423  -7.844  22.769  0.00  0.00    +0.000 C 
ATOM     19  C   UNL     1      24.398  -9.300  23.153  0.00  0.00    +0.000 C 
ENDBRANCH  16  18
ENDBRANCH  15  16
ENDBRANCH   1  15
TORSDOF 4
ENDMDL
MODEL 6
REMARK VINA RESULT:      -5.9     30.629     31.701
REMARK  Name = 
REMARK  4 active torsions:
REMARK  status: ('A' for Active; 'I' for Inactive)
REMARK    1  A    between atoms: C_2  and  C_4
REMARK    2  A    between atoms: C_4  and  C_5
REMARK    3  A    between atoms: C_5  and  C_6
REMARK    4  A    between atoms: C_9  and  C_10
REMARK                            x       y       z     vdW  Elec       q    Type
REMARK                         _______ _______ _______ _____ _____    ______ ____
ROOT
ATOM      1  C   UNL     1      30.320  22.390  11.468  0.00  0.00    +0.000 A 
ATOM      2  C   UNL     1      30.444  22.484  10.085  0.00  0.00    +0.000 A 
ATOM      3  C   UNL     1      31.581  22.005   9.447  0.00  0.00    +0.000 A 
ATOM      4  C   UNL     1      32.586  21.435  10.202  0.00  0.00    +0.000 A 
ATOM      5  C   UNL     1      32.479  21.337  11.554  0.00  0.00    +0.000 A 
ATOM      6  C   UNL     1      31.350  21.814  12.178  0.00  0.00    +0.000 A 
ENDROOT
BRANCH   4   7
ATOM      7  C   UNL     1      33.786  20.936   9.475  0.00  0.00    +0.000 C 
ATOM      8  C   UNL     1      33.523  20.827   7.993  0.00  0.00    +0.000 C 
ATOM      9  N   UNL     1      34.187  19.640   9.982  0.00  0.00    +0.000 NA
ATOM     10  C   UNL     1      35.593  19.694  10.189  0.00  0.00    +0.000 C 
ATOM     11  O   UNL     1      36.281  18.683  10.485  0.00  0.00    +0.000 OA
ATOM     12  N   UNL     1      36.075  21.024  10.016  0.00  0.00    +0.000 NA
ATOM     13  C   UNL     1      34.948  21.805   9.695  0.00  0.00    +0.000 C 
ATOM     14  O   UNL     1      34.952  23.059   9.613  0.00  0.00    +0.000 OA
ENDBRANCH   4   7
BRANCH   1  15
ATOM     15  C   UNL     1      29.105  22.900  12.165  0.00  0.00    +0.000 C 
BRANCH  15  16
ATOM     16  C   UNL     1      29.504  23.251  13.583  0.00  0.00    +0.000 C 
BRANCH  16  18
ATOM     17  C   UNL     1      28.667  25.309  14.733  0.00  0.00    +0.000 C 
ATOM     18  C   UNL     1      28.320  23.927  14.270  0.00  0.00    +0.000 C 
ATOM     19  C   UNL     1      27.077  23.875  13.422  0.00  0.00    +0.000 C 
ENDBRANCH  16  18
ENDBRANCH  15  16
ENDBRANCH   1  15
TORSDOF 4
ENDMDL
MODEL 7
REMARK VINA RESULT:      -5.9     24.662     26.097
REMARK  Name = 
REMARK  4 active torsions:
REMARK  status: ('A' for Active; 'I' for Inactive)
REMARK    1  A    between atoms: C_2  and  C_4
REMARK    2  A    between atoms: C_4  and  C_5
REMARK    3  A    between atoms: C_5  and  C_6
REMARK    4  A    between atoms: C_9  and  C_10
REMARK                            x       y       z     vdW  Elec       q    Type
REMARK                         _______ _______ _______ _____ _____    ______ ____
ROOT
ATOM      1  C   UNL     1      32.478  24.720  25.134  0.00  0.00    +0.000 A 
ATOM      2  C   UNL     1      31.817  23.585  24.674  0.00  0.00    +0.000 A 
ATOM      3  C   UNL     1      30.600  23.699  24.013  0.00  0.00    +0.000 A 
ATOM      4  C   UNL     1      30.055  24.952  23.820  0.00  0.00    +0.000 A 
ATOM      5  C   UNL     1      30.689  26.070  24.265  0.00  0.00    +0.000 A 
ATOM      6  C   UNL     1      31.894  25.948  24.917  0.00  0.00    +0.000 A 
ENDROOT
BRANCH   4   7
ATOM      7  C   UNL     1      28.750  25.026  23.108  0.00  0.00    +0.000 C 
ATOM      8  C   UNL     1      28.343  26.456  22.853  0.00  0.00    +0.000 C 
ATOM      9  N   UNL     1      27.712  24.367  23.874  0.00  0.00    +0.000 NA
ATOM     10  C   UNL     1      27.001  23.528  22.973  0.00  0.00    +0.000 C 
ATOM     11  O   UNL     1      25.942  22.927  23.287  0.00  0.00    +0.000 OA
ATOM     12  N   UNL     1      27.657  23.480  21.708  0.00  0.00    +0.000 NA
ATOM     13  C   UNL     1      28.793  24.304  21.830  0.00  0.00    +0.000 C 
ATOM     14  O   UNL     1      29.700  24.396  20.966  0.00  0.00    +0.000 OA
ENDBRANCH   4   7
BRANCH   1  15
ATOM     15  C   UNL     1      33.784  24.611  25.844  0.00  0.00    +0.000 C 
BRANCH  15  16
ATOM     16  C   UNL     1      34.809  25.378  25.036  0.00  0.00    +0.000 C 
BRANCH  16  18
ATOM     17  C   UNL     1      36.934  25.092  23.746  0.00  0.00    +0.000 C 
ATOM     18  C   UNL     1      35.930  24.422  24.635  0.00  0.00    +0.000 C 
ATOM     19  C   UNL     1      36.547  23.750  25.833  0.00  0.00    +0.000 C 
ENDBRANCH  16  18
ENDBRANCH  15  16
ENDBRANCH   1  15
TORSDOF 4
ENDMDL
MODEL 8
REMARK VINA RESULT:      -5.9     19.489     20.734
REMARK  Name = 
REMARK  4 active torsions:
REMARK  status: ('A' for Active; 'I' for Inactive)
REMARK    1  A    between atoms: C_2  and  C_4
REMARK    2  A    between atoms: C_4  and  C_5
REMARK    3  A    between atoms: C_5  and  C_6
REMARK    4  A    between atoms: C_9  and  C_10
REMARK                            x       y       z     vdW  Elec       q    Type
REMARK                         _______ _______ _______ _____ _____    ______ ____
ROOT
ATOM      1  C   UNL     1      25.346   4.251  17.927  0.00  0.00    +0.000 A 
ATOM      2  C   UNL     1      24.737   4.338  16.679  0.00  0.00    +0.000 A 
ATOM      3  C   UNL     1      23.640   3.543  16.374  0.00  0.00    +0.000 A 
ATOM      4  C   UNL     1      23.161   2.666  17.326  0.00  0.00    +0.000 A 
ATOM      5  C   UNL     1      23.745   2.570  18.550  0.00  0.00    +0.000 A 
ATOM      6  C   UNL     1      24.831   3.361  18.844  0.00  0.00    +0.000 A 
ENDROOT
BRANCH   4   7
ATOM      7  C   UNL     1      21.983   1.833  16.956  0.00  0.00    +0.000 C 
ATOM      8  C   UNL     1      21.936   0.559  17.763  0.00  0.00    +0.000 C 
ATOM      9  N   UNL     1      22.016   1.501  15.546  0.00  0.00    +0.000 NA
ATOM     10  C   UNL     1      20.716   1.757  15.030  0.00  0.00    +0.000 C 
ATOM     11  O   UNL     1      20.365   1.433  13.866  0.00  0.00    +0.000 OA
ATOM     12  N   UNL     1      19.910   2.415  16.004  0.00  0.00    +0.000 NA
ATOM     13  C   UNL     1      20.726   2.568  17.142  0.00  0.00    +0.000 C 
ATOM     14  O   UNL     1      20.410   3.236  18.158  0.00  0.00    +0.000 OA
ENDBRANCH   4   7
BRANCH   1  15
ATOM     15  C   UNL     1      26.523   5.099  18.266  0.00  0.00    +0.000 C 
BRANCH  15  16
ATOM     16  C   UNL     1      26.441   6.355  17.424  0.00  0.00    +0.000 C 
BRANCH  16  18
ATOM     17  C   UNL     1      28.007   7.180  19.192  0.00  0.00    +0.000 C 
ATOM     18  C   UNL     1      27.650   7.234  17.738  0.00  0.00    +0.000 C 
ATOM     19  C   UNL     1      28.810   6.935  16.825  0.00  0.00    +0.000 C 
ENDBRANCH  16  18
ENDBRANCH  15  16
ENDBRANCH   1  15
TORSDOF 4
ENDMDL
MODEL 9
REMARK VINA RESULT:      -5.8     19.318     20.633
REMARK  Name = 
REMARK  4 active torsions:
REMARK  status: ('A' for Active; 'I' for Inactive)
REMARK    1  A    between atoms: C_2  and  C_4
REMARK    2  A    between atoms: C_4  and  C_5
REMARK    3  A    between atoms: C_5  and  C_6
REMARK    4  A    between atoms: C_9  and  C_10
REMARK                            x       y       z     vdW  Elec       q    Type
REMARK                         _______ _______ _______ _____ _____    ______ ____
ROOT
ATOM      1  C   UNL     1      25.516   5.251  16.273  0.00  0.00    +0.000 A 
ATOM      2  C   UNL     1      24.824   4.882  17.423  0.00  0.00    +0.000 A 
ATOM      3  C   UNL     1      23.912   3.834  17.389  0.00  0.00    +0.000 A 
ATOM      4  C   UNL     1      23.702   3.164  16.200  0.00  0.00    +0.000 A 
ATOM      5  C   UNL     1      24.371   3.515  15.069  0.00  0.00    +0.000 A 
ATOM      6  C   UNL     1      25.272   4.553  15.112  0.00  0.00    +0.000 A 
ENDROOT
BRANCH   4   7
ATOM      7  C   UNL     1      22.716   2.049  16.211  0.00  0.00    +0.000 C 
ATOM      8  C   UNL     1      22.746   1.277  14.915  0.00  0.00    +0.000 C 
ATOM      9  N   UNL     1      21.376   2.553  16.431  0.00  0.00    +0.000 NA
ATOM     10  C   UNL     1      20.784   1.734  17.432  0.00  0.00    +0.000 C 
ATOM     11  O   UNL     1      19.570   1.811  17.750  0.00  0.00    +0.000 OA
ATOM     12  N   UNL     1      21.751   0.849  17.992  0.00  0.00    +0.000 NA
ATOM     13  C   UNL     1      22.961   1.126  17.326  0.00  0.00    +0.000 C 
ATOM     14  O   UNL     1      24.077   0.647  17.650  0.00  0.00    +0.000 OA
ENDBRANCH   4   7
BRANCH   1  15
ATOM     15  C   UNL     1      26.496   6.374  16.297  0.00  0.00    +0.000 C 
BRANCH  15  16
ATOM     16  C   UNL     1      26.398   7.039  17.653  0.00  0.00    +0.000 C 
BRANCH  16  18
ATOM     17  C   UNL     1      27.911   6.006  19.357  0.00  0.00    +0.000 C 
ATOM     18  C   UNL     1      27.785   7.053  18.292  0.00  0.00    +0.000 C 
ATOM     19  C   UNL     1      28.877   6.989  17.258  0.00  0.00    +0.000 C 
ENDBRANCH  16  18
ENDBRANCH  15  16
ENDBRANCH   1  15
TORSDOF 4
ENDMDL
MODEL 10
REMARK VINA RESULT:      -5.7     19.150     20.387
REMARK  Name = 
REMARK  4 active torsions:
REMARK  status: ('A' for Active; 'I' for Inactive)
REMARK    1  A    between atoms: C_2  and  C_4
REMARK    2  A    between atoms: C_4  and  C_5
REMARK    3  A    between atoms: C_5  and  C_6
REMARK    4  A    between atoms: C_9  and  C_10
REMARK                            x       y       z     vdW  Elec       q    Type
REMARK                         _______ _______ _______ _____ _____    ______ ____
ROOT
ATOM      1  C   UNL     1      15.603  10.401  39.017  0.00  0.00    +0.000 A 
ATOM      2  C   UNL     1      16.946  10.100  38.811  0.00  0.00    +0.000 A 
ATOM      3  C   UNL     1      17.651   9.355  39.749  0.00  0.00    +0.000 A 
ATOM      4  C   UNL     1      17.002   8.917  40.886  0.00  0.00    +0.000 A 
ATOM      5  C   UNL     1      15.690   9.205  41.099  0.00  0.00    +0.000 A 
ATOM      6  C   UNL     1      15.000   9.943  40.167  0.00  0.00    +0.000 A 
ENDROOT
BRANCH   4   7
ATOM      7  C   UNL     1      17.797   8.123  41.862  0.00  0.00    +0.000 C 
ATOM      8  C   UNL     1      17.131   8.091  43.215  0.00  0.00    +0.000 C 
ATOM      9  N   UNL     1      19.130   8.672  42.003  0.00  0.00    +0.000 NA
ATOM     10  C   UNL     1      20.038   7.581  41.920  0.00  0.00    +0.000 C 
ATOM     11  O   UNL     1      21.269   7.695  42.153  0.00  0.00    +0.000 OA
ATOM     12  N   UNL     1      19.356   6.387  41.546  0.00  0.00    +0.000 NA
ATOM     13  C   UNL     1      18.002   6.746  41.394  0.00  0.00    +0.000 C 
ATOM     14  O   UNL     1      17.114   5.990  40.927  0.00  0.00    +0.000 OA
ENDBRANCH   4   7
BRANCH   1  15
ATOM     15  C   UNL     1      14.837  11.199  38.019  0.00  0.00    +0.000 C 
BRANCH  15  16
ATOM     16  C   UNL     1      13.365  11.030  38.330  0.00  0.00    +0.000 C 
BRANCH  16  18
ATOM     17  C   UNL     1      11.083  11.293  37.340  0.00  0.00    +0.000 C 
ATOM     18  C   UNL     1      12.556  11.408  37.091  0.00  0.00    +0.000 C 
ATOM     19  C   UNL     1      12.968  12.748  36.543  0.00  0.00    +0.000 C 
ENDBRANCH  16  18
ENDBRANCH  15  16
ENDBRANCH   1  15
TORSDOF 4
ENDMDL
