MODEL 1
REMARK VINA RESULT:      -8.0      0.000      0.000
REMARK  Name = 
REMARK  7 active torsions:
REMARK  status: ('A' for Active; 'I' for Inactive)
REMARK    1  A    between atoms: C_2  and  O_3
REMARK    2  A    between atoms: O_3  and  C_4
REMARK    3  A    between atoms: C_7  and  N_8
REMARK    4  A    between atoms: N_8  and  C_9
REMARK    5  A    between atoms: C_10  and  S_11
REMARK    6  A    between atoms: S_11  and  C_12
REMARK    7  A    between atoms: N_20  and  C_21
REMARK                            x       y       z     vdW  Elec       q    Type
REMARK                         _______ _______ _______ _____ _____    ______ ____
ROOT
ATOM      1  C   UNL     1      36.416   4.136  14.680  0.00  0.00    +0.000 C 
ATOM      2  C   UNL     1      37.734   3.935  14.903  0.00  0.00    +0.000 C 
ATOM      3  C   UNL     1      37.896   2.525  15.132  0.00  0.00    +0.000 C 
ATOM      4  O   UNL     1      38.960   1.900  15.378  0.00  0.00    +0.000 OA
ATOM      5  N   UNL     1      36.639   1.861  15.043  0.00  0.00    +0.000 N 
ATOM      6  C   UNL     1      35.711   2.894  14.756  0.00  0.00    +0.000 C 
ATOM      7  O   UNL     1      34.468   2.649  14.609  0.00  0.00    +0.000 OA
ENDROOT
BRANCH   5   8
ATOM      8  C   UNL     1      36.341   0.487  15.198  0.00  0.00    +0.000 A 
ATOM      9  C   UNL     1      36.819  -0.444  14.300  0.00  0.00    +0.000 A 
ATOM     10  C   UNL     1      36.550  -1.793  14.419  0.00  0.00    +0.000 A 
ATOM     11  C   UNL     1      35.780  -2.256  15.461  0.00  0.00    +0.000 A 
ATOM     12  C   UNL     1      35.479  -3.718  15.605  0.00  0.00    +0.000 C 
ATOM     13  C   UNL     1      35.290  -1.348  16.371  0.00  0.00    +0.000 A 
ATOM     14  C   UNL     1      35.571   0.010  16.237  0.00  0.00    +0.000 A 
ENDBRANCH   5   8
BRANCH   1  15
ATOM     15  N   UNL     1      35.931   5.421  14.423  0.00  0.00    +0.000 NA
BRANCH  15  19
ATOM     16  C   UNL     1      34.217   7.060  10.911  0.00  0.00    +0.000 A 
ATOM     17  C   UNL     1      33.642   7.179  12.154  0.00  0.00    +0.000 A 
ATOM     18  C   UNL     1      34.190   6.653  13.284  0.00  0.00    +0.000 A 
ATOM     19  C   UNL     1      35.409   5.938  13.252  0.00  0.00    +0.000 A 
ATOM     20  C   UNL     1      35.964   5.833  12.002  0.00  0.00    +0.000 A 
ATOM     21  C   UNL     1      35.413   6.359  10.876  0.00  0.00    +0.000 A 
BRANCH  16  22
ATOM     22  O   UNL     1      33.644   7.599   9.789  0.00  0.00    +0.000 OA
BRANCH  22  24
ATOM     23  C   UNL     1      33.529   6.555   7.651  0.00  0.00    +0.000 C 
ATOM     24  C   UNL     1      34.306   7.509   8.542  0.00  0.00    +0.000 C 
ENDBRANCH  22  24
ENDBRANCH  16  22
ENDBRANCH  15  19
ENDBRANCH   1  15
BRANCH   2  25
ATOM     25  S   UNL     1      38.920   5.237  14.889  0.00  0.00    +0.000 S 
BRANCH  25  26
ATOM     26  C   UNL     1      39.623   5.626  16.450  0.00  0.00    +0.000 A 
ATOM     27  C   UNL     1      40.849   6.163  16.703  0.00  0.00    +0.000 A 
ATOM     28  C   UNL     1      41.343   6.445  17.958  0.00  0.00    +0.000 A 
ATOM     29  C   UNL     1      40.551   6.171  19.073  0.00  0.00    +0.000 A 
ATOM     30  C   UNL     1      39.323   5.635  18.848  0.00  0.00    +0.000 A 
ATOM     31  C   UNL     1      38.845   5.359  17.589  0.00  0.00    +0.000 A 
ENDBRANCH  25  26
ENDBRANCH   2  25
TORSDOF 7
ENDMDL
MODEL 2
REMARK VINA RESULT:      -8.0      4.043      8.511
REMARK  Name = 
REMARK  7 active torsions:
REMARK  status: ('A' for Active; 'I' for Inactive)
REMARK    1  A    between atoms: C_2  and  O_3
REMARK    2  A    between atoms: O_3  and  C_4
REMARK    3  A    between atoms: C_7  and  N_8
REMARK    4  A    between atoms: N_8  and  C_9
REMARK    5  A    between atoms: C_10  and  S_11
REMARK    6  A    between atoms: S_11  and  C_12
REMARK    7  A    between atoms: N_20  and  C_21
REMARK                            x       y       z     vdW  Elec       q    Type
REMARK                         _______ _______ _______ _____ _____    ______ ____
ROOT
ATOM      1  C   UNL     1      37.414   2.252  14.951  0.00  0.00    +0.000 C 
ATOM      2  C   UNL     1      38.538   2.582  14.276  0.00  0.00    +0.000 C 
ATOM      3  C   UNL     1      39.103   3.714  14.959  0.00  0.00    +0.000 C 
ATOM      4  O   UNL     1      40.154   4.344  14.670  0.00  0.00    +0.000 OA
ATOM      5  N   UNL     1      38.295   4.074  16.075  0.00  0.00    +0.000 N 
ATOM      6  C   UNL     1      37.228   3.138  16.058  0.00  0.00    +0.000 C 
ATOM      7  O   UNL     1      36.303   3.170  16.934  0.00  0.00    +0.000 OA
ENDROOT
BRANCH   5   8
ATOM      8  C   UNL     1      38.479   5.117  17.012  0.00  0.00    +0.000 A 
ATOM      9  C   UNL     1      38.061   6.400  16.729  0.00  0.00    +0.000 A 
ATOM     10  C   UNL     1      38.222   7.443  17.620  0.00  0.00    +0.000 A 
ATOM     11  C   UNL     1      38.816   7.226  18.841  0.00  0.00    +0.000 A 
ATOM     12  C   UNL     1      38.997   8.348  19.819  0.00  0.00    +0.000 C 
ATOM     13  C   UNL     1      39.241   5.954  19.149  0.00  0.00    +0.000 A 
ATOM     14  C   UNL     1      39.071   4.913  18.239  0.00  0.00    +0.000 A 
ENDBRANCH   5   8
BRANCH   1  15
ATOM     15  N   UNL     1      36.626   1.177  14.530  0.00  0.00    +0.000 NA
BRANCH  15  19
ATOM     16  C   UNL     1      36.167  -2.699  16.178  0.00  0.00    +0.000 A 
ATOM     17  C   UNL     1      36.514  -2.476  14.867  0.00  0.00    +0.000 A 
ATOM     18  C   UNL     1      36.662  -1.232  14.334  0.00  0.00    +0.000 A 
ATOM     19  C   UNL     1      36.466  -0.067  15.110  0.00  0.00    +0.000 A 
ATOM     20  C   UNL     1      36.122  -0.314  16.415  0.00  0.00    +0.000 A 
ATOM     21  C   UNL     1      35.974  -1.558  16.942  0.00  0.00    +0.000 A 
BRANCH  16  22
ATOM     22  O   UNL     1      36.025  -3.962  16.690  0.00  0.00    +0.000 OA
BRANCH  22  24
ATOM     23  C   UNL     1      38.247  -4.613  17.248  0.00  0.00    +0.000 C 
ATOM     24  C   UNL     1      37.008  -4.946  16.434  0.00  0.00    +0.000 C 
ENDBRANCH  22  24
ENDBRANCH  16  22
ENDBRANCH  15  19
ENDBRANCH   1  15
BRANCH   2  25
ATOM     25  S   UNL     1      39.092   1.710  12.849  0.00  0.00    +0.000 S 
BRANCH  25  26
ATOM     26  C   UNL     1      39.680   0.083  13.148  0.00  0.00    +0.000 A 
ATOM     27  C   UNL     1      39.732  -0.960  12.274  0.00  0.00    +0.000 A 
ATOM     28  C   UNL     1      40.207  -2.218  12.574  0.00  0.00    +0.000 A 
ATOM     29  C   UNL     1      40.677  -2.473  13.862  0.00  0.00    +0.000 A 
ATOM     30  C   UNL     1      40.637  -1.449  14.754  0.00  0.00    +0.000 A 
ATOM     31  C   UNL     1      40.159  -0.199  14.438  0.00  0.00    +0.000 A 
ENDBRANCH  25  26
ENDBRANCH   2  25
TORSDOF 7
ENDMDL
MODEL 3
REMARK VINA RESULT:      -7.8      2.142      7.337
REMARK  Name = 
REMARK  7 active torsions:
REMARK  status: ('A' for Active; 'I' for Inactive)
REMARK    1  A    between atoms: C_2  and  O_3
REMARK    2  A    between atoms: O_3  and  C_4
REMARK    3  A    between atoms: C_7  and  N_8
REMARK    4  A    between atoms: N_8  and  C_9
REMARK    5  A    between atoms: C_10  and  S_11
REMARK    6  A    between atoms: S_11  and  C_12
REMARK    7  A    between atoms: N_20  and  C_21
REMARK                            x       y       z     vdW  Elec       q    Type
REMARK                         _______ _______ _______ _____ _____    ______ ____
ROOT
ATOM      1  C   UNL     1      37.654   4.900  16.196  0.00  0.00    +0.000 C 
ATOM      2  C   UNL     1      37.255   4.866  14.904  0.00  0.00    +0.000 C 
ATOM      3  C   UNL     1      36.689   3.563  14.688  0.00  0.00    +0.000 C 
ATOM      4  O   UNL     1      36.194   3.102  13.627  0.00  0.00    +0.000 OA
ATOM      5  N   UNL     1      36.749   2.792  15.884  0.00  0.00    +0.000 N 
ATOM      6  C   UNL     1      37.363   3.652  16.831  0.00  0.00    +0.000 C 
ATOM      7  O   UNL     1      37.577   3.276  18.030  0.00  0.00    +0.000 OA
ENDROOT
BRANCH   5   8
ATOM      8  C   UNL     1      36.309   1.468  16.118  0.00  0.00    +0.000 A 
ATOM      9  C   UNL     1      37.040   0.391  15.662  0.00  0.00    +0.000 A 
ATOM     10  C   UNL     1      36.642  -0.914  15.873  0.00  0.00    +0.000 A 
ATOM     11  C   UNL     1      35.480  -1.183  16.559  0.00  0.00    +0.000 A 
ATOM     12  C   UNL     1      35.035  -2.595  16.796  0.00  0.00    +0.000 C 
ATOM     13  C   UNL     1      34.732  -0.125  17.024  0.00  0.00    +0.000 A 
ATOM     14  C   UNL     1      35.147   1.186  16.803  0.00  0.00    +0.000 A 
ENDBRANCH   5   8
BRANCH   1  15
ATOM     15  N   UNL     1      38.254   6.048  16.720  0.00  0.00    +0.000 NA
BRANCH  15  19
ATOM     16  C   UNL     1      41.776   6.396  19.049  0.00  0.00    +0.000 A 
ATOM     17  C   UNL     1      41.776   6.442  17.675  0.00  0.00    +0.000 A 
ATOM     18  C   UNL     1      40.646   6.330  16.924  0.00  0.00    +0.000 A 
ATOM     19  C   UNL     1      39.375   6.157  17.520  0.00  0.00    +0.000 A 
ATOM     20  C   UNL     1      39.401   6.115  18.891  0.00  0.00    +0.000 A 
ATOM     21  C   UNL     1      40.532   6.227  19.636  0.00  0.00    +0.000 A 
BRANCH  16  22
ATOM     22  O   UNL     1      42.929   6.511  19.781  0.00  0.00    +0.000 OA
BRANCH  22  24
ATOM     23  C   UNL     1      43.969   5.575  21.709  0.00  0.00    +0.000 C 
ATOM     24  C   UNL     1      42.875   6.496  21.194  0.00  0.00    +0.000 C 
ENDBRANCH  22  24
ENDBRANCH  16  22
ENDBRANCH  15  19
ENDBRANCH   1  15
BRANCH   2  25
ATOM     25  S   UNL     1      37.451   6.227  13.803  0.00  0.00    +0.000 S 
BRANCH  25  26
ATOM     26  C   UNL     1      36.035   6.624  12.844  0.00  0.00    +0.000 A 
ATOM     27  C   UNL     1      35.978   6.899  11.511  0.00  0.00    +0.000 A 
ATOM     28  C   UNL     1      34.829   7.205  10.817  0.00  0.00    +0.000 A 
ATOM     29  C   UNL     1      33.615   7.243  11.503  0.00  0.00    +0.000 A 
ATOM     30  C   UNL     1      33.643   6.972  12.834  0.00  0.00    +0.000 A 
ATOM     31  C   UNL     1      34.800   6.669  13.513  0.00  0.00    +0.000 A 
ENDBRANCH  25  26
ENDBRANCH   2  25
TORSDOF 7
ENDMDL
MODEL 4
REMARK VINA RESULT:      -7.8      2.956      6.711
REMARK  Name = 
REMARK  7 active torsions:
REMARK  status: ('A' for Active; 'I' for Inactive)
REMARK    1  A    between atoms: C_2  and  O_3
REMARK    2  A    between atoms: O_3  and  C_4
REMARK    3  A    between atoms: C_7  and  N_8
REMARK    4  A    between atoms: N_8  and  C_9
REMARK    5  A    between atoms: C_10  and  S_11
REMARK    6  A    between atoms: S_11  and  C_12
REMARK    7  A    between atoms: N_20  and  C_21
REMARK                            x       y       z     vdW  Elec       q    Type
REMARK                         _______ _______ _______ _____ _____    ______ ____
ROOT
ATOM      1  C   UNL     1      37.103   6.193  14.896  0.00  0.00    +0.000 C 
ATOM      2  C   UNL     1      37.016   4.878  15.201  0.00  0.00    +0.000 C 
ATOM      3  C   UNL     1      37.936   4.650  16.281  0.00  0.00    +0.000 C 
ATOM      4  O   UNL     1      38.176   3.567  16.876  0.00  0.00    +0.000 OA
ATOM      5  N   UNL     1      38.596   5.861  16.634  0.00  0.00    +0.000 N 
ATOM      6  C   UNL     1      38.058   6.831  15.749  0.00  0.00    +0.000 C 
ATOM      7  O   UNL     1      38.433   8.048  15.788  0.00  0.00    +0.000 OA
ENDROOT
BRANCH   5   8
ATOM      8  C   UNL     1      39.570   6.091  17.634  0.00  0.00    +0.000 A 
ATOM      9  C   UNL     1      40.905   6.205  17.305  0.00  0.00    +0.000 A 
ATOM     10  C   UNL     1      41.883   6.430  18.253  0.00  0.00    +0.000 A 
ATOM     11  C   UNL     1      41.547   6.550  19.581  0.00  0.00    +0.000 A 
ATOM     12  C   UNL     1      42.598   6.796  20.622  0.00  0.00    +0.000 C 
ATOM     13  C   UNL     1      40.222   6.440  19.936  0.00  0.00    +0.000 A 
ATOM     14  C   UNL     1      39.247   6.213  18.968  0.00  0.00    +0.000 A 
ENDBRANCH   5   8
BRANCH   1  15
ATOM     15  N   UNL     1      36.322   6.734  13.872  0.00  0.00    +0.000 NA
BRANCH  15  19
ATOM     16  C   UNL     1      34.152  10.373  13.863  0.00  0.00    +0.000 A 
ATOM     17  C   UNL     1      33.825   9.305  14.665  0.00  0.00    +0.000 A 
ATOM     18  C   UNL     1      34.521   8.134  14.670  0.00  0.00    +0.000 A 
ATOM     19  C   UNL     1      35.645   7.938  13.836  0.00  0.00    +0.000 A 
ATOM     20  C   UNL     1      35.952   9.017  13.046  0.00  0.00    +0.000 A 
ATOM     21  C   UNL     1      35.254  10.184  13.044  0.00  0.00    +0.000 A 
BRANCH  16  22
ATOM     22  O   UNL     1      33.435  11.541  13.878  0.00  0.00    +0.000 OA
BRANCH  22  24
ATOM     23  C   UNL     1      32.785  13.702  14.641  0.00  0.00    +0.000 C 
ATOM     24  C   UNL     1      33.844  12.614  14.702  0.00  0.00    +0.000 C 
ENDBRANCH  22  24
ENDBRANCH  16  22
ENDBRANCH  15  19
ENDBRANCH   1  15
BRANCH   2  25
ATOM     25  S   UNL     1      35.939   3.767  14.358  0.00  0.00    +0.000 S 
BRANCH  25  26
ATOM     26  C   UNL     1      35.748   2.194  15.113  0.00  0.00    +0.000 A 
ATOM     27  C   UNL     1      36.275   1.004  14.710  0.00  0.00    +0.000 A 
ATOM     28  C   UNL     1      36.084  -0.201  15.351  0.00  0.00    +0.000 A 
ATOM     29  C   UNL     1      35.298  -0.237  16.502  0.00  0.00    +0.000 A 
ATOM     30  C   UNL     1      34.761   0.936  16.926  0.00  0.00    +0.000 A 
ATOM     31  C   UNL     1      34.960   2.131  16.275  0.00  0.00    +0.000 A 
ENDBRANCH  25  26
ENDBRANCH   2  25
TORSDOF 7
ENDMDL
MODEL 5
REMARK VINA RESULT:      -7.8      2.236      8.152
REMARK  Name = 
REMARK  7 active torsions:
REMARK  status: ('A' for Active; 'I' for Inactive)
REMARK    1  A    between atoms: C_2  and  O_3
REMARK    2  A    between atoms: O_3  and  C_4
REMARK    3  A    between atoms: C_7  and  N_8
REMARK    4  A    between atoms: N_8  and  C_9
REMARK    5  A    between atoms: C_10  and  S_11
REMARK    6  A    between atoms: S_11  and  C_12
REMARK    7  A    between atoms: N_20  and  C_21
REMARK                            x       y       z     vdW  Elec       q    Type
REMARK                         _______ _______ _______ _____ _____    ______ ____
ROOT
ATOM      1  C   UNL     1      37.170   4.012  15.501  0.00  0.00    +0.000 C 
ATOM      2  C   UNL     1      37.651   4.869  14.571  0.00  0.00    +0.000 C 
ATOM      3  C   UNL     1      38.674   5.641  15.223  0.00  0.00    +0.000 C 
ATOM      4  O   UNL     1      39.384   6.554  14.728  0.00  0.00    +0.000 OA
ATOM      5  N   UNL     1      38.810   5.238  16.582  0.00  0.00    +0.000 N 
ATOM      6  C   UNL     1      37.851   4.205  16.743  0.00  0.00    +0.000 C 
ATOM      7  O   UNL     1      37.699   3.607  17.860  0.00  0.00    +0.000 OA
ENDROOT
BRANCH   5   8
ATOM      8  C   UNL     1      39.689   5.727  17.576  0.00  0.00    +0.000 A 
ATOM      9  C   UNL     1      40.994   6.049  17.267  0.00  0.00    +0.000 A 
ATOM     10  C   UNL     1      41.879   6.530  18.211  0.00  0.00    +0.000 A 
ATOM     11  C   UNL     1      41.476   6.706  19.514  0.00  0.00    +0.000 A 
ATOM     12  C   UNL     1      42.426   7.228  20.550  0.00  0.00    +0.000 C 
ATOM     13  C   UNL     1      40.179   6.392  19.849  0.00  0.00    +0.000 A 
ATOM     14  C   UNL     1      39.297   5.908  18.885  0.00  0.00    +0.000 A 
ENDBRANCH   5   8
BRANCH   1  15
ATOM     15  N   UNL     1      36.150   3.115  15.174  0.00  0.00    +0.000 NA
BRANCH  15  19
ATOM     16  C   UNL     1      35.552  -0.871  16.481  0.00  0.00    +0.000 A 
ATOM     17  C   UNL     1      34.899   0.206  17.032  0.00  0.00    +0.000 A 
ATOM     18  C   UNL     1      35.090   1.488  16.614  0.00  0.00    +0.000 A 
ATOM     19  C   UNL     1      35.987   1.800  15.567  0.00  0.00    +0.000 A 
ATOM     20  C   UNL     1      36.625   0.709  15.033  0.00  0.00    +0.000 A 
ATOM     21  C   UNL     1      36.432  -0.569  15.454  0.00  0.00    +0.000 A 
BRANCH  16  22
ATOM     22  O   UNL     1      35.342  -2.152  16.920  0.00  0.00    +0.000 OA
BRANCH  22  24
ATOM     23  C   UNL     1      37.151  -2.399  18.451  0.00  0.00    +0.000 C 
ATOM     24  C   UNL     1      36.442  -2.981  17.239  0.00  0.00    +0.000 C 
ENDBRANCH  22  24
ENDBRANCH  16  22
ENDBRANCH  15  19
ENDBRANCH   1  15
BRANCH   2  25
ATOM     25  S   UNL     1      37.052   4.924  12.916  0.00  0.00    +0.000 S 
BRANCH  25  26
ATOM     26  C   UNL     1      35.601   5.884  12.677  0.00  0.00    +0.000 A 
ATOM     27  C   UNL     1      35.156   6.450  11.521  0.00  0.00    +0.000 A 
ATOM     28  C   UNL     1      34.003   7.196  11.401  0.00  0.00    +0.000 A 
ATOM     29  C   UNL     1      33.212   7.403  12.531  0.00  0.00    +0.000 A 
ATOM     30  C   UNL     1      33.634   6.848  13.697  0.00  0.00    +0.000 A 
ATOM     31  C   UNL     1      34.787   6.107  13.800  0.00  0.00    +0.000 A 
ENDBRANCH  25  26
ENDBRANCH   2  25
TORSDOF 7
ENDMDL
MODEL 6
REMARK VINA RESULT:      -7.7      4.188      8.601
REMARK  Name = 
REMARK  7 active torsions:
REMARK  status: ('A' for Active; 'I' for Inactive)
REMARK    1  A    between atoms: C_2  and  O_3
REMARK    2  A    between atoms: O_3  and  C_4
REMARK    3  A    between atoms: C_7  and  N_8
REMARK    4  A    between atoms: N_8  and  C_9
REMARK    5  A    between atoms: C_10  and  S_11
REMARK    6  A    between atoms: S_11  and  C_12
REMARK    7  A    between atoms: N_20  and  C_21
REMARK                            x       y       z     vdW  Elec       q    Type
REMARK                         _______ _______ _______ _____ _____    ______ ____
ROOT
ATOM      1  C   UNL     1      38.441   2.562  14.401  0.00  0.00    +0.000 C 
ATOM      2  C   UNL     1      37.330   2.162  15.061  0.00  0.00    +0.000 C 
ATOM      3  C   UNL     1      37.158   3.075  16.158  0.00  0.00    +0.000 C 
ATOM      4  O   UNL     1      36.250   3.074  17.028  0.00  0.00    +0.000 OA
ATOM      5  N   UNL     1      38.197   4.050  16.158  0.00  0.00    +0.000 N 
ATOM      6  C   UNL     1      39.001   3.713  15.039  0.00  0.00    +0.000 C 
ATOM      7  O   UNL     1      40.038   4.391  14.737  0.00  0.00    +0.000 OA
ENDROOT
BRANCH   5   8
ATOM      8  C   UNL     1      38.413   5.126  17.050  0.00  0.00    +0.000 A 
ATOM      9  C   UNL     1      39.039   4.923  18.262  0.00  0.00    +0.000 A 
ATOM     10  C   UNL     1      39.268   5.949  19.157  0.00  0.00    +0.000 A 
ATOM     11  C   UNL     1      38.870   7.231  18.858  0.00  0.00    +0.000 A 
ATOM     12  C   UNL     1      39.112   8.356  19.819  0.00  0.00    +0.000 C 
ATOM     13  C   UNL     1      38.243   7.461  17.655  0.00  0.00    +0.000 A 
ATOM     14  C   UNL     1      38.019   6.415  16.763  0.00  0.00    +0.000 A 
ENDBRANCH   5   8
BRANCH   1  15
ATOM     15  N   UNL     1      38.880   1.868  13.271  0.00  0.00    +0.000 NA
BRANCH  15  19
ATOM     16  C   UNL     1      41.140  -1.715  13.171  0.00  0.00    +0.000 A 
ATOM     17  C   UNL     1      41.218  -0.805  14.199  0.00  0.00    +0.000 A 
ATOM     18  C   UNL     1      40.494   0.347  14.234  0.00  0.00    +0.000 A 
ATOM     19  C   UNL     1      39.596   0.688  13.196  0.00  0.00    +0.000 A 
ATOM     20  C   UNL     1      39.535  -0.234  12.182  0.00  0.00    +0.000 A 
ATOM     21  C   UNL     1      40.261  -1.383  12.152  0.00  0.00    +0.000 A 
BRANCH  16  22
ATOM     22  O   UNL     1      41.881  -2.867  13.160  0.00  0.00    +0.000 OA
BRANCH  22  24
ATOM     23  C   UNL     1      43.923  -2.320  12.062  0.00  0.00    +0.000 C 
ATOM     24  C   UNL     1      42.676  -3.189  12.036  0.00  0.00    +0.000 C 
ENDBRANCH  22  24
ENDBRANCH  16  22
ENDBRANCH  15  19
ENDBRANCH   1  15
BRANCH   2  25
ATOM     25  S   UNL     1      36.367   0.773  14.565  0.00  0.00    +0.000 S 
BRANCH  25  26
ATOM     26  C   UNL     1      37.076  -0.793  14.920  0.00  0.00    +0.000 A 
ATOM     27  C   UNL     1      37.058  -1.914  14.145  0.00  0.00    +0.000 A 
ATOM     28  C   UNL     1      37.636  -3.117  14.485  0.00  0.00    +0.000 A 
ATOM     29  C   UNL     1      38.299  -3.228  15.707  0.00  0.00    +0.000 A 
ATOM     30  C   UNL     1      38.332  -2.124  16.499  0.00  0.00    +0.000 A 
ATOM     31  C   UNL     1      37.749  -0.930  16.146  0.00  0.00    +0.000 A 
ENDBRANCH  25  26
ENDBRANCH   2  25
TORSDOF 7
ENDMDL
MODEL 7
REMARK VINA RESULT:      -7.7      2.551      7.977
REMARK  Name = 
REMARK  7 active torsions:
REMARK  status: ('A' for Active; 'I' for Inactive)
REMARK    1  A    between atoms: C_2  and  O_3
REMARK    2  A    between atoms: O_3  and  C_4
REMARK    3  A    between atoms: C_7  and  N_8
REMARK    4  A    between atoms: N_8  and  C_9
REMARK    5  A    between atoms: C_10  and  S_11
REMARK    6  A    between atoms: S_11  and  C_12
REMARK    7  A    between atoms: N_20  and  C_21
REMARK                            x       y       z     vdW  Elec       q    Type
REMARK                         _______ _______ _______ _____ _____    ______ ____
ROOT
ATOM      1  C   UNL     1      36.916   4.622  15.491  0.00  0.00    +0.000 C 
ATOM      2  C   UNL     1      37.055   5.824  14.887  0.00  0.00    +0.000 C 
ATOM      3  C   UNL     1      38.083   6.524  15.608  0.00  0.00    +0.000 C 
ATOM      4  O   UNL     1      38.533   7.677  15.386  0.00  0.00    +0.000 OA
ATOM      5  N   UNL     1      38.574   5.720  16.676  0.00  0.00    +0.000 N 
ATOM      6  C   UNL     1      37.825   4.518  16.590  0.00  0.00    +0.000 C 
ATOM      7  O   UNL     1      38.010   3.559  17.410  0.00  0.00    +0.000 OA
ENDROOT
BRANCH   5   8
ATOM      8  C   UNL     1      39.578   6.013  17.628  0.00  0.00    +0.000 A 
ATOM      9  C   UNL     1      39.260   6.181  18.960  0.00  0.00    +0.000 A 
ATOM     10  C   UNL     1      40.213   6.467  19.917  0.00  0.00    +0.000 A 
ATOM     11  C   UNL     1      41.535   6.595  19.562  0.00  0.00    +0.000 A 
ATOM     12  C   UNL     1      42.582   6.905  20.590  0.00  0.00    +0.000 C 
ATOM     13  C   UNL     1      41.880   6.432  18.240  0.00  0.00    +0.000 A 
ATOM     14  C   UNL     1      40.906   6.144  17.286  0.00  0.00    +0.000 A 
ENDBRANCH   5   8
BRANCH   1  15
ATOM     15  N   UNL     1      35.980   3.698  15.019  0.00  0.00    +0.000 NA
BRANCH  15  19
ATOM     16  C   UNL     1      35.468  -0.372  16.079  0.00  0.00    +0.000 A 
ATOM     17  C   UNL     1      36.280   0.039  15.049  0.00  0.00    +0.000 A 
ATOM     18  C   UNL     1      36.446   1.347  14.706  0.00  0.00    +0.000 A 
ATOM     19  C   UNL     1      35.783   2.384  15.400  0.00  0.00    +0.000 A 
ATOM     20  C   UNL     1      34.980   1.949  16.424  0.00  0.00    +0.000 A 
ATOM     21  C   UNL     1      34.816   0.643  16.762  0.00  0.00    +0.000 A 
BRANCH  16  22
ATOM     22  O   UNL     1      35.318  -1.695  16.404  0.00  0.00    +0.000 OA
BRANCH  22  24
ATOM     23  C   UNL     1      34.418  -3.677  15.436  0.00  0.00    +0.000 C 
ATOM     24  C   UNL     1      35.578  -2.696  15.440  0.00  0.00    +0.000 C 
ENDBRANCH  22  24
ENDBRANCH  16  22
ENDBRANCH  15  19
ENDBRANCH   1  15
BRANCH   2  25
ATOM     25  S   UNL     1      36.098   6.313  13.491  0.00  0.00    +0.000 S 
BRANCH  25  26
ATOM     26  C   UNL     1      35.291   7.864  13.644  0.00  0.00    +0.000 A 
ATOM     27  C   UNL     1      34.723   8.404  14.758  0.00  0.00    +0.000 A 
ATOM     28  C   UNL     1      34.101   9.633  14.811  0.00  0.00    +0.000 A 
ATOM     29  C   UNL     1      34.033  10.405  13.652  0.00  0.00    +0.000 A 
ATOM     30  C   UNL     1      34.593   9.890  12.526  0.00  0.00    +0.000 A 
ATOM     31  C   UNL     1      35.209   8.661  12.490  0.00  0.00    +0.000 A 
ENDBRANCH  25  26
ENDBRANCH   2  25
TORSDOF 7
ENDMDL
MODEL 8
REMARK VINA RESULT:      -7.6      1.665      5.963
REMARK  Name = 
REMARK  7 active torsions:
REMARK  status: ('A' for Active; 'I' for Inactive)
REMARK    1  A    between atoms: C_2  and  O_3
REMARK    2  A    between atoms: O_3  and  C_4
REMARK    3  A    between atoms: C_7  and  N_8
REMARK    4  A    between atoms: N_8  and  C_9
REMARK    5  A    between atoms: C_10  and  S_11
REMARK    6  A    between atoms: S_11  and  C_12
REMARK    7  A    between atoms: N_20  and  C_21
REMARK                            x       y       z     vdW  Elec       q    Type
REMARK                         _______ _______ _______ _____ _____    ______ ____
ROOT
ATOM      1  C   UNL     1      36.387   5.250  14.728  0.00  0.00    +0.000 C 
ATOM      2  C   UNL     1      36.694   3.943  14.894  0.00  0.00    +0.000 C 
ATOM      3  C   UNL     1      37.959   3.907  15.575  0.00  0.00    +0.000 C 
ATOM      4  O   UNL     1      38.616   2.894  15.931  0.00  0.00    +0.000 OA
ATOM      5  N   UNL     1      38.426   5.229  15.824  0.00  0.00    +0.000 N 
ATOM      6  C   UNL     1      37.420   6.069  15.282  0.00  0.00    +0.000 C 
ATOM      7  O   UNL     1      37.517   7.340  15.331  0.00  0.00    +0.000 OA
ENDROOT
BRANCH   5   8
ATOM      8  C   UNL     1      39.614   5.653  16.463  0.00  0.00    +0.000 A 
ATOM      9  C   UNL     1      40.730   5.989  15.726  0.00  0.00    +0.000 A 
ATOM     10  C   UNL     1      41.907   6.408  16.315  0.00  0.00    +0.000 A 
ATOM     11  C   UNL     1      42.001   6.503  17.684  0.00  0.00    +0.000 A 
ATOM     12  C   UNL     1      43.272   6.957  18.338  0.00  0.00    +0.000 C 
ATOM     13  C   UNL     1      40.902   6.173  18.443  0.00  0.00    +0.000 A 
ATOM     14  C   UNL     1      39.722   5.753  17.833  0.00  0.00    +0.000 A 
ENDBRANCH   5   8
BRANCH   1  15
ATOM     15  N   UNL     1      35.202   5.621  14.088  0.00  0.00    +0.000 NA
BRANCH  15  19
ATOM     16  C   UNL     1      34.522   7.274  10.247  0.00  0.00    +0.000 A 
ATOM     17  C   UNL     1      33.686   7.489  11.316  0.00  0.00    +0.000 A 
ATOM     18  C   UNL     1      33.901   6.960  12.552  0.00  0.00    +0.000 A 
ATOM     19  C   UNL     1      35.021   6.139  12.820  0.00  0.00    +0.000 A 
ATOM     20  C   UNL     1      35.841   5.939  11.738  0.00  0.00    +0.000 A 
ATOM     21  C   UNL     1      35.620   6.469  10.506  0.00  0.00    +0.000 A 
BRANCH  16  22
ATOM     22  O   UNL     1      34.282   7.819   9.012  0.00  0.00    +0.000 OA
BRANCH  22  24
ATOM     23  C   UNL     1      33.199   6.437   7.402  0.00  0.00    +0.000 C 
ATOM     24  C   UNL     1      34.514   7.058   7.843  0.00  0.00    +0.000 C 
ENDBRANCH  22  24
ENDBRANCH  16  22
ENDBRANCH  15  19
ENDBRANCH   1  15
BRANCH   2  25
ATOM     25  S   UNL     1      35.654   2.635  14.337  0.00  0.00    +0.000 S 
BRANCH  25  26
ATOM     26  C   UNL     1      35.569   1.242  15.402  0.00  0.00    +0.000 A 
ATOM     27  C   UNL     1      34.898   1.133  16.583  0.00  0.00    +0.000 A 
ATOM     28  C   UNL     1      34.872   0.005  17.374  0.00  0.00    +0.000 A 
ATOM     29  C   UNL     1      35.576  -1.126  16.962  0.00  0.00    +0.000 A 
ATOM     30  C   UNL     1      36.253  -1.044  15.787  0.00  0.00    +0.000 A 
ATOM     31  C   UNL     1      36.270   0.089  15.009  0.00  0.00    +0.000 A 
ENDBRANCH  25  26
ENDBRANCH   2  25
TORSDOF 7
ENDMDL
MODEL 9
REMARK VINA RESULT:      -7.5      3.005      3.871
REMARK  Name = 
REMARK  7 active torsions:
REMARK  status: ('A' for Active; 'I' for Inactive)
REMARK    1  A    between atoms: C_2  and  O_3
REMARK    2  A    between atoms: O_3  and  C_4
REMARK    3  A    between atoms: C_7  and  N_8
REMARK    4  A    between atoms: N_8  and  C_9
REMARK    5  A    between atoms: C_10  and  S_11
REMARK    6  A    between atoms: S_11  and  C_12
REMARK    7  A    between atoms: N_20  and  C_21
REMARK                            x       y       z     vdW  Elec       q    Type
REMARK                         _______ _______ _______ _____ _____    ______ ____
ROOT
ATOM      1  C   UNL     1      36.989   5.712  14.931  0.00  0.00    +0.000 C 
ATOM      2  C   UNL     1      37.869   5.625  15.954  0.00  0.00    +0.000 C 
ATOM      3  C   UNL     1      37.743   4.295  16.486  0.00  0.00    +0.000 C 
ATOM      4  O   UNL     1      38.376   3.785  17.446  0.00  0.00    +0.000 OA
ATOM      5  N   UNL     1      36.759   3.563  15.762  0.00  0.00    +0.000 N 
ATOM      6  C   UNL     1      36.290   4.473  14.779  0.00  0.00    +0.000 C 
ATOM      7  O   UNL     1      35.387   4.141  13.943  0.00  0.00    +0.000 OA
ENDROOT
BRANCH   5   8
ATOM      8  C   UNL     1      36.321   2.231  15.946  0.00  0.00    +0.000 A 
ATOM      9  C   UNL     1      35.269   1.946  16.791  0.00  0.00    +0.000 A 
ATOM     10  C   UNL     1      34.813   0.658  16.995  0.00  0.00    +0.000 A 
ATOM     11  C   UNL     1      35.408  -0.399  16.346  0.00  0.00    +0.000 A 
ATOM     12  C   UNL     1      34.923  -1.802  16.556  0.00  0.00    +0.000 C 
ATOM     13  C   UNL     1      36.459  -0.141  15.496  0.00  0.00    +0.000 A 
ATOM     14  C   UNL     1      36.907   1.163  15.302  0.00  0.00    +0.000 A 
ENDBRANCH   5   8
BRANCH   1  15
ATOM     15  N   UNL     1      36.868   6.896  14.200  0.00  0.00    +0.000 NA
BRANCH  15  19
ATOM     16  C   UNL     1      34.466  10.308  14.936  0.00  0.00    +0.000 A 
ATOM     17  C   UNL     1      35.836  10.316  15.045  0.00  0.00    +0.000 A 
ATOM     18  C   UNL     1      36.611   9.221  14.809  0.00  0.00    +0.000 A 
ATOM     19  C   UNL     1      36.046   7.983  14.429  0.00  0.00    +0.000 A 
ATOM     20  C   UNL     1      34.677   7.999  14.327  0.00  0.00    +0.000 A 
ATOM     21  C   UNL     1      33.909   9.094  14.564  0.00  0.00    +0.000 A 
BRANCH  16  22
ATOM     22  O   UNL     1      33.709  11.424  15.180  0.00  0.00    +0.000 OA
BRANCH  22  24
ATOM     23  C   UNL     1      32.543  13.440  14.678  0.00  0.00    +0.000 C 
ATOM     24  C   UNL     1      33.330  12.270  14.112  0.00  0.00    +0.000 C 
ENDBRANCH  22  24
ENDBRANCH  16  22
ENDBRANCH  15  19
ENDBRANCH   1  15
BRANCH   2  25
ATOM     25  S   UNL     1      38.911   6.960  16.439  0.00  0.00    +0.000 S 
BRANCH  25  26
ATOM     26  C   UNL     1      38.627   7.581  18.056  0.00  0.00    +0.000 A 
ATOM     27  C   UNL     1      37.704   8.503  18.447  0.00  0.00    +0.000 A 
ATOM     28  C   UNL     1      37.533   8.950  19.739  0.00  0.00    +0.000 A 
ATOM     29  C   UNL     1      38.351   8.437  20.745  0.00  0.00    +0.000 A 
ATOM     30  C   UNL     1      39.280   7.515  20.382  0.00  0.00    +0.000 A 
ATOM     31  C   UNL     1      39.439   7.080  19.087  0.00  0.00    +0.000 A 
ENDBRANCH  25  26
ENDBRANCH   2  25
TORSDOF 7
ENDMDL
MODEL 10
REMARK VINA RESULT:      -7.4     24.845     27.811
REMARK  Name = 
REMARK  7 active torsions:
REMARK  status: ('A' for Active; 'I' for Inactive)
REMARK    1  A    between atoms: C_2  and  O_3
REMARK    2  A    between atoms: O_3  and  C_4
REMARK    3  A    between atoms: C_7  and  N_8
REMARK    4  A    between atoms: N_8  and  C_9
REMARK    5  A    between atoms: C_10  and  S_11
REMARK    6  A    between atoms: S_11  and  C_12
REMARK    7  A    between atoms: N_20  and  C_21
REMARK                            x       y       z     vdW  Elec       q    Type
REMARK                         _______ _______ _______ _____ _____    ______ ____
ROOT
ATOM      1  C   UNL     1      27.391  15.674  38.419  0.00  0.00    +0.000 C 
ATOM      2  C   UNL     1      26.072  15.695  38.119  0.00  0.00    +0.000 C 
ATOM      3  C   UNL     1      25.442  14.743  38.993  0.00  0.00    +0.000 C 
ATOM      4  O   UNL     1      24.222  14.442  39.056  0.00  0.00    +0.000 OA
ATOM      5  N   UNL     1      26.410  14.133  39.841  0.00  0.00    +0.000 N 
ATOM      6  C   UNL     1      27.640  14.732  39.466  0.00  0.00    +0.000 C 
ATOM      7  O   UNL     1      28.736  14.412  40.034  0.00  0.00    +0.000 OA
ENDROOT
BRANCH   5   8
ATOM      8  C   UNL     1      26.229  13.150  40.842  0.00  0.00    +0.000 A 
ATOM      9  C   UNL     1      25.568  13.451  42.014  0.00  0.00    +0.000 A 
ATOM     10  C   UNL     1      25.372  12.518  43.013  0.00  0.00    +0.000 A 
ATOM     11  C   UNL     1      25.840  11.234  42.863  0.00  0.00    +0.000 A 
ATOM     12  C   UNL     1      25.634  10.209  43.939  0.00  0.00    +0.000 C 
ATOM     13  C   UNL     1      26.503  10.907  41.702  0.00  0.00    +0.000 A 
ATOM     14  C   UNL     1      26.692  11.860  40.704  0.00  0.00    +0.000 A 
ENDBRANCH   5   8
BRANCH   1  15
ATOM     15  N   UNL     1      28.285  16.500  37.733  0.00  0.00    +0.000 NA
BRANCH  15  19
ATOM     16  C   UNL     1      31.130  15.521  34.750  0.00  0.00    +0.000 A 
ATOM     17  C   UNL     1      29.960  16.191  34.481  0.00  0.00    +0.000 A 
ATOM     18  C   UNL     1      29.044  16.507  35.438  0.00  0.00    +0.000 A 
ATOM     19  C   UNL     1      29.240  16.160  36.794  0.00  0.00    +0.000 A 
ATOM     20  C   UNL     1      30.414  15.493  37.037  0.00  0.00    +0.000 A 
ATOM     21  C   UNL     1      31.325  15.179  36.079  0.00  0.00    +0.000 A 
BRANCH  16  22
ATOM     22  O   UNL     1      32.036  15.215  33.768  0.00  0.00    +0.000 OA
BRANCH  22  24
ATOM     23  C   UNL     1      34.413  15.275  33.626  0.00  0.00    +0.000 C 
ATOM     24  C   UNL     1      33.202  14.480  34.083  0.00  0.00    +0.000 C 
ENDBRANCH  22  24
ENDBRANCH  16  22
ENDBRANCH  15  19
ENDBRANCH   1  15
BRANCH   2  25
ATOM     25  S   UNL     1      25.387  16.737  36.875  0.00  0.00    +0.000 S 
BRANCH  25  26
ATOM     26  C   UNL     1      25.423  16.080  35.247  0.00  0.00    +0.000 A 
ATOM     27  C   UNL     1      25.821  14.838  34.856  0.00  0.00    +0.000 A 
ATOM     28  C   UNL     1      25.824  14.383  33.555  0.00  0.00    +0.000 A 
ATOM     29  C   UNL     1      25.392  15.237  32.540  0.00  0.00    +0.000 A 
ATOM     30  C   UNL     1      24.989  16.482  32.903  0.00  0.00    +0.000 A 
ATOM     31  C   UNL     1      24.993  16.921  34.206  0.00  0.00    +0.000 A 
ENDBRANCH  25  26
ENDBRANCH   2  25
TORSDOF 7
ENDMDL
