MODEL 1
REMARK VINA RESULT:      -6.8      0.000      0.000
REMARK  Name = 
REMARK  4 active torsions:
REMARK  status: ('A' for Active; 'I' for Inactive)
REMARK    1  A    between atoms: C_7  and  C_8
REMARK    2  A    between atoms: N_9  and  N_10
REMARK    3  A    between atoms: N_10  and  C_11
REMARK    4  A    between atoms: C_15  and  N_16
REMARK                            x       y       z     vdW  Elec       q    Type
REMARK                         _______ _______ _______ _____ _____    ______ ____
ROOT
ATOM      1  C   UNL     1      20.364  10.032  37.697  0.00  0.00    +0.000 C 
ATOM      2  N   UNL     1      19.569   9.594  36.803  0.00  0.00    +0.000 NA
ENDROOT
BRANCH   1   9
ATOM      3  C   UNL     1      24.583  11.839  36.198  0.00  0.00    +0.000 C 
ATOM      4  C   UNL     1      23.819  10.980  37.218  0.00  0.00    +0.000 C 
ATOM      5  C   UNL     1      23.492  11.561  38.472  0.00  0.00    +0.000 C 
ATOM      6  C   UNL     1      24.598   9.577  37.250  0.00  0.00    +0.000 C 
ATOM      7  C   UNL     1      23.934   9.030  38.657  0.00  0.00    +0.000 C 
ATOM      8  C   UNL     1      22.512   9.271  38.605  0.00  0.00    +0.000 C 
ATOM      9  C   UNL     1      21.789   9.810  37.708  0.00  0.00    +0.000 C 
ATOM     10  C   UNL     1      22.601  10.312  36.401  0.00  0.00    +0.000 C 
ATOM     11  C   UNL     1      23.465   8.917  36.307  0.00  0.00    +0.000 C 
ENDBRANCH   1   9
BRANCH   2  12
ATOM     12  N   UNL     1      18.215   9.884  36.915  0.00  0.00    +0.000 NA
BRANCH  12  13
ATOM     13  C   UNL     1      17.449  10.380  35.802  0.00  0.00    +0.000 A 
ATOM     14  C   UNL     1      17.714  10.041  34.505  0.00  0.00    +0.000 A 
ATOM     15  C   UNL     1      16.951  10.544  33.468  0.00  0.00    +0.000 A 
ATOM     16  C   UNL     1      15.916  11.393  33.764  0.00  0.00    +0.000 A 
ATOM     17  C   UNL     1      15.608  11.766  35.058  0.00  0.00    +0.000 A 
ATOM     18  C   UNL     1      16.403  11.236  36.072  0.00  0.00    +0.000 A 
BRANCH  17  19
ATOM     19  N   UNL     1      14.526  12.652  35.343  0.00  0.00    +0.000 N 
ATOM     20  O   UNL     1      14.163  13.435  34.453  0.00  0.00    +0.000 OA
ATOM     21  O   UNL     1      13.947  12.599  36.568  0.00  0.00    +0.000 OA
ENDBRANCH  17  19
ENDBRANCH  12  13
ENDBRANCH   2  12
TORSDOF 4
ENDMDL
MODEL 2
REMARK VINA RESULT:      -6.5      1.691      2.605
REMARK  Name = 
REMARK  4 active torsions:
REMARK  status: ('A' for Active; 'I' for Inactive)
REMARK    1  A    between atoms: C_7  and  C_8
REMARK    2  A    between atoms: N_9  and  N_10
REMARK    3  A    between atoms: N_10  and  C_11
REMARK    4  A    between atoms: C_15  and  N_16
REMARK                            x       y       z     vdW  Elec       q    Type
REMARK                         _______ _______ _______ _____ _____    ______ ____
ROOT
ATOM      1  C   UNL     1      20.806   9.721  36.616  0.00  0.00    +0.000 C 
ATOM      2  N   UNL     1      19.764  10.105  37.240  0.00  0.00    +0.000 NA
ENDROOT
BRANCH   1   9
ATOM      3  C   UNL     1      24.346   9.993  39.889  0.00  0.00    +0.000 C 
ATOM      4  C   UNL     1      23.933   9.998  38.408  0.00  0.00    +0.000 C 
ATOM      5  C   UNL     1      24.087   8.797  37.666  0.00  0.00    +0.000 C 
ATOM      6  C   UNL     1      24.599  11.321  37.792  0.00  0.00    +0.000 C 
ATOM      7  C   UNL     1      24.429  10.893  36.208  0.00  0.00    +0.000 C 
ATOM      8  C   UNL     1      23.092  10.387  36.022  0.00  0.00    +0.000 C 
ATOM      9  C   UNL     1      22.134  10.233  36.846  0.00  0.00    +0.000 C 
ATOM     10  C   UNL     1      22.474  10.683  38.363  0.00  0.00    +0.000 C 
ATOM     11  C   UNL     1      23.178  12.085  37.873  0.00  0.00    +0.000 C 
ENDBRANCH   1   9
BRANCH   2  12
ATOM     12  N   UNL     1      18.543   9.524  36.917  0.00  0.00    +0.000 NA
BRANCH  12  13
ATOM     13  C   UNL     1      17.420  10.310  36.479  0.00  0.00    +0.000 A 
ATOM     14  C   UNL     1      16.635  11.032  37.334  0.00  0.00    +0.000 A 
ATOM     15  C   UNL     1      15.566  11.772  36.865  0.00  0.00    +0.000 A 
ATOM     16  C   UNL     1      15.303  11.770  35.519  0.00  0.00    +0.000 A 
ATOM     17  C   UNL     1      16.066  11.056  34.615  0.00  0.00    +0.000 A 
ATOM     18  C   UNL     1      17.133  10.325  35.130  0.00  0.00    +0.000 A 
BRANCH  17  19
ATOM     19  N   UNL     1      15.773  11.068  33.218  0.00  0.00    +0.000 N 
ATOM     20  O   UNL     1      16.359  11.895  32.505  0.00  0.00    +0.000 OA
ATOM     21  O   UNL     1      14.869  10.180  32.736  0.00  0.00    +0.000 OA
ENDBRANCH  17  19
ENDBRANCH  12  13
ENDBRANCH   2  12
TORSDOF 4
ENDMDL
MODEL 3
REMARK VINA RESULT:      -6.5     19.287     20.495
REMARK  Name = 
REMARK  4 active torsions:
REMARK  status: ('A' for Active; 'I' for Inactive)
REMARK    1  A    between atoms: C_7  and  C_8
REMARK    2  A    between atoms: N_9  and  N_10
REMARK    3  A    between atoms: N_10  and  C_11
REMARK    4  A    between atoms: C_15  and  N_16
REMARK                            x       y       z     vdW  Elec       q    Type
REMARK                         _______ _______ _______ _____ _____    ______ ____
ROOT
ATOM      1  C   UNL     1      25.691   3.454  17.618  0.00  0.00    +0.000 C 
ATOM      2  N   UNL     1      24.621   3.415  16.927  0.00  0.00    +0.000 NA
ENDROOT
BRANCH   1   9
ATOM      3  C   UNL     1      27.334   7.305  15.212  0.00  0.00    +0.000 C 
ATOM      4  C   UNL     1      27.023   6.646  16.566  0.00  0.00    +0.000 C 
ATOM      5  C   UNL     1      25.813   6.997  17.220  0.00  0.00    +0.000 C 
ATOM      6  C   UNL     1      28.375   6.784  17.418  0.00  0.00    +0.000 C 
ATOM      7  C   UNL     1      27.701   6.457  18.888  0.00  0.00    +0.000 C 
ATOM      8  C   UNL     1      26.841   5.308  18.740  0.00  0.00    +0.000 C 
ATOM      9  C   UNL     1      26.559   4.601  17.721  0.00  0.00    +0.000 C 
ATOM     10  C   UNL     1      27.290   5.069  16.355  0.00  0.00    +0.000 C 
ATOM     11  C   UNL     1      28.744   5.244  17.100  0.00  0.00    +0.000 C 
ENDBRANCH   1   9
BRANCH   2  12
ATOM     12  N   UNL     1      23.876   2.242  16.918  0.00  0.00    +0.000 NA
BRANCH  12  13
ATOM     13  C   UNL     1      22.469   2.233  17.218  0.00  0.00    +0.000 A 
ATOM     14  C   UNL     1      21.604   1.303  16.712  0.00  0.00    +0.000 A 
ATOM     15  C   UNL     1      20.259   1.337  17.029  0.00  0.00    +0.000 A 
ATOM     16  C   UNL     1      19.803   2.323  17.864  0.00  0.00    +0.000 A 
ATOM     17  C   UNL     1      20.637   3.286  18.400  0.00  0.00    +0.000 A 
ATOM     18  C   UNL     1      21.984   3.215  18.056  0.00  0.00    +0.000 A 
BRANCH  17  19
ATOM     19  N   UNL     1      20.139   4.305  19.268  0.00  0.00    +0.000 N 
ATOM     20  O   UNL     1      20.881   5.262  19.531  0.00  0.00    +0.000 OA
ATOM     21  O   UNL     1      18.884   4.179  19.764  0.00  0.00    +0.000 OA
ENDBRANCH  17  19
ENDBRANCH  12  13
ENDBRANCH   2  12
TORSDOF 4
ENDMDL
MODEL 4
REMARK VINA RESULT:      -6.5      3.792      5.439
REMARK  Name = 
REMARK  4 active torsions:
REMARK  status: ('A' for Active; 'I' for Inactive)
REMARK    1  A    between atoms: C_7  and  C_8
REMARK    2  A    between atoms: N_9  and  N_10
REMARK    3  A    between atoms: N_10  and  C_11
REMARK    4  A    between atoms: C_15  and  N_16
REMARK                            x       y       z     vdW  Elec       q    Type
REMARK                         _______ _______ _______ _____ _____    ______ ____
ROOT
ATOM      1  C   UNL     1      18.320   9.244  39.059  0.00  0.00    +0.000 C 
ATOM      2  N   UNL     1      17.539   9.859  38.264  0.00  0.00    +0.000 NA
ENDROOT
BRANCH   1   9
ATOM      3  C   UNL     1      16.411  10.129  43.405  0.00  0.00    +0.000 C 
ATOM      4  C   UNL     1      16.644   9.131  42.260  0.00  0.00    +0.000 C 
ATOM      5  C   UNL     1      15.591   8.917  41.333  0.00  0.00    +0.000 C 
ATOM      6  C   UNL     1      17.268   7.829  42.961  0.00  0.00    +0.000 C 
ATOM      7  C   UNL     1      17.010   6.798  41.700  0.00  0.00    +0.000 C 
ATOM      8  C   UNL     1      17.430   7.459  40.488  0.00  0.00    +0.000 C 
ATOM      9  C   UNL     1      17.911   8.621  40.294  0.00  0.00    +0.000 C 
ATOM     10  C   UNL     1      18.080   9.511  41.635  0.00  0.00    +0.000 C 
ATOM     11  C   UNL     1      18.745   8.263  42.473  0.00  0.00    +0.000 C 
ENDBRANCH   1   9
BRANCH   2  12
ATOM     12  N   UNL     1      18.068  10.414  37.105  0.00  0.00    +0.000 NA
BRANCH  12  13
ATOM     13  C   UNL     1      17.240  10.754  35.979  0.00  0.00    +0.000 A 
ATOM     14  C   UNL     1      17.473  10.290  34.714  0.00  0.00    +0.000 A 
ATOM     15  C   UNL     1      16.648  10.646  33.663  0.00  0.00    +0.000 A 
ATOM     16  C   UNL     1      15.587  11.478  33.910  0.00  0.00    +0.000 A 
ATOM     17  C   UNL     1      15.310  11.973  35.170  0.00  0.00    +0.000 A 
ATOM     18  C   UNL     1      16.165  11.589  36.200  0.00  0.00    +0.000 A 
BRANCH  17  19
ATOM     19  N   UNL     1      14.198  12.838  35.405  0.00  0.00    +0.000 N 
ATOM     20  O   UNL     1      13.530  12.665  36.434  0.00  0.00    +0.000 OA
ATOM     21  O   UNL     1      13.925  13.805  34.494  0.00  0.00    +0.000 OA
ENDBRANCH  17  19
ENDBRANCH  12  13
ENDBRANCH   2  12
TORSDOF 4
ENDMDL
MODEL 5
REMARK VINA RESULT:      -6.5     22.877     24.937
REMARK  Name = 
REMARK  4 active torsions:
REMARK  status: ('A' for Active; 'I' for Inactive)
REMARK    1  A    between atoms: C_7  and  C_8
REMARK    2  A    between atoms: N_9  and  N_10
REMARK    3  A    between atoms: N_10  and  C_11
REMARK    4  A    between atoms: C_15  and  N_16
REMARK                            x       y       z     vdW  Elec       q    Type
REMARK                         _______ _______ _______ _____ _____    ______ ____
ROOT
ATOM      1  C   UNL     1      29.857  26.910  19.988  0.00  0.00    +0.000 C 
ATOM      2  N   UNL     1      29.761  25.686  19.651  0.00  0.00    +0.000 NA
ENDROOT
BRANCH   1   9
ATOM      3  C   UNL     1      29.576  28.060  15.307  0.00  0.00    +0.000 C 
ATOM      4  C   UNL     1      29.389  28.491  16.771  0.00  0.00    +0.000 C 
ATOM      5  C   UNL     1      28.078  28.464  17.315  0.00  0.00    +0.000 C 
ATOM      6  C   UNL     1      30.205  29.865  16.910  0.00  0.00    +0.000 C 
ATOM      7  C   UNL     1      29.516  30.346  18.330  0.00  0.00    +0.000 C 
ATOM      8  C   UNL     1      29.498  29.214  19.224  0.00  0.00    +0.000 C 
ATOM      9  C   UNL     1      29.893  28.015  19.063  0.00  0.00    +0.000 C 
ATOM     10  C   UNL     1      30.525  27.706  17.605  0.00  0.00    +0.000 C 
ATOM     11  C   UNL     1      31.426  29.081  17.617  0.00  0.00    +0.000 C 
ENDBRANCH   1   9
BRANCH   2  12
ATOM     12  N   UNL     1      29.736  24.719  20.650  0.00  0.00    +0.000 NA
BRANCH  12  13
ATOM     13  C   UNL     1      28.953  24.883  21.846  0.00  0.00    +0.000 A 
ATOM     14  C   UNL     1      29.273  25.774  22.832  0.00  0.00    +0.000 A 
ATOM     15  C   UNL     1      28.490  25.895  23.964  0.00  0.00    +0.000 A 
ATOM     16  C   UNL     1      27.378  25.101  24.084  0.00  0.00    +0.000 A 
ATOM     17  C   UNL     1      27.012  24.185  23.116  0.00  0.00    +0.000 A 
ATOM     18  C   UNL     1      27.829  24.096  21.992  0.00  0.00    +0.000 A 
BRANCH  17  19
ATOM     19  N   UNL     1      25.850  23.369  23.263  0.00  0.00    +0.000 N 
ATOM     20  O   UNL     1      25.354  23.255  24.393  0.00  0.00    +0.000 OA
ATOM     21  O   UNL     1      25.345  22.755  22.164  0.00  0.00    +0.000 OA
ENDBRANCH  17  19
ENDBRANCH  12  13
ENDBRANCH   2  12
TORSDOF 4
ENDMDL
MODEL 6
REMARK VINA RESULT:      -6.4      1.940      2.404
REMARK  Name = 
REMARK  4 active torsions:
REMARK  status: ('A' for Active; 'I' for Inactive)
REMARK    1  A    between atoms: C_7  and  C_8
REMARK    2  A    between atoms: N_9  and  N_10
REMARK    3  A    between atoms: N_10  and  C_11
REMARK    4  A    between atoms: C_15  and  N_16
REMARK                            x       y       z     vdW  Elec       q    Type
REMARK                         _______ _______ _______ _____ _____    ______ ____
ROOT
ATOM      1  C   UNL     1      20.414   9.650  36.291  0.00  0.00    +0.000 C 
ATOM      2  N   UNL     1      19.149   9.726  36.415  0.00  0.00    +0.000 NA
ENDROOT
BRANCH   1   9
ATOM      3  C   UNL     1      24.342  12.172  37.527  0.00  0.00    +0.000 C 
ATOM      4  C   UNL     1      23.075  11.425  37.975  0.00  0.00    +0.000 C 
ATOM      5  C   UNL     1      21.922  12.190  38.290  0.00  0.00    +0.000 C 
ATOM      6  C   UNL     1      23.577  10.379  39.083  0.00  0.00    +0.000 C 
ATOM      7  C   UNL     1      22.089  10.049  39.713  0.00  0.00    +0.000 C 
ATOM      8  C   UNL     1      21.177   9.832  38.616  0.00  0.00    +0.000 C 
ATOM      9  C   UNL     1      21.359   9.874  37.357  0.00  0.00    +0.000 C 
ATOM     10  C   UNL     1      22.872  10.233  36.908  0.00  0.00    +0.000 C 
ATOM     11  C   UNL     1      23.525   9.187  37.996  0.00  0.00    +0.000 C 
ENDBRANCH   1   9
BRANCH   2  12
ATOM     12  N   UNL     1      18.354   9.484  35.301  0.00  0.00    +0.000 NA
BRANCH  12  13
ATOM     13  C   UNL     1      17.257  10.345  34.949  0.00  0.00    +0.000 A 
ATOM     14  C   UNL     1      16.560  11.080  35.867  0.00  0.00    +0.000 A 
ATOM     15  C   UNL     1      15.512  11.893  35.480  0.00  0.00    +0.000 A 
ATOM     16  C   UNL     1      15.179  11.953  34.151  0.00  0.00    +0.000 A 
ATOM     17  C   UNL     1      15.853  11.230  33.185  0.00  0.00    +0.000 A 
ATOM     18  C   UNL     1      16.902  10.423  33.619  0.00  0.00    +0.000 A 
BRANCH  17  19
ATOM     19  N   UNL     1      15.489  11.307  31.807  0.00  0.00    +0.000 N 
ATOM     20  O   UNL     1      14.558  10.593  31.407  0.00  0.00    +0.000 OA
ATOM     21  O   UNL     1      16.176  12.152  31.000  0.00  0.00    +0.000 OA
ENDBRANCH  17  19
ENDBRANCH  12  13
ENDBRANCH   2  12
TORSDOF 4
ENDMDL
MODEL 7
REMARK VINA RESULT:      -6.4     18.709     21.414
REMARK  Name = 
REMARK  4 active torsions:
REMARK  status: ('A' for Active; 'I' for Inactive)
REMARK    1  A    between atoms: C_7  and  C_8
REMARK    2  A    between atoms: N_9  and  N_10
REMARK    3  A    between atoms: N_10  and  C_11
REMARK    4  A    between atoms: C_15  and  N_16
REMARK                            x       y       z     vdW  Elec       q    Type
REMARK                         _______ _______ _______ _____ _____    ______ ____
ROOT
ATOM      1  C   UNL     1      34.253  -5.062  31.940  0.00  0.00    +0.000 C 
ATOM      2  N   UNL     1      33.480  -4.973  32.949  0.00  0.00    +0.000 NA
ENDROOT
BRANCH   1   9
ATOM      3  C   UNL     1      32.254  -9.142  30.307  0.00  0.00    +0.000 C 
ATOM      4  C   UNL     1      32.637  -7.678  30.040  0.00  0.00    +0.000 C 
ATOM      5  C   UNL     1      31.626  -6.688  30.158  0.00  0.00    +0.000 C 
ATOM      6  C   UNL     1      33.466  -7.707  28.667  0.00  0.00    +0.000 C 
ATOM      7  C   UNL     1      33.369  -6.089  28.358  0.00  0.00    +0.000 C 
ATOM      8  C   UNL     1      33.670  -5.382  29.578  0.00  0.00    +0.000 C 
ATOM      9  C   UNL     1      33.957  -5.808  30.742  0.00  0.00    +0.000 C 
ATOM     10  C   UNL     1      33.990  -7.420  30.878  0.00  0.00    +0.000 C 
ATOM     11  C   UNL     1      34.851  -7.598  29.490  0.00  0.00    +0.000 C 
ENDBRANCH   1   9
BRANCH   2  12
ATOM     12  N   UNL     1      33.892  -4.217  34.040  0.00  0.00    +0.000 NA
BRANCH  12  13
ATOM     13  C   UNL     1      33.336  -2.920  34.318  0.00  0.00    +0.000 A 
ATOM     14  C   UNL     1      32.368  -2.708  35.260  0.00  0.00    +0.000 A 
ATOM     15  C   UNL     1      31.865  -1.442  35.491  0.00  0.00    +0.000 A 
ATOM     16  C   UNL     1      32.354  -0.394  34.755  0.00  0.00    +0.000 A 
ATOM     17  C   UNL     1      33.332  -0.556  33.792  0.00  0.00    +0.000 A 
ATOM     18  C   UNL     1      33.811  -1.848  33.592  0.00  0.00    +0.000 A 
BRANCH  17  19
ATOM     19  N   UNL     1      33.827   0.551  33.038  0.00  0.00    +0.000 N 
ATOM     20  O   UNL     1      34.629   0.321  32.121  0.00  0.00    +0.000 OA
ATOM     21  O   UNL     1      33.400   1.797  33.357  0.00  0.00    +0.000 OA
ENDBRANCH  17  19
ENDBRANCH  12  13
ENDBRANCH   2  12
TORSDOF 4
ENDMDL
MODEL 8
REMARK VINA RESULT:      -6.3      4.205      5.685
REMARK  Name = 
REMARK  4 active torsions:
REMARK  status: ('A' for Active; 'I' for Inactive)
REMARK    1  A    between atoms: C_7  and  C_8
REMARK    2  A    between atoms: N_9  and  N_10
REMARK    3  A    between atoms: N_10  and  C_11
REMARK    4  A    between atoms: C_15  and  N_16
REMARK                            x       y       z     vdW  Elec       q    Type
REMARK                         _______ _______ _______ _____ _____    ______ ____
ROOT
ATOM      1  C   UNL     1      18.072   9.093  38.894  0.00  0.00    +0.000 C 
ATOM      2  N   UNL     1      17.900  10.324  38.616  0.00  0.00    +0.000 NA
ENDROOT
BRANCH   1   9
ATOM      3  C   UNL     1      16.397   9.966  43.337  0.00  0.00    +0.000 C 
ATOM      4  C   UNL     1      16.747   8.934  42.253  0.00  0.00    +0.000 C 
ATOM      5  C   UNL     1      15.691   8.412  41.461  0.00  0.00    +0.000 C 
ATOM      6  C   UNL     1      17.703   7.871  42.981  0.00  0.00    +0.000 C 
ATOM      7  C   UNL     1      17.572   6.691  41.835  0.00  0.00    +0.000 C 
ATOM      8  C   UNL     1      17.728   7.306  40.539  0.00  0.00    +0.000 C 
ATOM      9  C   UNL     1      17.920   8.519  40.208  0.00  0.00    +0.000 C 
ATOM     10  C   UNL     1      18.003   9.551  41.452  0.00  0.00    +0.000 C 
ATOM     11  C   UNL     1      18.998   8.561  42.307  0.00  0.00    +0.000 C 
ENDBRANCH   1   9
BRANCH   2  12
ATOM     12  N   UNL     1      18.080  10.743  37.303  0.00  0.00    +0.000 NA
BRANCH  12  13
ATOM     13  C   UNL     1      16.999  11.290  36.526  0.00  0.00    +0.000 A 
ATOM     14  C   UNL     1      15.964  11.991  37.078  0.00  0.00    +0.000 A 
ATOM     15  C   UNL     1      14.948  12.497  36.289  0.00  0.00    +0.000 A 
ATOM     16  C   UNL     1      14.995  12.284  34.936  0.00  0.00    +0.000 A 
ATOM     17  C   UNL     1      16.020  11.582  34.331  0.00  0.00    +0.000 A 
ATOM     18  C   UNL     1      17.023  11.090  35.162  0.00  0.00    +0.000 A 
BRANCH  17  19
ATOM     19  N   UNL     1      16.048  11.372  32.919  0.00  0.00    +0.000 N 
ATOM     20  O   UNL     1      16.752  10.451  32.479  0.00  0.00    +0.000 OA
ATOM     21  O   UNL     1      15.309  12.186  32.126  0.00  0.00    +0.000 OA
ENDBRANCH  17  19
ENDBRANCH  12  13
ENDBRANCH   2  12
TORSDOF 4
ENDMDL
MODEL 9
REMARK VINA RESULT:      -6.3      2.260      3.224
REMARK  Name = 
REMARK  4 active torsions:
REMARK  status: ('A' for Active; 'I' for Inactive)
REMARK    1  A    between atoms: C_7  and  C_8
REMARK    2  A    between atoms: N_9  and  N_10
REMARK    3  A    between atoms: N_10  and  C_11
REMARK    4  A    between atoms: C_15  and  N_16
REMARK                            x       y       z     vdW  Elec       q    Type
REMARK                         _______ _______ _______ _____ _____    ______ ____
ROOT
ATOM      1  C   UNL     1      19.108   9.835  36.895  0.00  0.00    +0.000 C 
ATOM      2  N   UNL     1      18.930   9.701  35.641  0.00  0.00    +0.000 NA
ENDROOT
BRANCH   1   9
ATOM      3  C   UNL     1      21.181  10.967  41.107  0.00  0.00    +0.000 C 
ATOM      4  C   UNL     1      21.328  10.372  39.697  0.00  0.00    +0.000 C 
ATOM      5  C   UNL     1      21.310   8.959  39.561  0.00  0.00    +0.000 C 
ATOM      6  C   UNL     1      22.571  11.147  39.044  0.00  0.00    +0.000 C 
ATOM      7  C   UNL     1      22.820  10.087  37.805  0.00  0.00    +0.000 C 
ATOM      8  C   UNL     1      21.540   9.778  37.216  0.00  0.00    +0.000 C 
ATOM      9  C   UNL     1      20.367  10.171  37.514  0.00  0.00    +0.000 C 
ATOM     10  C   UNL     1      20.298  11.192  38.767  0.00  0.00    +0.000 C 
ATOM     11  C   UNL     1      21.558  12.087  38.208  0.00  0.00    +0.000 C 
ENDBRANCH   1   9
BRANCH   2  12
ATOM     12  N   UNL     1      17.660   9.376  35.179  0.00  0.00    +0.000 NA
BRANCH  12  13
ATOM     13  C   UNL     1      16.733  10.382  34.735  0.00  0.00    +0.000 A 
ATOM     14  C   UNL     1      15.988  11.141  35.594  0.00  0.00    +0.000 A 
ATOM     15  C   UNL     1      15.108  12.096  35.119  0.00  0.00    +0.000 A 
ATOM     16  C   UNL     1      14.994  12.272  33.764  0.00  0.00    +0.000 A 
ATOM     17  C   UNL     1      15.724  11.529  32.856  0.00  0.00    +0.000 A 
ATOM     18  C   UNL     1      16.598  10.579  33.377  0.00  0.00    +0.000 A 
BRANCH  17  19
ATOM     19  N   UNL     1      15.588  11.729  31.448  0.00  0.00    +0.000 N 
ATOM     20  O   UNL     1      16.351  12.535  30.896  0.00  0.00    +0.000 OA
ATOM     21  O   UNL     1      14.635  11.032  30.783  0.00  0.00    +0.000 OA
ENDBRANCH  17  19
ENDBRANCH  12  13
ENDBRANCH   2  12
TORSDOF 4
ENDMDL
MODEL 10
REMARK VINA RESULT:      -6.2     20.033     21.242
REMARK  Name = 
REMARK  4 active torsions:
REMARK  status: ('A' for Active; 'I' for Inactive)
REMARK    1  A    between atoms: C_7  and  C_8
REMARK    2  A    between atoms: N_9  and  N_10
REMARK    3  A    between atoms: N_10  and  C_11
REMARK    4  A    between atoms: C_15  and  N_16
REMARK                            x       y       z     vdW  Elec       q    Type
REMARK                         _______ _______ _______ _____ _____    ______ ____
ROOT
ATOM      1  C   UNL     1      25.816   3.607  18.244  0.00  0.00    +0.000 C 
ATOM      2  N   UNL     1      24.568   3.629  18.499  0.00  0.00    +0.000 NA
ENDROOT
BRANCH   1   9
ATOM      3  C   UNL     1      26.776   7.085  15.036  0.00  0.00    +0.000 C 
ATOM      4  C   UNL     1      26.758   6.632  16.505  0.00  0.00    +0.000 C 
ATOM      5  C   UNL     1      25.675   7.050  17.322  0.00  0.00    +0.000 C 
ATOM      6  C   UNL     1      28.237   6.930  17.051  0.00  0.00    +0.000 C 
ATOM      7  C   UNL     1      27.867   6.815  18.655  0.00  0.00    +0.000 C 
ATOM      8  C   UNL     1      27.057   5.637  18.844  0.00  0.00    +0.000 C 
ATOM      9  C   UNL     1      26.627   4.776  18.011  0.00  0.00    +0.000 C 
ATOM     10  C   UNL     1      27.063   5.049  16.477  0.00  0.00    +0.000 C 
ATOM     11  C   UNL     1      28.620   5.369  16.895  0.00  0.00    +0.000 C 
ENDBRANCH   1   9
BRANCH   2  12
ATOM     12  N   UNL     1      23.907   2.424  18.705  0.00  0.00    +0.000 NA
BRANCH  12  13
ATOM     13  C   UNL     1      23.140   1.791  17.665  0.00  0.00    +0.000 A 
ATOM     14  C   UNL     1      23.711   1.174  16.586  0.00  0.00    +0.000 A 
ATOM     15  C   UNL     1      22.931   0.581  15.612  0.00  0.00    +0.000 A 
ATOM     16  C   UNL     1      21.567   0.620  15.744  0.00  0.00    +0.000 A 
ATOM     17  C   UNL     1      20.943   1.232  16.814  0.00  0.00    +0.000 A 
ATOM     18  C   UNL     1      21.766   1.817  17.773  0.00  0.00    +0.000 A 
BRANCH  17  19
ATOM     19  N   UNL     1      19.520   1.261  16.931  0.00  0.00    +0.000 N 
ATOM     20  O   UNL     1      19.019   2.013  17.779  0.00  0.00    +0.000 OA
ATOM     21  O   UNL     1      18.785   0.468  16.113  0.00  0.00    +0.000 OA
ENDBRANCH  17  19
ENDBRANCH  12  13
ENDBRANCH   2  12
TORSDOF 4
ENDMDL
