MODEL 1
REMARK VINA RESULT:      -7.7      0.000      0.000
REMARK  Name = 
REMARK  2 active torsions:
REMARK  status: ('A' for Active; 'I' for Inactive)
REMARK    1  A    between atoms: C_5  and  C_6
REMARK    2  A    between atoms: C_12  and  C_13
REMARK                            x       y       z     vdW  Elec       q    Type
REMARK                         _______ _______ _______ _____ _____    ______ ____
ROOT
ATOM      1  C   UNL     1      17.476  11.147  37.701  0.00  0.00    +0.000 C 
ATOM      2  N   UNL     1      15.924  11.304  37.615  0.00  0.00    +0.000 NA
ATOM      3  C   UNL     1      15.329  11.713  36.453  0.00  0.00    +0.000 C 
ATOM      4  O   UNL     1      14.273  12.430  36.453  0.00  0.00    +0.000 OA
ATOM      5  C   UNL     1      15.968  11.285  35.204  0.00  0.00    +0.000 A 
ATOM      6  C   UNL     1      15.517  11.585  33.920  0.00  0.00    +0.000 A 
ATOM      7  C   UNL     1      16.188  11.130  32.871  0.00  0.00    +0.000 A 
ATOM      8  S   UNL     1      17.471  10.265  33.642  0.00  0.00    +0.000 S 
ATOM      9  C   UNL     1      17.080  10.535  35.258  0.00  0.00    +0.000 A 
ATOM     10  N   UNL     1      17.631  10.163  36.446  0.00  0.00    +0.000 NA
ENDROOT
BRANCH   1  15
ATOM     11  C   UNL     1      17.594   6.844  41.707  0.00  0.00    +0.000 C 
ATOM     12  C   UNL     1      17.566   7.945  40.678  0.00  0.00    +0.000 A 
ATOM     13  C   UNL     1      18.507   8.012  39.681  0.00  0.00    +0.000 A 
ATOM     14  C   UNL     1      18.481   9.042  38.720  0.00  0.00    +0.000 A 
ATOM     15  C   UNL     1      17.502   9.997  38.773  0.00  0.00    +0.000 A 
ATOM     16  C   UNL     1      16.583   9.919  39.757  0.00  0.00    +0.000 A 
ATOM     17  C   UNL     1      16.593   8.907  40.719  0.00  0.00    +0.000 A 
ENDBRANCH   1  15
BRANCH   7  18
ATOM     18  C   UNL     1      15.897  11.323  31.409  0.00  0.00    +0.000 C 
ATOM     19  C   UNL     1      14.402  11.054  31.232  0.00  0.00    +0.000 C 
ATOM     20  C   UNL     1      16.155  12.752  30.994  0.00  0.00    +0.000 C 
ENDBRANCH   7  18
TORSDOF 2
ENDMDL
MODEL 2
REMARK VINA RESULT:      -7.4      2.618      3.416
REMARK  Name = 
REMARK  2 active torsions:
REMARK  status: ('A' for Active; 'I' for Inactive)
REMARK    1  A    between atoms: C_5  and  C_6
REMARK    2  A    between atoms: C_12  and  C_13
REMARK                            x       y       z     vdW  Elec       q    Type
REMARK                         _______ _______ _______ _____ _____    ______ ____
ROOT
ATOM      1  C   UNL     1      17.059   9.696  36.046  0.00  0.00    +0.000 C 
ATOM      2  N   UNL     1      17.782   9.888  34.675  0.00  0.00    +0.000 NA
ATOM      3  C   UNL     1      17.114  10.413  33.603  0.00  0.00    +0.000 C 
ATOM      4  O   UNL     1      17.365  10.045  32.407  0.00  0.00    +0.000 OA
ATOM      5  C   UNL     1      16.092  11.422  33.899  0.00  0.00    +0.000 A 
ATOM      6  C   UNL     1      15.309  12.083  32.953  0.00  0.00    +0.000 A 
ATOM      7  C   UNL     1      14.421  12.981  33.356  0.00  0.00    +0.000 A 
ATOM      8  S   UNL     1      14.648  12.935  35.070  0.00  0.00    +0.000 S 
ATOM      9  C   UNL     1      15.863  11.772  35.175  0.00  0.00    +0.000 A 
ATOM     10  N   UNL     1      16.556  11.210  36.202  0.00  0.00    +0.000 NA
ENDROOT
BRANCH   1  15
ATOM     11  C   UNL     1      21.786  10.398  39.473  0.00  0.00    +0.000 C 
ATOM     12  C   UNL     1      20.577  10.216  38.592  0.00  0.00    +0.000 A 
ATOM     13  C   UNL     1      20.704   9.879  37.267  0.00  0.00    +0.000 A 
ATOM     14  C   UNL     1      19.574   9.710  36.444  0.00  0.00    +0.000 A 
ATOM     15  C   UNL     1      18.320   9.882  36.966  0.00  0.00    +0.000 A 
ATOM     16  C   UNL     1      18.209  10.213  38.270  0.00  0.00    +0.000 A 
ATOM     17  C   UNL     1      19.317  10.386  39.101  0.00  0.00    +0.000 A 
ENDBRANCH   1  15
BRANCH   7  18
ATOM     18  C   UNL     1      13.476  13.809  32.531  0.00  0.00    +0.000 C 
ATOM     19  C   UNL     1      13.321  15.141  33.268  0.00  0.00    +0.000 C 
ATOM     20  C   UNL     1      14.068  14.107  31.174  0.00  0.00    +0.000 C 
ENDBRANCH   7  18
TORSDOF 2
ENDMDL
MODEL 3
REMARK VINA RESULT:      -6.9     28.900     31.757
REMARK  Name = 
REMARK  2 active torsions:
REMARK  status: ('A' for Active; 'I' for Inactive)
REMARK    1  A    between atoms: C_5  and  C_6
REMARK    2  A    between atoms: C_12  and  C_13
REMARK                            x       y       z     vdW  Elec       q    Type
REMARK                         _______ _______ _______ _____ _____    ______ ____
ROOT
ATOM      1  C   UNL     1      32.596  20.207  11.751  0.00  0.00    +0.000 C 
ATOM      2  N   UNL     1      32.132  20.463  10.282  0.00  0.00    +0.000 NA
ATOM      3  C   UNL     1      30.830  20.783  10.008  0.00  0.00    +0.000 C 
ATOM      4  O   UNL     1      30.256  20.406   8.932  0.00  0.00    +0.000 OA
ATOM      5  C   UNL     1      30.127  21.582  11.017  0.00  0.00    +0.000 A 
ATOM      6  C   UNL     1      28.806  22.018  10.926  0.00  0.00    +0.000 A 
ATOM      7  C   UNL     1      28.290  22.741  11.911  0.00  0.00    +0.000 A 
ATOM      8  S   UNL     1      29.632  22.837  12.997  0.00  0.00    +0.000 S 
ATOM      9  C   UNL     1      30.775  21.949  12.134  0.00  0.00    +0.000 A 
ATOM     10  N   UNL     1      32.070  21.595  12.355  0.00  0.00    +0.000 NA
ENDROOT
BRANCH   1  15
ATOM     11  C   UNL     1      38.146  22.043  11.111  0.00  0.00    +0.000 C 
ATOM     12  C   UNL     1      36.722  21.575  11.272  0.00  0.00    +0.000 A 
ATOM     13  C   UNL     1      35.681  22.237  10.670  0.00  0.00    +0.000 A 
ATOM     14  C   UNL     1      34.351  21.800  10.821  0.00  0.00    +0.000 A 
ATOM     15  C   UNL     1      34.081  20.693  11.580  0.00  0.00    +0.000 A 
ATOM     16  C   UNL     1      35.113  20.051  12.167  0.00  0.00    +0.000 A 
ATOM     17  C   UNL     1      36.438  20.470  12.029  0.00  0.00    +0.000 A 
ENDBRANCH   1  15
BRANCH   7  18
ATOM     18  C   UNL     1      26.907  23.316  12.034  0.00  0.00    +0.000 C 
ATOM     19  C   UNL     1      26.049  22.592  10.996  0.00  0.00    +0.000 C 
ATOM     20  C   UNL     1      26.322  23.020  13.395  0.00  0.00    +0.000 C 
ENDBRANCH   7  18
TORSDOF 2
ENDMDL
MODEL 4
REMARK VINA RESULT:      -6.8      1.558      7.330
REMARK  Name = 
REMARK  2 active torsions:
REMARK  status: ('A' for Active; 'I' for Inactive)
REMARK    1  A    between atoms: C_5  and  C_6
REMARK    2  A    between atoms: C_12  and  C_13
REMARK                            x       y       z     vdW  Elec       q    Type
REMARK                         _______ _______ _______ _____ _____    ______ ____
ROOT
ATOM      1  C   UNL     1      14.942  10.763  34.255  0.00  0.00    +0.000 C 
ATOM      2  N   UNL     1      14.628  11.899  35.279  0.00  0.00    +0.000 NA
ATOM      3  C   UNL     1      14.894  11.730  36.611  0.00  0.00    +0.000 C 
ATOM      4  O   UNL     1      14.161  12.252  37.516  0.00  0.00    +0.000 OA
ATOM      5  C   UNL     1      16.068  10.916  36.944  0.00  0.00    +0.000 A 
ATOM      6  C   UNL     1      16.515  10.632  38.234  0.00  0.00    +0.000 A 
ATOM      7  C   UNL     1      17.598   9.884  38.398  0.00  0.00    +0.000 A 
ATOM      8  S   UNL     1      18.030   9.553  36.757  0.00  0.00    +0.000 S 
ATOM      9  C   UNL     1      16.804  10.386  35.955  0.00  0.00    +0.000 A 
ATOM     10  N   UNL     1      16.486  10.584  34.647  0.00  0.00    +0.000 NA
ENDROOT
BRANCH   1  15
ATOM     11  C   UNL     1      16.022  14.197  29.604  0.00  0.00    +0.000 C 
ATOM     12  C   UNL     1      15.748  13.315  30.796  0.00  0.00    +0.000 A 
ATOM     13  C   UNL     1      16.547  12.236  31.082  0.00  0.00    +0.000 A 
ATOM     14  C   UNL     1      16.291  11.412  32.195  0.00  0.00    +0.000 A 
ATOM     15  C   UNL     1      15.229  11.685  33.014  0.00  0.00    +0.000 A 
ATOM     16  C   UNL     1      14.452  12.749  32.722  0.00  0.00    +0.000 A 
ATOM     17  C   UNL     1      14.689  13.576  31.623  0.00  0.00    +0.000 A 
ENDBRANCH   1  15
BRANCH   7  18
ATOM     18  C   UNL     1      18.260   9.450  39.675  0.00  0.00    +0.000 C 
ATOM     19  C   UNL     1      17.171   9.474  40.750  0.00  0.00    +0.000 C 
ATOM     20  C   UNL     1      18.759   8.029  39.565  0.00  0.00    +0.000 C 
ENDBRANCH   7  18
TORSDOF 2
ENDMDL
MODEL 5
REMARK VINA RESULT:      -6.7      2.267      7.337
REMARK  Name = 
REMARK  2 active torsions:
REMARK  status: ('A' for Active; 'I' for Inactive)
REMARK    1  A    between atoms: C_5  and  C_6
REMARK    2  A    between atoms: C_12  and  C_13
REMARK                            x       y       z     vdW  Elec       q    Type
REMARK                         _______ _______ _______ _____ _____    ______ ____
ROOT
ATOM      1  C   UNL     1      16.891  11.999  36.359  0.00  0.00    +0.000 C 
ATOM      2  N   UNL     1      17.899  10.808  36.390  0.00  0.00    +0.000 NA
ATOM      3  C   UNL     1      18.195  10.176  37.568  0.00  0.00    +0.000 C 
ATOM      4  O   UNL     1      19.354   9.694  37.801  0.00  0.00    +0.000 OA
ATOM      5  C   UNL     1      17.110  10.082  38.550  0.00  0.00    +0.000 A 
ATOM      6  C   UNL     1      17.201   9.473  39.800  0.00  0.00    +0.000 A 
ATOM      7  C   UNL     1      16.139   9.452  40.594  0.00  0.00    +0.000 A 
ATOM      8  S   UNL     1      14.975  10.282  39.620  0.00  0.00    +0.000 S 
ATOM      9  C   UNL     1      15.910  10.609  38.257  0.00  0.00    +0.000 A 
ATOM     10  N   UNL     1      15.676  11.231  37.070  0.00  0.00    +0.000 NA
ENDROOT
BRANCH   1  15
ATOM     11  C   UNL     1      14.889  11.121  30.899  0.00  0.00    +0.000 C 
ATOM     12  C   UNL     1      15.405  11.344  32.297  0.00  0.00    +0.000 A 
ATOM     13  C   UNL     1      16.551  10.731  32.741  0.00  0.00    +0.000 A 
ATOM     14  C   UNL     1      17.032  10.940  34.048  0.00  0.00    +0.000 A 
ATOM     15  C   UNL     1      16.353  11.769  34.899  0.00  0.00    +0.000 A 
ATOM     16  C   UNL     1      15.229  12.366  34.451  0.00  0.00    +0.000 A 
ATOM     17  C   UNL     1      14.735  12.170  33.159  0.00  0.00    +0.000 A 
ENDBRANCH   1  15
BRANCH   7  18
ATOM     18  C   UNL     1      16.000   8.862  41.968  0.00  0.00    +0.000 C 
ATOM     19  C   UNL     1      16.642   7.475  41.904  0.00  0.00    +0.000 C 
ATOM     20  C   UNL     1      16.771   9.674  42.982  0.00  0.00    +0.000 C 
ENDBRANCH   7  18
TORSDOF 2
ENDMDL
MODEL 6
REMARK VINA RESULT:      -6.6     20.914     23.312
REMARK  Name = 
REMARK  2 active torsions:
REMARK  status: ('A' for Active; 'I' for Inactive)
REMARK    1  A    between atoms: C_5  and  C_6
REMARK    2  A    between atoms: C_12  and  C_13
REMARK                            x       y       z     vdW  Elec       q    Type
REMARK                         _______ _______ _______ _____ _____    ______ ____
ROOT
ATOM      1  C   UNL     1      28.136  23.508  23.324  0.00  0.00    +0.000 C 
ATOM      2  N   UNL     1      29.333  23.889  22.396  0.00  0.00    +0.000 NA
ATOM      3  C   UNL     1      29.192  24.858  21.440  0.00  0.00    +0.000 C 
ATOM      4  O   UNL     1      29.809  24.798  20.324  0.00  0.00    +0.000 OA
ATOM      5  C   UNL     1      28.294  25.971  21.765  0.00  0.00    +0.000 A 
ATOM      6  C   UNL     1      28.022  27.059  20.936  0.00  0.00    +0.000 A 
ATOM      7  C   UNL     1      27.191  28.004  21.354  0.00  0.00    +0.000 A 
ATOM      8  S   UNL     1      26.762  27.407  22.920  0.00  0.00    +0.000 S 
ATOM      9  C   UNL     1      27.666  25.985  22.951  0.00  0.00    +0.000 A 
ATOM     10  N   UNL     1      27.841  24.989  23.861  0.00  0.00    +0.000 NA
ENDROOT
BRANCH   1  15
ATOM     11  C   UNL     1      31.316  21.922  28.010  0.00  0.00    +0.000 C 
ATOM     12  C   UNL     1      30.504  22.328  26.807  0.00  0.00    +0.000 A 
ATOM     13  C   UNL     1      31.109  22.729  25.641  0.00  0.00    +0.000 A 
ATOM     14  C   UNL     1      30.350  23.109  24.517  0.00  0.00    +0.000 A 
ATOM     15  C   UNL     1      28.983  23.081  24.578  0.00  0.00    +0.000 A 
ATOM     16  C   UNL     1      28.401  22.685  25.730  0.00  0.00    +0.000 A 
ATOM     17  C   UNL     1      29.136  22.305  26.854  0.00  0.00    +0.000 A 
ENDBRANCH   1  15
BRANCH   7  18
ATOM     18  C   UNL     1      26.750  29.253  20.645  0.00  0.00    +0.000 C 
ATOM     19  C   UNL     1      26.490  28.851  19.193  0.00  0.00    +0.000 C 
ATOM     20  C   UNL     1      25.448  29.764  21.216  0.00  0.00    +0.000 C 
ENDBRANCH   7  18
TORSDOF 2
ENDMDL
MODEL 7
REMARK VINA RESULT:      -6.5      2.827      7.223
REMARK  Name = 
REMARK  2 active torsions:
REMARK  status: ('A' for Active; 'I' for Inactive)
REMARK    1  A    between atoms: C_5  and  C_6
REMARK    2  A    between atoms: C_12  and  C_13
REMARK                            x       y       z     vdW  Elec       q    Type
REMARK                         _______ _______ _______ _____ _____    ______ ____
ROOT
ATOM      1  C   UNL     1      17.480   9.183  35.618  0.00  0.00    +0.000 C 
ATOM      2  N   UNL     1      17.044   9.934  36.915  0.00  0.00    +0.000 NA
ATOM      3  C   UNL     1      17.830   9.903  38.035  0.00  0.00    +0.000 C 
ATOM      4  O   UNL     1      17.330   9.914  39.210  0.00  0.00    +0.000 OA
ATOM      5  C   UNL     1      19.279   9.855  37.816  0.00  0.00    +0.000 A 
ATOM      6  C   UNL     1      20.248   9.828  38.818  0.00  0.00    +0.000 A 
ATOM      7  C   UNL     1      21.531   9.791  38.483  0.00  0.00    +0.000 A 
ATOM      8  S   UNL     1      21.428   9.794  36.757  0.00  0.00    +0.000 S 
ATOM      9  C   UNL     1      19.755   9.841  36.561  0.00  0.00    +0.000 A 
ATOM     10  N   UNL     1      18.923   9.868  35.484  0.00  0.00    +0.000 NA
ENDROOT
BRANCH   1  15
ATOM     11  C   UNL     1      14.876  12.790  31.772  0.00  0.00    +0.000 C 
ATOM     12  C   UNL     1      15.541  11.867  32.761  0.00  0.00    +0.000 A 
ATOM     13  C   UNL     1      15.273  11.948  34.104  0.00  0.00    +0.000 A 
ATOM     14  C   UNL     1      15.895  11.086  35.028  0.00  0.00    +0.000 A 
ATOM     15  C   UNL     1      16.784  10.144  34.586  0.00  0.00    +0.000 A 
ATOM     16  C   UNL     1      17.039  10.074  33.262  0.00  0.00    +0.000 A 
ATOM     17  C   UNL     1      16.433  10.921  32.332  0.00  0.00    +0.000 A 
ENDBRANCH   1  15
BRANCH   7  18
ATOM     18  C   UNL     1      22.738   9.756  39.377  0.00  0.00    +0.000 C 
ATOM     19  C   UNL     1      23.756   8.848  38.683  0.00  0.00    +0.000 C 
ATOM     20  C   UNL     1      23.359  11.127  39.496  0.00  0.00    +0.000 C 
ENDBRANCH   7  18
TORSDOF 2
ENDMDL
MODEL 8
REMARK VINA RESULT:      -6.5     18.527     20.244
REMARK  Name = 
REMARK  2 active torsions:
REMARK  status: ('A' for Active; 'I' for Inactive)
REMARK    1  A    between atoms: C_5  and  C_6
REMARK    2  A    between atoms: C_12  and  C_13
REMARK                            x       y       z     vdW  Elec       q    Type
REMARK                         _______ _______ _______ _____ _____    ______ ____
ROOT
ATOM      1  C   UNL     1      32.826   0.542  34.677  0.00  0.00    +0.000 C 
ATOM      2  N   UNL     1      33.593   1.041  33.411  0.00  0.00    +0.000 NA
ATOM      3  C   UNL     1      33.759   2.379  33.179  0.00  0.00    +0.000 C 
ATOM      4  O   UNL     1      33.777   2.861  31.997  0.00  0.00    +0.000 OA
ATOM      5  C   UNL     1      33.914   3.233  34.362  0.00  0.00    +0.000 A 
ATOM      6  C   UNL     1      34.103   4.614  34.342  0.00  0.00    +0.000 A 
ATOM      7  C   UNL     1      34.236   5.269  35.488  0.00  0.00    +0.000 A 
ATOM      8  S   UNL     1      34.102   3.978  36.631  0.00  0.00    +0.000 S 
ATOM      9  C   UNL     1      33.884   2.677  35.583  0.00  0.00    +0.000 A 
ATOM     10  N   UNL     1      33.709   1.338  35.752  0.00  0.00    +0.000 NA
ENDROOT
BRANCH   1  15
ATOM     11  C   UNL     1      35.704  -4.545  35.329  0.00  0.00    +0.000 C 
ATOM     12  C   UNL     1      34.963  -3.243  35.161  0.00  0.00    +0.000 A 
ATOM     13  C   UNL     1      33.863  -3.149  34.345  0.00  0.00    +0.000 A 
ATOM     14  C   UNL     1      33.172  -1.932  34.187  0.00  0.00    +0.000 A 
ATOM     15  C   UNL     1      33.597  -0.817  34.856  0.00  0.00    +0.000 A 
ATOM     16  C   UNL     1      34.680  -0.922  35.655  0.00  0.00    +0.000 A 
ATOM     17  C   UNL     1      35.378  -2.119  35.824  0.00  0.00    +0.000 A 
ENDBRANCH   1  15
BRANCH   7  18
ATOM     18  C   UNL     1      34.445   6.740  35.715  0.00  0.00    +0.000 C 
ATOM     19  C   UNL     1      34.110   6.997  37.185  0.00  0.00    +0.000 C 
ATOM     20  C   UNL     1      35.893   7.115  35.506  0.00  0.00    +0.000 C 
ENDBRANCH   7  18
TORSDOF 2
ENDMDL
MODEL 9
REMARK VINA RESULT:      -6.3      3.670      6.502
REMARK  Name = 
REMARK  2 active torsions:
REMARK  status: ('A' for Active; 'I' for Inactive)
REMARK    1  A    between atoms: C_5  and  C_6
REMARK    2  A    between atoms: C_12  and  C_13
REMARK                            x       y       z     vdW  Elec       q    Type
REMARK                         _______ _______ _______ _____ _____    ______ ____
ROOT
ATOM      1  C   UNL     1      16.930  12.015  35.994  0.00  0.00    +0.000 C 
ATOM      2  N   UNL     1      17.094  10.496  35.673  0.00  0.00    +0.000 NA
ATOM      3  C   UNL     1      18.291   9.866  35.876  0.00  0.00    +0.000 C 
ATOM      4  O   UNL     1      18.689   8.916  35.122  0.00  0.00    +0.000 OA
ATOM      5  C   UNL     1      19.096  10.340  37.007  0.00  0.00    +0.000 A 
ATOM      6  C   UNL     1      20.336   9.828  37.388  0.00  0.00    +0.000 A 
ATOM      7  C   UNL     1      20.959  10.346  38.438  0.00  0.00    +0.000 A 
ATOM      8  S   UNL     1      19.834  11.565  38.929  0.00  0.00    +0.000 S 
ATOM      9  C   UNL     1      18.634  11.345  37.767  0.00  0.00    +0.000 A 
ATOM     10  N   UNL     1      17.436  11.938  37.513  0.00  0.00    +0.000 NA
ENDROOT
BRANCH   1  15
ATOM     11  C   UNL     1      11.211  11.884  37.359  0.00  0.00    +0.000 C 
ATOM     12  C   UNL     1      12.677  11.921  37.007  0.00  0.00    +0.000 A 
ATOM     13  C   UNL     1      13.146  12.719  35.994  0.00  0.00    +0.000 A 
ATOM     14  C   UNL     1      14.515  12.752  35.665  0.00  0.00    +0.000 A 
ATOM     15  C   UNL     1      15.402  11.979  36.364  0.00  0.00    +0.000 A 
ATOM     16  C   UNL     1      14.928  11.199  37.357  0.00  0.00    +0.000 A 
ATOM     17  C   UNL     1      13.574  11.152  37.698  0.00  0.00    +0.000 A 
ENDBRANCH   1  15
BRANCH   7  18
ATOM     18  C   UNL     1      22.286   9.965  39.029  0.00  0.00    +0.000 C 
ATOM     19  C   UNL     1      23.058   9.247  37.920  0.00  0.00    +0.000 C 
ATOM     20  C   UNL     1      23.077  11.194  39.411  0.00  0.00    +0.000 C 
ENDBRANCH   7  18
TORSDOF 2
ENDMDL
MODEL 10
REMARK VINA RESULT:      -6.2      4.616      7.551
REMARK  Name = 
REMARK  2 active torsions:
REMARK  status: ('A' for Active; 'I' for Inactive)
REMARK    1  A    between atoms: C_5  and  C_6
REMARK    2  A    between atoms: C_12  and  C_13
REMARK                            x       y       z     vdW  Elec       q    Type
REMARK                         _______ _______ _______ _____ _____    ______ ____
ROOT
ATOM      1  C   UNL     1      19.382   9.903  37.529  0.00  0.00    +0.000 C 
ATOM      2  N   UNL     1      19.706  11.391  37.874  0.00  0.00    +0.000 NA
ATOM      3  C   UNL     1      20.949  11.747  38.320  0.00  0.00    +0.000 C 
ATOM      4  O   UNL     1      21.117  12.691  39.163  0.00  0.00    +0.000 OA
ATOM      5  C   UNL     1      22.081  10.986  37.780  0.00  0.00    +0.000 A 
ATOM      6  C   UNL     1      23.422  11.196  38.098  0.00  0.00    +0.000 A 
ATOM      7  C   UNL     1      24.351  10.438  37.532  0.00  0.00    +0.000 A 
ATOM      8  S   UNL     1      23.384   9.406  36.537  0.00  0.00    +0.000 S 
ATOM      9  C   UNL     1      21.850  10.000  36.900  0.00  0.00    +0.000 A 
ATOM     10  N   UNL     1      20.589   9.686  36.497  0.00  0.00    +0.000 NA
ENDROOT
BRANCH   1  15
ATOM     11  C   UNL     1      15.365  10.939  33.359  0.00  0.00    +0.000 C 
ATOM     12  C   UNL     1      16.397  10.671  34.425  0.00  0.00    +0.000 A 
ATOM     13  C   UNL     1      17.344   9.690  34.270  0.00  0.00    +0.000 A 
ATOM     14  C   UNL     1      18.307   9.439  35.267  0.00  0.00    +0.000 A 
ATOM     15  C   UNL     1      18.307  10.185  36.415  0.00  0.00    +0.000 A 
ATOM     16  C   UNL     1      17.371  11.147  36.555  0.00  0.00    +0.000 A 
ATOM     17  C   UNL     1      16.408  11.409  35.579  0.00  0.00    +0.000 A 
ENDBRANCH   1  15
BRANCH   7  18
ATOM     18  C   UNL     1      25.842  10.478  37.717  0.00  0.00    +0.000 C 
ATOM     19  C   UNL     1      26.107  11.489  38.835  0.00  0.00    +0.000 C 
ATOM     20  C   UNL     1      26.362   9.138  38.183  0.00  0.00    +0.000 C 
ENDBRANCH   7  18
TORSDOF 2
ENDMDL
