MODEL 1
REMARK VINA RESULT:      -7.3      0.000      0.000
REMARK  Name = 
REMARK  8 active torsions:
REMARK  status: ('A' for Active; 'I' for Inactive)
REMARK    1  A    between atoms: C_2  and  O_3
REMARK    2  A    between atoms: O_3  and  C_4
REMARK    3  A    between atoms: C_7  and  N_8
REMARK    4  A    between atoms: C_11  and  N_12
REMARK    5  A    between atoms: N_12  and  C_13
REMARK    6  A    between atoms: C_16  and  C_17
REMARK    7  A    between atoms: C_21  and  S_22
REMARK    8  A    between atoms: S_22  and  C_23
REMARK                            x       y       z     vdW  Elec       q    Type
REMARK                         _______ _______ _______ _____ _____    ______ ____
ROOT
ATOM      1  N   UNL     1      38.178   4.121  16.091  0.00  0.00    +0.000 N 
ATOM      2  C   UNL     1      38.956   3.797  14.932  0.00  0.00    +0.000 C 
ATOM      3  O   UNL     1      39.984   4.448  14.601  0.00  0.00    +0.000 OA
ATOM      4  C   UNL     1      38.343   2.660  14.296  0.00  0.00    +0.000 C 
ATOM      5  C   UNL     1      37.273   2.271  14.961  0.00  0.00    +0.000 C 
ATOM      6  C   UNL     1      37.133   3.161  16.095  0.00  0.00    +0.000 C 
ATOM      7  O   UNL     1      36.224   3.101  16.961  0.00  0.00    +0.000 OA
ENDROOT
BRANCH   1  11
ATOM      8  C   UNL     1      38.954   7.215  18.826  0.00  0.00    +0.000 A 
ATOM      9  C   UNL     1      38.358   7.499  17.593  0.00  0.00    +0.000 A 
ATOM     10  C   UNL     1      38.102   6.469  16.686  0.00  0.00    +0.000 A 
ATOM     11  C   UNL     1      38.433   5.177  17.003  0.00  0.00    +0.000 A 
ATOM     12  C   UNL     1      39.017   4.919  18.220  0.00  0.00    +0.000 A 
ATOM     13  C   UNL     1      39.283   5.927  19.140  0.00  0.00    +0.000 A 
BRANCH   8  14
ATOM     14  O   UNL     1      39.199   8.252  19.713  0.00  0.00    +0.000 OA
BRANCH  14  16
ATOM     15  C   UNL     1      38.575  10.085  21.080  0.00  0.00    +0.000 C 
ATOM     16  C   UNL     1      38.192   8.704  20.587  0.00  0.00    +0.000 C 
ENDBRANCH  14  16
ENDBRANCH   8  14
ENDBRANCH   1  11
BRANCH   4  17
ATOM     17  N   UNL     1      38.828   2.035  13.103  0.00  0.00    +0.000 NA
BRANCH  17  18
ATOM     18  C   UNL     1      39.453   0.776  13.185  0.00  0.00    +0.000 A 
ATOM     19  C   UNL     1      39.218  -0.210  12.237  0.00  0.00    +0.000 A 
ATOM     20  C   UNL     1      39.845  -1.432  12.346  0.00  0.00    +0.000 A 
ATOM     21  C   UNL     1      40.717  -1.737  13.374  0.00  0.00    +0.000 A 
ATOM     22  C   UNL     1      40.943  -0.741  14.317  0.00  0.00    +0.000 A 
ATOM     23  C   UNL     1      40.318   0.482  14.212  0.00  0.00    +0.000 A 
BRANCH  21  24
ATOM     24  C   UNL     1      41.374  -3.073  13.454  0.00  0.00    +0.000 C 
ATOM     25  C   UNL     1      41.693  -3.596  12.063  0.00  0.00    +0.000 C 
ENDBRANCH  21  24
ENDBRANCH  17  18
ENDBRANCH   4  17
BRANCH   5  26
ATOM     26  S   UNL     1      36.190   0.886  14.532  0.00  0.00    +0.000 S 
BRANCH  26  27
ATOM     27  C   UNL     1      36.923  -0.612  15.137  0.00  0.00    +0.000 A 
ATOM     28  C   UNL     1      36.792  -1.767  14.403  0.00  0.00    +0.000 A 
ATOM     29  C   UNL     1      37.366  -2.946  14.880  0.00  0.00    +0.000 A 
ATOM     30  C   UNL     1      38.045  -2.907  16.071  0.00  0.00    +0.000 A 
ATOM     31  C   UNL     1      38.683  -4.136  16.636  0.00  0.00    +0.000 C 
ATOM     32  C   UNL     1      38.189  -1.763  16.821  0.00  0.00    +0.000 A 
ATOM     33  C   UNL     1      37.607  -0.595  16.328  0.00  0.00    +0.000 A 
ENDBRANCH  26  27
ENDBRANCH   5  26
TORSDOF 8
ENDMDL
MODEL 2
REMARK VINA RESULT:      -7.2      3.875      8.711
REMARK  Name = 
REMARK  8 active torsions:
REMARK  status: ('A' for Active; 'I' for Inactive)
REMARK    1  A    between atoms: C_2  and  O_3
REMARK    2  A    between atoms: O_3  and  C_4
REMARK    3  A    between atoms: C_7  and  N_8
REMARK    4  A    between atoms: C_11  and  N_12
REMARK    5  A    between atoms: N_12  and  C_13
REMARK    6  A    between atoms: C_16  and  C_17
REMARK    7  A    between atoms: C_21  and  S_22
REMARK    8  A    between atoms: S_22  and  C_23
REMARK                            x       y       z     vdW  Elec       q    Type
REMARK                         _______ _______ _______ _____ _____    ______ ____
ROOT
ATOM      1  N   UNL     1      36.330   2.303  15.358  0.00  0.00    +0.000 N 
ATOM      2  C   UNL     1      35.432   3.375  15.044  0.00  0.00    +0.000 C 
ATOM      3  O   UNL     1      34.183   3.215  14.971  0.00  0.00    +0.000 OA
ATOM      4  C   UNL     1      36.219   4.564  14.850  0.00  0.00    +0.000 C 
ATOM      5  C   UNL     1      37.502   4.310  15.017  0.00  0.00    +0.000 C 
ATOM      6  C   UNL     1      37.616   2.902  15.338  0.00  0.00    +0.000 C 
ATOM      7  O   UNL     1      38.690   2.290  15.565  0.00  0.00    +0.000 OA
ENDROOT
BRANCH   1  11
ATOM      8  C   UNL     1      35.232  -1.668  16.184  0.00  0.00    +0.000 A 
ATOM      9  C   UNL     1      36.033  -1.376  15.076  0.00  0.00    +0.000 A 
ATOM     10  C   UNL     1      36.396  -0.056  14.804  0.00  0.00    +0.000 A 
ATOM     11  C   UNL     1      35.967   0.957  15.623  0.00  0.00    +0.000 A 
ATOM     12  C   UNL     1      35.181   0.649  16.707  0.00  0.00    +0.000 A 
ATOM     13  C   UNL     1      34.805  -0.657  16.999  0.00  0.00    +0.000 A 
BRANCH   8  14
ATOM     14  O   UNL     1      34.882  -2.986  16.437  0.00  0.00    +0.000 OA
BRANCH  14  16
ATOM     15  C   UNL     1      33.574  -4.362  15.019  0.00  0.00    +0.000 C 
ATOM     16  C   UNL     1      34.978  -3.961  15.425  0.00  0.00    +0.000 C 
ENDBRANCH  14  16
ENDBRANCH   8  14
ENDBRANCH   1  11
BRANCH   4  17
ATOM     17  N   UNL     1      35.684   5.850  14.521  0.00  0.00    +0.000 NA
BRANCH  17  18
ATOM     18  C   UNL     1      35.351   6.141  13.184  0.00  0.00    +0.000 A 
ATOM     19  C   UNL     1      36.139   5.698  12.131  0.00  0.00    +0.000 A 
ATOM     20  C   UNL     1      35.785   6.000  10.834  0.00  0.00    +0.000 A 
ATOM     21  C   UNL     1      34.662   6.739  10.517  0.00  0.00    +0.000 A 
ATOM     22  C   UNL     1      33.883   7.178  11.581  0.00  0.00    +0.000 A 
ATOM     23  C   UNL     1      34.232   6.878  12.879  0.00  0.00    +0.000 A 
BRANCH  21  24
ATOM     24  C   UNL     1      34.317   7.043   9.098  0.00  0.00    +0.000 C 
ATOM     25  C   UNL     1      35.007   6.068   8.159  0.00  0.00    +0.000 C 
ENDBRANCH  21  24
ENDBRANCH  17  18
ENDBRANCH   4  17
BRANCH   5  26
ATOM     26  S   UNL     1      38.858   5.500  14.873  0.00  0.00    +0.000 S 
BRANCH  26  27
ATOM     27  C   UNL     1      39.554   5.761  16.484  0.00  0.00    +0.000 A 
ATOM     28  C   UNL     1      38.788   5.502  17.595  0.00  0.00    +0.000 A 
ATOM     29  C   UNL     1      39.335   5.710  18.863  0.00  0.00    +0.000 A 
ATOM     30  C   UNL     1      40.624   6.168  18.951  0.00  0.00    +0.000 A 
ATOM     31  C   UNL     1      41.267   6.411  20.280  0.00  0.00    +0.000 C 
ATOM     32  C   UNL     1      41.408   6.433  17.853  0.00  0.00    +0.000 A 
ATOM     33  C   UNL     1      40.844   6.220  16.595  0.00  0.00    +0.000 A 
ENDBRANCH  26  27
ENDBRANCH   5  26
TORSDOF 8
ENDMDL
MODEL 3
REMARK VINA RESULT:      -7.0      1.010      3.190
REMARK  Name = 
REMARK  8 active torsions:
REMARK  status: ('A' for Active; 'I' for Inactive)
REMARK    1  A    between atoms: C_2  and  O_3
REMARK    2  A    between atoms: O_3  and  C_4
REMARK    3  A    between atoms: C_7  and  N_8
REMARK    4  A    between atoms: C_11  and  N_12
REMARK    5  A    between atoms: N_12  and  C_13
REMARK    6  A    between atoms: C_16  and  C_17
REMARK    7  A    between atoms: C_21  and  S_22
REMARK    8  A    between atoms: S_22  and  C_23
REMARK                            x       y       z     vdW  Elec       q    Type
REMARK                         _______ _______ _______ _____ _____    ______ ____
ROOT
ATOM      1  N   UNL     1      38.351   4.439  16.107  0.00  0.00    +0.000 N 
ATOM      2  C   UNL     1      37.288   3.484  15.991  0.00  0.00    +0.000 C 
ATOM      3  O   UNL     1      36.362   3.394  16.842  0.00  0.00    +0.000 OA
ATOM      4  C   UNL     1      37.508   2.725  14.789  0.00  0.00    +0.000 C 
ATOM      5  C   UNL     1      38.600   3.131  14.171  0.00  0.00    +0.000 C 
ATOM      6  C   UNL     1      39.160   4.206  14.965  0.00  0.00    +0.000 C 
ATOM      7  O   UNL     1      40.208   4.845  14.691  0.00  0.00    +0.000 OA
ENDROOT
BRANCH   1  11
ATOM      8  C   UNL     1      38.816   7.280  19.166  0.00  0.00    +0.000 A 
ATOM      9  C   UNL     1      39.362   6.001  19.306  0.00  0.00    +0.000 A 
ATOM     10  C   UNL     1      39.205   5.059  18.288  0.00  0.00    +0.000 A 
ATOM     11  C   UNL     1      38.516   5.386  17.149  0.00  0.00    +0.000 A 
ATOM     12  C   UNL     1      37.989   6.650  17.031  0.00  0.00    +0.000 A 
ATOM     13  C   UNL     1      38.130   7.606  18.030  0.00  0.00    +0.000 A 
BRANCH   8  14
ATOM     14  O   UNL     1      38.983   8.202  20.189  0.00  0.00    +0.000 OA
BRANCH  14  16
ATOM     15  C   UNL     1      38.503  10.510  20.430  0.00  0.00    +0.000 C 
ATOM     16  C   UNL     1      37.951   9.101  20.521  0.00  0.00    +0.000 C 
ENDBRANCH  14  16
ENDBRANCH   8  14
ENDBRANCH   1  11
BRANCH   4  17
ATOM     17  N   UNL     1      36.658   1.671  14.324  0.00  0.00    +0.000 NA
BRANCH  17  18
ATOM     18  C   UNL     1      36.945   0.340  14.682  0.00  0.00    +0.000 A 
ATOM     19  C   UNL     1      36.812  -0.698  13.771  0.00  0.00    +0.000 A 
ATOM     20  C   UNL     1      37.100  -1.989  14.154  0.00  0.00    +0.000 A 
ATOM     21  C   UNL     1      37.525  -2.316  15.427  0.00  0.00    +0.000 A 
ATOM     22  C   UNL     1      37.653  -1.267  16.331  0.00  0.00    +0.000 A 
ATOM     23  C   UNL     1      37.366   0.026  15.952  0.00  0.00    +0.000 A 
BRANCH  21  24
ATOM     24  C   UNL     1      37.826  -3.728  15.799  0.00  0.00    +0.000 C 
ATOM     25  C   UNL     1      38.982  -3.787  16.785  0.00  0.00    +0.000 C 
ENDBRANCH  21  24
ENDBRANCH  17  18
ENDBRANCH   4  17
BRANCH   5  26
ATOM     26  S   UNL     1      39.266   2.467  12.624  0.00  0.00    +0.000 S 
BRANCH  26  27
ATOM     27  C   UNL     1      39.886   0.834  12.932  0.00  0.00    +0.000 A 
ATOM     28  C   UNL     1      39.780  -0.120  11.949  0.00  0.00    +0.000 A 
ATOM     29  C   UNL     1      40.266  -1.405  12.191  0.00  0.00    +0.000 A 
ATOM     30  C   UNL     1      40.836  -1.669  13.410  0.00  0.00    +0.000 A 
ATOM     31  C   UNL     1      41.375  -3.027  13.732  0.00  0.00    +0.000 C 
ATOM     32  C   UNL     1      40.953  -0.730  14.408  0.00  0.00    +0.000 A 
ATOM     33  C   UNL     1      40.461   0.549  14.146  0.00  0.00    +0.000 A 
ENDBRANCH  26  27
ENDBRANCH   5  26
TORSDOF 8
ENDMDL
MODEL 4
REMARK VINA RESULT:      -7.0      4.084      7.810
REMARK  Name = 
REMARK  8 active torsions:
REMARK  status: ('A' for Active; 'I' for Inactive)
REMARK    1  A    between atoms: C_2  and  O_3
REMARK    2  A    between atoms: O_3  and  C_4
REMARK    3  A    between atoms: C_7  and  N_8
REMARK    4  A    between atoms: C_11  and  N_12
REMARK    5  A    between atoms: N_12  and  C_13
REMARK    6  A    between atoms: C_16  and  C_17
REMARK    7  A    between atoms: C_21  and  S_22
REMARK    8  A    between atoms: S_22  and  C_23
REMARK                            x       y       z     vdW  Elec       q    Type
REMARK                         _______ _______ _______ _____ _____    ______ ____
ROOT
ATOM      1  N   UNL     1      36.188   5.309  13.919  0.00  0.00    +0.000 N 
ATOM      2  C   UNL     1      35.652   4.280  14.761  0.00  0.00    +0.000 C 
ATOM      3  O   UNL     1      34.515   3.768  14.567  0.00  0.00    +0.000 OA
ATOM      4  C   UNL     1      36.626   3.996  15.782  0.00  0.00    +0.000 C 
ATOM      5  C   UNL     1      37.694   4.754  15.635  0.00  0.00    +0.000 C 
ATOM      6  C   UNL     1      37.461   5.594  14.477  0.00  0.00    +0.000 C 
ATOM      7  O   UNL     1      38.261   6.451  14.025  0.00  0.00    +0.000 OA
ENDROOT
BRANCH   1  11
ATOM      8  C   UNL     1      34.335   6.992  10.545  0.00  0.00    +0.000 A 
ATOM      9  C   UNL     1      33.829   7.244  11.824  0.00  0.00    +0.000 A 
ATOM     10  C   UNL     1      34.446   6.683  12.943  0.00  0.00    +0.000 A 
ATOM     11  C   UNL     1      35.550   5.884  12.790  0.00  0.00    +0.000 A 
ATOM     12  C   UNL     1      36.033   5.650  11.525  0.00  0.00    +0.000 A 
ATOM     13  C   UNL     1      35.436   6.196  10.394  0.00  0.00    +0.000 A 
BRANCH   8  14
ATOM     14  O   UNL     1      33.707   7.559   9.446  0.00  0.00    +0.000 OA
BRANCH  14  16
ATOM     15  C   UNL     1      33.645   7.039   7.134  0.00  0.00    +0.000 C 
ATOM     16  C   UNL     1      34.406   7.748   8.238  0.00  0.00    +0.000 C 
ENDBRANCH  14  16
ENDBRANCH   8  14
ENDBRANCH   1  11
BRANCH   4  17
ATOM     17  N   UNL     1      36.460   3.022  16.817  0.00  0.00    +0.000 NA
BRANCH  17  18
ATOM     18  C   UNL     1      36.238   1.675  16.473  0.00  0.00    +0.000 A 
ATOM     19  C   UNL     1      37.037   1.026  15.543  0.00  0.00    +0.000 A 
ATOM     20  C   UNL     1      36.793  -0.293  15.228  0.00  0.00    +0.000 A 
ATOM     21  C   UNL     1      35.771  -1.023  15.802  0.00  0.00    +0.000 A 
ATOM     22  C   UNL     1      34.977  -0.361  16.732  0.00  0.00    +0.000 A 
ATOM     23  C   UNL     1      35.217   0.957  17.049  0.00  0.00    +0.000 A 
BRANCH  21  24
ATOM     24  C   UNL     1      35.542  -2.450  15.432  0.00  0.00    +0.000 C 
ATOM     25  C   UNL     1      36.754  -3.016  14.711  0.00  0.00    +0.000 C 
ENDBRANCH  21  24
ENDBRANCH  17  18
ENDBRANCH   4  17
BRANCH   5  26
ATOM     26  S   UNL     1      39.169   4.743  16.684  0.00  0.00    +0.000 S 
BRANCH  26  27
ATOM     27  C   UNL     1      38.989   5.998  17.924  0.00  0.00    +0.000 A 
ATOM     28  C   UNL     1      39.746   5.923  19.069  0.00  0.00    +0.000 A 
ATOM     29  C   UNL     1      39.602   6.909  20.046  0.00  0.00    +0.000 A 
ATOM     30  C   UNL     1      38.706   7.922  19.825  0.00  0.00    +0.000 A 
ATOM     31  C   UNL     1      38.505   9.009  20.834  0.00  0.00    +0.000 C 
ATOM     32  C   UNL     1      37.938   8.017  18.688  0.00  0.00    +0.000 A 
ATOM     33  C   UNL     1      38.096   7.022  17.723  0.00  0.00    +0.000 A 
ENDBRANCH  26  27
ENDBRANCH   5  26
TORSDOF 8
ENDMDL
MODEL 5
REMARK VINA RESULT:      -6.8      3.483      9.307
REMARK  Name = 
REMARK  8 active torsions:
REMARK  status: ('A' for Active; 'I' for Inactive)
REMARK    1  A    between atoms: C_2  and  O_3
REMARK    2  A    between atoms: O_3  and  C_4
REMARK    3  A    between atoms: C_7  and  N_8
REMARK    4  A    between atoms: C_11  and  N_12
REMARK    5  A    between atoms: N_12  and  C_13
REMARK    6  A    between atoms: C_16  and  C_17
REMARK    7  A    between atoms: C_21  and  S_22
REMARK    8  A    between atoms: S_22  and  C_23
REMARK                            x       y       z     vdW  Elec       q    Type
REMARK                         _______ _______ _______ _____ _____    ______ ____
ROOT
ATOM      1  N   UNL     1      36.708   3.428  15.267  0.00  0.00    +0.000 N 
ATOM      2  C   UNL     1      35.950   4.475  14.648  0.00  0.00    +0.000 C 
ATOM      3  O   UNL     1      34.735   4.339  14.335  0.00  0.00    +0.000 OA
ATOM      4  C   UNL     1      36.820   5.610  14.486  0.00  0.00    +0.000 C 
ATOM      5  C   UNL     1      38.026   5.345  14.946  0.00  0.00    +0.000 C 
ATOM      6  C   UNL     1      38.000   3.986  15.446  0.00  0.00    +0.000 C 
ATOM      7  O   UNL     1      38.972   3.380  15.964  0.00  0.00    +0.000 OA
ENDROOT
BRANCH   1  11
ATOM      8  C   UNL     1      35.271  -0.380  16.312  0.00  0.00    +0.000 A 
ATOM      9  C   UNL     1      36.087  -0.220  15.188  0.00  0.00    +0.000 A 
ATOM     10  C   UNL     1      36.563   1.046  14.843  0.00  0.00    +0.000 A 
ATOM     11  C   UNL     1      36.231   2.136  15.606  0.00  0.00    +0.000 A 
ATOM     12  C   UNL     1      35.428   1.957  16.707  0.00  0.00    +0.000 A 
ATOM     13  C   UNL     1      34.940   0.707  17.071  0.00  0.00    +0.000 A 
BRANCH   8  14
ATOM     14  O   UNL     1      34.809  -1.646  16.638  0.00  0.00    +0.000 OA
BRANCH  14  16
ATOM     15  C   UNL     1      35.734  -3.789  16.223  0.00  0.00    +0.000 C 
ATOM     16  C   UNL     1      35.681  -2.611  17.177  0.00  0.00    +0.000 C 
ENDBRANCH  14  16
ENDBRANCH   8  14
ENDBRANCH   1  11
BRANCH   4  17
ATOM     17  N   UNL     1      36.430   6.858  13.903  0.00  0.00    +0.000 NA
BRANCH  17  18
ATOM     18  C   UNL     1      35.711   7.789  14.677  0.00  0.00    +0.000 A 
ATOM     19  C   UNL     1      36.356   8.646  15.558  0.00  0.00    +0.000 A 
ATOM     20  C   UNL     1      35.624   9.547  16.300  0.00  0.00    +0.000 A 
ATOM     21  C   UNL     1      34.249   9.646  16.213  0.00  0.00    +0.000 A 
ATOM     22  C   UNL     1      33.615   8.781  15.328  0.00  0.00    +0.000 A 
ATOM     23  C   UNL     1      34.343   7.880  14.584  0.00  0.00    +0.000 A 
BRANCH  21  24
ATOM     24  C   UNL     1      33.495  10.636  17.036  0.00  0.00    +0.000 C 
ATOM     25  C   UNL     1      32.582   9.926  18.022  0.00  0.00    +0.000 C 
ENDBRANCH  21  24
ENDBRANCH  17  18
ENDBRANCH   4  17
BRANCH   5  26
ATOM     26  S   UNL     1      39.442   6.473  14.951  0.00  0.00    +0.000 S 
BRANCH  26  27
ATOM     27  C   UNL     1      40.180   6.447  16.564  0.00  0.00    +0.000 A 
ATOM     28  C   UNL     1      41.548   6.504  16.677  0.00  0.00    +0.000 A 
ATOM     29  C   UNL     1      42.129   6.481  17.946  0.00  0.00    +0.000 A 
ATOM     30  C   UNL     1      41.306   6.401  19.039  0.00  0.00    +0.000 A 
ATOM     31  C   UNL     1      41.866   6.372  20.426  0.00  0.00    +0.000 C 
ATOM     32  C   UNL     1      39.934   6.343  18.950  0.00  0.00    +0.000 A 
ATOM     33  C   UNL     1      39.373   6.367  17.673  0.00  0.00    +0.000 A 
ENDBRANCH  26  27
ENDBRANCH   5  26
TORSDOF 8
ENDMDL
MODEL 6
REMARK VINA RESULT:      -6.8      3.999      7.758
REMARK  Name = 
REMARK  8 active torsions:
REMARK  status: ('A' for Active; 'I' for Inactive)
REMARK    1  A    between atoms: C_2  and  O_3
REMARK    2  A    between atoms: O_3  and  C_4
REMARK    3  A    between atoms: C_7  and  N_8
REMARK    4  A    between atoms: C_11  and  N_12
REMARK    5  A    between atoms: N_12  and  C_13
REMARK    6  A    between atoms: C_16  and  C_17
REMARK    7  A    between atoms: C_21  and  S_22
REMARK    8  A    between atoms: S_22  and  C_23
REMARK                            x       y       z     vdW  Elec       q    Type
REMARK                         _______ _______ _______ _____ _____    ______ ____
ROOT
ATOM      1  N   UNL     1      36.229   5.298  13.717  0.00  0.00    +0.000 N 
ATOM      2  C   UNL     1      37.497   5.672  14.271  0.00  0.00    +0.000 C 
ATOM      3  O   UNL     1      38.214   6.581  13.769  0.00  0.00    +0.000 OA
ATOM      4  C   UNL     1      37.734   4.845  15.424  0.00  0.00    +0.000 C 
ATOM      5  C   UNL     1      36.731   4.011  15.617  0.00  0.00    +0.000 C 
ATOM      6  C   UNL     1      35.765   4.261  14.567  0.00  0.00    +0.000 C 
ATOM      7  O   UNL     1      34.673   3.655  14.422  0.00  0.00    +0.000 OA
ENDROOT
BRANCH   1  11
ATOM      8  C   UNL     1      34.374   7.001  10.354  0.00  0.00    +0.000 A 
ATOM      9  C   UNL     1      35.474   6.153  10.196  0.00  0.00    +0.000 A 
ATOM     10  C   UNL     1      36.089   5.589  11.315  0.00  0.00    +0.000 A 
ATOM     11  C   UNL     1      35.614   5.865  12.571  0.00  0.00    +0.000 A 
ATOM     12  C   UNL     1      34.531   6.701  12.705  0.00  0.00    +0.000 A 
ATOM     13  C   UNL     1      33.902   7.276  11.607  0.00  0.00    +0.000 A 
BRANCH   8  14
ATOM     14  O   UNL     1      33.778   7.551   9.229  0.00  0.00    +0.000 OA
BRANCH  14  16
ATOM     15  C   UNL     1      33.332   6.658   7.080  0.00  0.00    +0.000 C 
ATOM     16  C   UNL     1      34.346   7.369   7.953  0.00  0.00    +0.000 C 
ENDBRANCH  14  16
ENDBRANCH   8  14
ENDBRANCH   1  11
BRANCH   4  17
ATOM     17  N   UNL     1      38.899   4.918  16.252  0.00  0.00    +0.000 NA
BRANCH  17  18
ATOM     18  C   UNL     1      38.901   5.769  17.374  0.00  0.00    +0.000 A 
ATOM     19  C   UNL     1      38.114   6.912  17.415  0.00  0.00    +0.000 A 
ATOM     20  C   UNL     1      38.139   7.724  18.527  0.00  0.00    +0.000 A 
ATOM     21  C   UNL     1      38.925   7.457  19.631  0.00  0.00    +0.000 A 
ATOM     22  C   UNL     1      39.709   6.310  19.578  0.00  0.00    +0.000 A 
ATOM     23  C   UNL     1      39.687   5.496  18.468  0.00  0.00    +0.000 A 
BRANCH  21  24
ATOM     24  C   UNL     1      38.921   8.364  20.815  0.00  0.00    +0.000 C 
ATOM     25  C   UNL     1      37.976   9.533  20.591  0.00  0.00    +0.000 C 
ENDBRANCH  21  24
ENDBRANCH  17  18
ENDBRANCH   4  17
BRANCH   5  26
ATOM     26  S   UNL     1      36.596   2.787  16.944  0.00  0.00    +0.000 S 
BRANCH  26  27
ATOM     27  C   UNL     1      36.517   1.171  16.216  0.00  0.00    +0.000 A 
ATOM     28  C   UNL     1      37.377   0.853  15.193  0.00  0.00    +0.000 A 
ATOM     29  C   UNL     1      37.313  -0.417  14.619  0.00  0.00    +0.000 A 
ATOM     30  C   UNL     1      36.388  -1.306  15.101  0.00  0.00    +0.000 A 
ATOM     31  C   UNL     1      36.269  -2.683  14.528  0.00  0.00    +0.000 C 
ATOM     32  C   UNL     1      35.517  -1.010  16.123  0.00  0.00    +0.000 A 
ATOM     33  C   UNL     1      35.596   0.265  16.684  0.00  0.00    +0.000 A 
ENDBRANCH  26  27
ENDBRANCH   5  26
TORSDOF 8
ENDMDL
MODEL 7
REMARK VINA RESULT:      -6.5      4.232      6.653
REMARK  Name = 
REMARK  8 active torsions:
REMARK  status: ('A' for Active; 'I' for Inactive)
REMARK    1  A    between atoms: C_2  and  O_3
REMARK    2  A    between atoms: O_3  and  C_4
REMARK    3  A    between atoms: C_7  and  N_8
REMARK    4  A    between atoms: C_11  and  N_12
REMARK    5  A    between atoms: N_12  and  C_13
REMARK    6  A    between atoms: C_16  and  C_17
REMARK    7  A    between atoms: C_21  and  S_22
REMARK    8  A    between atoms: S_22  and  C_23
REMARK                            x       y       z     vdW  Elec       q    Type
REMARK                         _______ _______ _______ _____ _____    ______ ____
ROOT
ATOM      1  N   UNL     1      36.235   7.390  13.978  0.00  0.00    +0.000 N 
ATOM      2  C   UNL     1      37.478   7.182  14.662  0.00  0.00    +0.000 C 
ATOM      3  O   UNL     1      38.027   8.079  15.359  0.00  0.00    +0.000 OA
ATOM      4  C   UNL     1      37.908   5.836  14.391  0.00  0.00    +0.000 C 
ATOM      5  C   UNL     1      37.045   5.216  13.611  0.00  0.00    +0.000 C 
ATOM      6  C   UNL     1      35.980   6.155  13.328  0.00  0.00    +0.000 C 
ATOM      7  O   UNL     1      34.972   5.922  12.612  0.00  0.00    +0.000 OA
ENDROOT
BRANCH   1  11
ATOM      8  C   UNL     1      33.939  10.908  14.027  0.00  0.00    +0.000 A 
ATOM      9  C   UNL     1      34.806  10.648  12.961  0.00  0.00    +0.000 A 
ATOM     10  C   UNL     1      35.568   9.479  12.948  0.00  0.00    +0.000 A 
ATOM     11  C   UNL     1      35.468   8.583  13.980  0.00  0.00    +0.000 A 
ATOM     12  C   UNL     1      34.610   8.856  15.018  0.00  0.00    +0.000 A 
ATOM     13  C   UNL     1      33.841  10.014  15.055  0.00  0.00    +0.000 A 
BRANCH   8  14
ATOM     14  O   UNL     1      33.191  12.076  14.021  0.00  0.00    +0.000 OA
BRANCH  14  16
ATOM     15  C   UNL     1      32.641  14.293  14.655  0.00  0.00    +0.000 C 
ATOM     16  C   UNL     1      33.270  12.984  15.094  0.00  0.00    +0.000 C 
ENDBRANCH  14  16
ENDBRANCH   8  14
ENDBRANCH   1  11
BRANCH   4  17
ATOM     17  N   UNL     1      39.110   5.248  14.899  0.00  0.00    +0.000 NA
BRANCH  17  18
ATOM     18  C   UNL     1      39.508   5.516  16.223  0.00  0.00    +0.000 A 
ATOM     19  C   UNL     1      38.749   5.094  17.305  0.00  0.00    +0.000 A 
ATOM     20  C   UNL     1      39.167   5.373  18.588  0.00  0.00    +0.000 A 
ATOM     21  C   UNL     1      40.328   6.068  18.863  0.00  0.00    +0.000 A 
ATOM     22  C   UNL     1      41.079   6.487  17.770  0.00  0.00    +0.000 A 
ATOM     23  C   UNL     1      40.665   6.209  16.486  0.00  0.00    +0.000 A 
BRANCH  21  24
ATOM     24  C   UNL     1      40.743   6.349  20.268  0.00  0.00    +0.000 C 
ATOM     25  C   UNL     1      42.258   6.362  20.386  0.00  0.00    +0.000 C 
ENDBRANCH  21  24
ENDBRANCH  17  18
ENDBRANCH   4  17
BRANCH   5  26
ATOM     26  S   UNL     1      37.174   3.513  13.011  0.00  0.00    +0.000 S 
BRANCH  26  27
ATOM     27  C   UNL     1      36.457   2.432  14.222  0.00  0.00    +0.000 A 
ATOM     28  C   UNL     1      36.787   1.098  14.210  0.00  0.00    +0.000 A 
ATOM     29  C   UNL     1      36.221   0.248  15.160  0.00  0.00    +0.000 A 
ATOM     30  C   UNL     1      35.352   0.780  16.078  0.00  0.00    +0.000 A 
ATOM     31  C   UNL     1      34.712  -0.079  17.122  0.00  0.00    +0.000 C 
ATOM     32  C   UNL     1      35.008   2.111  16.109  0.00  0.00    +0.000 A 
ATOM     33  C   UNL     1      35.584   2.945  15.151  0.00  0.00    +0.000 A 
ENDBRANCH  26  27
ENDBRANCH   5  26
TORSDOF 8
ENDMDL
MODEL 8
REMARK VINA RESULT:      -6.5      3.184      9.283
REMARK  Name = 
REMARK  8 active torsions:
REMARK  status: ('A' for Active; 'I' for Inactive)
REMARK    1  A    between atoms: C_2  and  O_3
REMARK    2  A    between atoms: O_3  and  C_4
REMARK    3  A    between atoms: C_7  and  N_8
REMARK    4  A    between atoms: C_11  and  N_12
REMARK    5  A    between atoms: N_12  and  C_13
REMARK    6  A    between atoms: C_16  and  C_17
REMARK    7  A    between atoms: C_21  and  S_22
REMARK    8  A    between atoms: S_22  and  C_23
REMARK                            x       y       z     vdW  Elec       q    Type
REMARK                         _______ _______ _______ _____ _____    ______ ____
ROOT
ATOM      1  N   UNL     1      37.435   3.759  15.566  0.00  0.00    +0.000 N 
ATOM      2  C   UNL     1      37.845   4.365  16.798  0.00  0.00    +0.000 C 
ATOM      3  O   UNL     1      38.087   3.693  17.838  0.00  0.00    +0.000 OA
ATOM      4  C   UNL     1      37.909   5.787  16.588  0.00  0.00    +0.000 C 
ATOM      5  C   UNL     1      37.578   6.094  15.349  0.00  0.00    +0.000 C 
ATOM      6  C   UNL     1      37.273   4.850  14.673  0.00  0.00    +0.000 C 
ATOM      7  O   UNL     1      36.916   4.741  13.472  0.00  0.00    +0.000 OA
ENDROOT
BRANCH   1  11
ATOM      8  C   UNL     1      36.923  -0.352  14.865  0.00  0.00    +0.000 A 
ATOM      9  C   UNL     1      35.899   0.394  15.456  0.00  0.00    +0.000 A 
ATOM     10  C   UNL     1      36.072   1.759  15.689  0.00  0.00    +0.000 A 
ATOM     11  C   UNL     1      37.247   2.372  15.336  0.00  0.00    +0.000 A 
ATOM     12  C   UNL     1      38.241   1.622  14.755  0.00  0.00    +0.000 A 
ATOM     13  C   UNL     1      38.094   0.261  14.514  0.00  0.00    +0.000 A 
BRANCH   8  14
ATOM     14  O   UNL     1      36.731  -1.707  14.642  0.00  0.00    +0.000 OA
BRANCH  14  16
ATOM     15  C   UNL     1      35.480  -3.720  14.666  0.00  0.00    +0.000 C 
ATOM     16  C   UNL     1      35.796  -2.434  15.404  0.00  0.00    +0.000 C 
ENDBRANCH  14  16
ENDBRANCH   8  14
ENDBRANCH   1  11
BRANCH   4  17
ATOM     17  N   UNL     1      38.282   6.742  17.587  0.00  0.00    +0.000 NA
BRANCH  17  18
ATOM     18  C   UNL     1      39.548   6.649  18.197  0.00  0.00    +0.000 A 
ATOM     19  C   UNL     1      40.714   6.657  17.445  0.00  0.00    +0.000 A 
ATOM     20  C   UNL     1      41.937   6.564  18.073  0.00  0.00    +0.000 A 
ATOM     21  C   UNL     1      42.069   6.460  19.445  0.00  0.00    +0.000 A 
ATOM     22  C   UNL     1      40.893   6.452  20.186  0.00  0.00    +0.000 A 
ATOM     23  C   UNL     1      39.669   6.545  19.562  0.00  0.00    +0.000 A 
BRANCH  21  24
ATOM     24  C   UNL     1      43.413   6.362  20.083  0.00  0.00    +0.000 C 
ATOM     25  C   UNL     1      43.289   6.386  21.598  0.00  0.00    +0.000 C 
ENDBRANCH  21  24
ENDBRANCH  17  18
ENDBRANCH   4  17
BRANCH   5  26
ATOM     26  S   UNL     1      37.518   7.756  14.636  0.00  0.00    +0.000 S 
BRANCH  26  27
ATOM     27  C   UNL     1      36.231   8.672  15.444  0.00  0.00    +0.000 A 
ATOM     28  C   UNL     1      36.553   9.497  16.495  0.00  0.00    +0.000 A 
ATOM     29  C   UNL     1      35.540  10.215  17.132  0.00  0.00    +0.000 A 
ATOM     30  C   UNL     1      34.253  10.069  16.682  0.00  0.00    +0.000 A 
ATOM     31  C   UNL     1      33.123  10.811  17.323  0.00  0.00    +0.000 C 
ATOM     32  C   UNL     1      33.908   9.250  15.633  0.00  0.00    +0.000 A 
ATOM     33  C   UNL     1      34.935   8.540  15.009  0.00  0.00    +0.000 A 
ENDBRANCH  26  27
ENDBRANCH   5  26
TORSDOF 8
ENDMDL
MODEL 9
REMARK VINA RESULT:      -6.4      3.061      8.903
REMARK  Name = 
REMARK  8 active torsions:
REMARK  status: ('A' for Active; 'I' for Inactive)
REMARK    1  A    between atoms: C_2  and  O_3
REMARK    2  A    between atoms: O_3  and  C_4
REMARK    3  A    between atoms: C_7  and  N_8
REMARK    4  A    between atoms: C_11  and  N_12
REMARK    5  A    between atoms: N_12  and  C_13
REMARK    6  A    between atoms: C_16  and  C_17
REMARK    7  A    between atoms: C_21  and  S_22
REMARK    8  A    between atoms: S_22  and  C_23
REMARK                            x       y       z     vdW  Elec       q    Type
REMARK                         _______ _______ _______ _____ _____    ______ ____
ROOT
ATOM      1  N   UNL     1      36.829   1.957  15.572  0.00  0.00    +0.000 N 
ATOM      2  C   UNL     1      37.051   3.036  16.489  0.00  0.00    +0.000 C 
ATOM      3  O   UNL     1      37.088   2.867  17.738  0.00  0.00    +0.000 OA
ATOM      4  C   UNL     1      37.208   4.241  15.719  0.00  0.00    +0.000 C 
ATOM      5  C   UNL     1      37.100   3.991  14.429  0.00  0.00    +0.000 C 
ATOM      6  C   UNL     1      36.862   2.569  14.292  0.00  0.00    +0.000 C 
ATOM      7  O   UNL     1      36.706   1.957  13.205  0.00  0.00    +0.000 OA
ENDROOT
BRANCH   1  11
ATOM      8  C   UNL     1      36.176  -2.064  16.600  0.00  0.00    +0.000 A 
ATOM      9  C   UNL     1      37.407  -1.664  16.071  0.00  0.00    +0.000 A 
ATOM     10  C   UNL     1      37.620  -0.328  15.729  0.00  0.00    +0.000 A 
ATOM     11  C   UNL     1      36.624   0.596  15.913  0.00  0.00    +0.000 A 
ATOM     12  C   UNL     1      35.422   0.183  16.436  0.00  0.00    +0.000 A 
ATOM     13  C   UNL     1      35.184  -1.143  16.783  0.00  0.00    +0.000 A 
BRANCH   8  14
ATOM     14  O   UNL     1      35.984  -3.397  16.933  0.00  0.00    +0.000 OA
BRANCH  14  16
ATOM     15  C   UNL     1      35.557  -4.611  14.942  0.00  0.00    +0.000 C 
ATOM     16  C   UNL     1      36.499  -4.422  16.115  0.00  0.00    +0.000 C 
ENDBRANCH  14  16
ENDBRANCH   8  14
ENDBRANCH   1  11
BRANCH   4  17
ATOM     17  N   UNL     1      37.448   5.538  16.276  0.00  0.00    +0.000 NA
BRANCH  17  18
ATOM     18  C   UNL     1      38.638   5.776  16.990  0.00  0.00    +0.000 A 
ATOM     19  C   UNL     1      39.858   5.898  16.340  0.00  0.00    +0.000 A 
ATOM     20  C   UNL     1      41.004   6.131  17.068  0.00  0.00    +0.000 A 
ATOM     21  C   UNL     1      41.006   6.254  18.444  0.00  0.00    +0.000 A 
ATOM     22  C   UNL     1      39.777   6.129  19.083  0.00  0.00    +0.000 A 
ATOM     23  C   UNL     1      38.629   5.896  18.359  0.00  0.00    +0.000 A 
BRANCH  21  24
ATOM     24  C   UNL     1      42.271   6.506  19.192  0.00  0.00    +0.000 C 
ATOM     25  C   UNL     1      42.078   6.233  20.675  0.00  0.00    +0.000 C 
ENDBRANCH  21  24
ENDBRANCH  17  18
ENDBRANCH   4  17
BRANCH   5  26
ATOM     26  S   UNL     1      37.229   5.201  13.089  0.00  0.00    +0.000 S 
BRANCH  26  27
ATOM     27  C   UNL     1      36.203   6.593  13.484  0.00  0.00    +0.000 A 
ATOM     28  C   UNL     1      36.786   7.821  13.686  0.00  0.00    +0.000 A 
ATOM     29  C   UNL     1      35.979   8.915  14.000  0.00  0.00    +0.000 A 
ATOM     30  C   UNL     1      34.625   8.723  14.095  0.00  0.00    +0.000 A 
ATOM     31  C   UNL     1      33.707   9.855  14.428  0.00  0.00    +0.000 C 
ATOM     32  C   UNL     1      34.020   7.504  13.897  0.00  0.00    +0.000 A 
ATOM     33  C   UNL     1      34.843   6.422  13.585  0.00  0.00    +0.000 A 
ENDBRANCH  26  27
ENDBRANCH   5  26
TORSDOF 8
ENDMDL
MODEL 10
REMARK VINA RESULT:      -6.3     27.296     29.462
REMARK  Name = 
REMARK  8 active torsions:
REMARK  status: ('A' for Active; 'I' for Inactive)
REMARK    1  A    between atoms: C_2  and  O_3
REMARK    2  A    between atoms: O_3  and  C_4
REMARK    3  A    between atoms: C_7  and  N_8
REMARK    4  A    between atoms: C_11  and  N_12
REMARK    5  A    between atoms: N_12  and  C_13
REMARK    6  A    between atoms: C_16  and  C_17
REMARK    7  A    between atoms: C_21  and  S_22
REMARK    8  A    between atoms: S_22  and  C_23
REMARK                            x       y       z     vdW  Elec       q    Type
REMARK                         _______ _______ _______ _____ _____    ______ ____
ROOT
ATOM      1  N   UNL     1      26.193  15.638  38.137  0.00  0.00    +0.000 N 
ATOM      2  C   UNL     1      25.388  14.855  39.028  0.00  0.00    +0.000 C 
ATOM      3  O   UNL     1      24.242  14.433  38.713  0.00  0.00    +0.000 OA
ATOM      4  C   UNL     1      26.128  14.682  40.250  0.00  0.00    +0.000 C 
ATOM      5  C   UNL     1      27.298  15.284  40.179  0.00  0.00    +0.000 C 
ATOM      6  C   UNL     1      27.380  15.897  38.869  0.00  0.00    +0.000 C 
ATOM      7  O   UNL     1      28.354  16.563  38.435  0.00  0.00    +0.000 OA
ENDROOT
BRANCH   1  11
ATOM      8  C   UNL     1      25.130  16.876  34.265  0.00  0.00    +0.000 A 
ATOM      9  C   UNL     1      25.642  15.592  34.477  0.00  0.00    +0.000 A 
ATOM     10  C   UNL     1      25.995  15.184  35.764  0.00  0.00    +0.000 A 
ATOM     11  C   UNL     1      25.839  16.041  36.823  0.00  0.00    +0.000 A 
ATOM     12  C   UNL     1      25.333  17.298  36.594  0.00  0.00    +0.000 A 
ATOM     13  C   UNL     1      24.975  17.729  35.321  0.00  0.00    +0.000 A 
BRANCH   8  14
ATOM     14  O   UNL     1      24.786  17.262  32.978  0.00  0.00    +0.000 OA
BRANCH  14  16
ATOM     15  C   UNL     1      24.196  18.891  31.361  0.00  0.00    +0.000 C 
ATOM     16  C   UNL     1      23.945  18.371  32.762  0.00  0.00    +0.000 C 
ENDBRANCH  14  16
ENDBRANCH   8  14
ENDBRANCH   1  11
BRANCH   4  17
ATOM     17  N   UNL     1      25.658  13.953  41.389  0.00  0.00    +0.000 NA
BRANCH  17  18
ATOM     18  C   UNL     1      26.175  12.671  41.653  0.00  0.00    +0.000 A 
ATOM     19  C   UNL     1      26.578  11.829  40.626  0.00  0.00    +0.000 A 
ATOM     20  C   UNL     1      27.080  10.579  40.919  0.00  0.00    +0.000 A 
ATOM     21  C   UNL     1      27.207  10.107  42.211  0.00  0.00    +0.000 A 
ATOM     22  C   UNL     1      26.799  10.960  43.230  0.00  0.00    +0.000 A 
ATOM     23  C   UNL     1      26.297  12.209  42.942  0.00  0.00    +0.000 A 
BRANCH  21  24
ATOM     24  C   UNL     1      27.755   8.747  42.482  0.00  0.00    +0.000 C 
ATOM     25  C   UNL     1      26.782   7.675  42.018  0.00  0.00    +0.000 C 
ENDBRANCH  21  24
ENDBRANCH  17  18
ENDBRANCH   4  17
BRANCH   5  26
ATOM     26  S   UNL     1      28.559  15.332  41.477  0.00  0.00    +0.000 S 
BRANCH  26  27
ATOM     27  C   UNL     1      29.432  13.787  41.473  0.00  0.00    +0.000 A 
ATOM     28  C   UNL     1      29.756  13.196  42.670  0.00  0.00    +0.000 A 
ATOM     29  C   UNL     1      30.445  11.983  42.667  0.00  0.00    +0.000 A 
ATOM     30  C   UNL     1      30.774  11.422  41.460  0.00  0.00    +0.000 A 
ATOM     31  C   UNL     1      31.512  10.123  41.389  0.00  0.00    +0.000 C 
ATOM     32  C   UNL     1      30.460  11.995  40.250  0.00  0.00    +0.000 A 
ATOM     33  C   UNL     1      29.772  13.208  40.274  0.00  0.00    +0.000 A 
ENDBRANCH  26  27
ENDBRANCH   5  26
TORSDOF 8
ENDMDL
