MODEL 1
REMARK VINA RESULT:      -7.3      0.000      0.000
REMARK  Name = 
REMARK  2 active torsions:
REMARK  status: ('A' for Active; 'I' for Inactive)
REMARK    1  A    between atoms: C_7  and  N_8
REMARK    2  A    between atoms: C_9  and  C_11
REMARK                            x       y       z     vdW  Elec       q    Type
REMARK                         _______ _______ _______ _____ _____    ______ ____
ROOT
ATOM      1  N   UNL     1      15.190  11.463  35.773  0.00  0.00    +0.000 NA
ATOM      2  C   UNL     1      16.381  11.784  36.480  0.00  0.00    +0.000 C 
ATOM      3  O   UNL     1      17.056  12.761  36.070  0.00  0.00    +0.000 OA
ENDROOT
BRANCH   1  10
ATOM      4  C   UNL     1      15.186  12.255  30.916  0.00  0.00    +0.000 C 
ATOM      5  C   UNL     1      14.781  12.643  32.291  0.00  0.00    +0.000 A 
ATOM      6  C   UNL     1      14.013  13.772  32.458  0.00  0.00    +0.000 A 
ATOM      7  O   UNL     1      13.627  14.533  31.353  0.00  0.00    +0.000 OA
ATOM      8  C   UNL     1      13.646  14.118  33.739  0.00  0.00    +0.000 A 
ATOM      9  C   UNL     1      14.041  13.350  34.805  0.00  0.00    +0.000 A 
ATOM     10  C   UNL     1      14.804  12.225  34.659  0.00  0.00    +0.000 A 
ATOM     11  C   UNL     1      15.172  11.878  33.381  0.00  0.00    +0.000 A 
ATOM     12  C   UNL     1      16.005  10.669  33.098  0.00  0.00    +0.000 C 
ENDBRANCH   1  10
BRANCH   2  13
ATOM     13  C   UNL     1      16.767  10.984  37.634  0.00  0.00    +0.000 A 
ATOM     14  C   UNL     1      15.848  10.673  38.612  0.00  0.00    +0.000 A 
ATOM     15  C   UNL     1      16.208   9.915  39.711  0.00  0.00    +0.000 A 
ATOM     16  C   UNL     1      17.487   9.435  39.885  0.00  0.00    +0.000 A 
ATOM     17 CL   UNL     1      17.922   8.469  41.298  0.00  0.00    +0.000 Cl
ATOM     18  C   UNL     1      18.409   9.745  38.910  0.00  0.00    +0.000 A 
ATOM     19  C   UNL     1      18.048  10.511  37.798  0.00  0.00    +0.000 A 
ENDBRANCH   2  13
TORSDOF 2
ENDMDL
MODEL 2
REMARK VINA RESULT:      -7.1      3.663      7.533
REMARK  Name = 
REMARK  2 active torsions:
REMARK  status: ('A' for Active; 'I' for Inactive)
REMARK    1  A    between atoms: C_7  and  N_8
REMARK    2  A    between atoms: C_9  and  C_11
REMARK                            x       y       z     vdW  Elec       q    Type
REMARK                         _______ _______ _______ _____ _____    ______ ____
ROOT
ATOM      1  N   UNL     1      17.261  11.065  36.146  0.00  0.00    +0.000 NA
ATOM      2  C   UNL     1      16.903  10.264  35.028  0.00  0.00    +0.000 C 
ATOM      3  O   UNL     1      17.121   9.029  35.104  0.00  0.00    +0.000 OA
ENDROOT
BRANCH   1  10
ATOM      4  C   UNL     1      16.896   9.425  40.770  0.00  0.00    +0.000 C 
ATOM      5  C   UNL     1      17.694   9.665  39.541  0.00  0.00    +0.000 A 
ATOM      6  C   UNL     1      19.019   9.296  39.534  0.00  0.00    +0.000 A 
ATOM      7  O   UNL     1      19.595   8.710  40.663  0.00  0.00    +0.000 OA
ATOM      8  C   UNL     1      19.745   9.525  38.387  0.00  0.00    +0.000 A 
ATOM      9  C   UNL     1      19.151  10.103  37.294  0.00  0.00    +0.000 A 
ATOM     10  C   UNL     1      17.836  10.476  37.282  0.00  0.00    +0.000 A 
ATOM     11  C   UNL     1      17.109  10.249  38.427  0.00  0.00    +0.000 A 
ATOM     12  C   UNL     1      15.663  10.614  38.531  0.00  0.00    +0.000 C 
ENDBRANCH   1  10
BRANCH   2  13
ATOM     13  C   UNL     1      16.307  10.892  33.857  0.00  0.00    +0.000 A 
ATOM     14  C   UNL     1      15.365  11.886  33.997  0.00  0.00    +0.000 A 
ATOM     15  C   UNL     1      14.793  12.486  32.889  0.00  0.00    +0.000 A 
ATOM     16  C   UNL     1      15.132  12.127  31.604  0.00  0.00    +0.000 A 
ATOM     17 CL   UNL     1      14.388  12.908  30.205  0.00  0.00    +0.000 Cl
ATOM     18  C   UNL     1      16.074  11.133  31.460  0.00  0.00    +0.000 A 
ATOM     19  C   UNL     1      16.653  10.525  32.577  0.00  0.00    +0.000 A 
ENDBRANCH   2  13
TORSDOF 2
ENDMDL
MODEL 3
REMARK VINA RESULT:      -6.6      3.465      4.930
REMARK  Name = 
REMARK  2 active torsions:
REMARK  status: ('A' for Active; 'I' for Inactive)
REMARK    1  A    between atoms: C_7  and  N_8
REMARK    2  A    between atoms: C_9  and  C_11
REMARK                            x       y       z     vdW  Elec       q    Type
REMARK                         _______ _______ _______ _____ _____    ______ ____
ROOT
ATOM      1  N   UNL     1      17.194  11.697  37.570  0.00  0.00    +0.000 NA
ATOM      2  C   UNL     1      17.957  10.619  37.043  0.00  0.00    +0.000 C 
ATOM      3  O   UNL     1      17.337   9.705  36.445  0.00  0.00    +0.000 OA
ENDROOT
BRANCH   1  10
ATOM      4  C   UNL     1      12.699  10.358  39.059  0.00  0.00    +0.000 C 
ATOM      5  C   UNL     1      13.588  11.081  38.114  0.00  0.00    +0.000 A 
ATOM      6  C   UNL     1      13.017  11.778  37.074  0.00  0.00    +0.000 A 
ATOM      7  O   UNL     1      11.630  11.799  36.916  0.00  0.00    +0.000 OA
ATOM      8  C   UNL     1      13.854  12.443  36.208  0.00  0.00    +0.000 A 
ATOM      9  C   UNL     1      15.214  12.403  36.389  0.00  0.00    +0.000 A 
ATOM     10  C   UNL     1      15.799  11.716  37.416  0.00  0.00    +0.000 A 
ATOM     11  C   UNL     1      14.965  11.051  38.282  0.00  0.00    +0.000 A 
ATOM     12  C   UNL     1      15.491  10.267  39.442  0.00  0.00    +0.000 C 
ENDBRANCH   1  10
BRANCH   2  13
ATOM     13  C   UNL     1      19.403  10.615  37.211  0.00  0.00    +0.000 A 
ATOM     14  C   UNL     1      20.194   9.765  36.469  0.00  0.00    +0.000 A 
ATOM     15  C   UNL     1      21.568   9.756  36.624  0.00  0.00    +0.000 A 
ATOM     16  C   UNL     1      22.212  10.584  37.516  0.00  0.00    +0.000 A 
ATOM     17 CL   UNL     1      23.969  10.552  37.697  0.00  0.00    +0.000 Cl
ATOM     18  C   UNL     1      21.425  11.434  38.260  0.00  0.00    +0.000 A 
ATOM     19  C   UNL     1      20.036  11.447  38.106  0.00  0.00    +0.000 A 
ENDBRANCH   2  13
TORSDOF 2
ENDMDL
MODEL 4
REMARK VINA RESULT:      -6.3      3.243      4.586
REMARK  Name = 
REMARK  2 active torsions:
REMARK  status: ('A' for Active; 'I' for Inactive)
REMARK    1  A    between atoms: C_7  and  N_8
REMARK    2  A    between atoms: C_9  and  C_11
REMARK                            x       y       z     vdW  Elec       q    Type
REMARK                         _______ _______ _______ _____ _____    ______ ____
ROOT
ATOM      1  N   UNL     1      18.275  10.079  37.154  0.00  0.00    +0.000 NA
ATOM      2  C   UNL     1      19.352  10.872  37.636  0.00  0.00    +0.000 C 
ATOM      3  O   UNL     1      19.112  12.073  37.914  0.00  0.00    +0.000 OA
ENDROOT
BRANCH   1  10
ATOM      4  C   UNL     1      14.820  12.179  34.350  0.00  0.00    +0.000 C 
ATOM      5  C   UNL     1      15.286  11.669  35.665  0.00  0.00    +0.000 A 
ATOM      6  C   UNL     1      14.438  11.756  36.744  0.00  0.00    +0.000 A 
ATOM      7  O   UNL     1      13.167  12.314  36.599  0.00  0.00    +0.000 OA
ATOM      8  C   UNL     1      14.885  11.278  37.955  0.00  0.00    +0.000 A 
ATOM      9  C   UNL     1      16.140  10.735  38.066  0.00  0.00    +0.000 A 
ATOM     10  C   UNL     1      16.997  10.640  37.004  0.00  0.00    +0.000 A 
ATOM     11  C   UNL     1      16.553  11.117  35.794  0.00  0.00    +0.000 A 
ATOM     12  C   UNL     1      17.401  11.066  34.564  0.00  0.00    +0.000 C 
ENDBRANCH   1  10
BRANCH   2  13
ATOM     13  C   UNL     1      20.671  10.274  37.786  0.00  0.00    +0.000 A 
ATOM     14  C   UNL     1      21.174   9.990  39.036  0.00  0.00    +0.000 A 
ATOM     15  C   UNL     1      22.427   9.422  39.187  0.00  0.00    +0.000 A 
ATOM     16  C   UNL     1      23.228   9.114  38.110  0.00  0.00    +0.000 A 
ATOM     17 CL   UNL     1      24.824   8.391  38.328  0.00  0.00    +0.000 Cl
ATOM     18  C   UNL     1      22.728   9.398  36.858  0.00  0.00    +0.000 A 
ATOM     19  C   UNL     1      21.463   9.971  36.703  0.00  0.00    +0.000 A 
ENDBRANCH   2  13
TORSDOF 2
ENDMDL
MODEL 5
REMARK VINA RESULT:      -6.3     19.051     19.988
REMARK  Name = 
REMARK  2 active torsions:
REMARK  status: ('A' for Active; 'I' for Inactive)
REMARK    1  A    between atoms: C_7  and  N_8
REMARK    2  A    between atoms: C_9  and  C_11
REMARK                            x       y       z     vdW  Elec       q    Type
REMARK                         _______ _______ _______ _____ _____    ______ ____
ROOT
ATOM      1  N   UNL     1      29.997  21.957  27.118  0.00  0.00    +0.000 NA
ATOM      2  C   UNL     1      30.385  22.800  28.195  0.00  0.00    +0.000 C 
ATOM      3  O   UNL     1      29.882  23.949  28.245  0.00  0.00    +0.000 OA
ENDROOT
BRANCH   1  10
ATOM      4  C   UNL     1      29.030  23.816  22.666  0.00  0.00    +0.000 C 
ATOM      5  C   UNL     1      28.572  23.324  23.990  0.00  0.00    +0.000 A 
ATOM      6  C   UNL     1      27.224  23.324  24.264  0.00  0.00    +0.000 A 
ATOM      7  O   UNL     1      26.311  23.780  23.312  0.00  0.00    +0.000 OA
ATOM      8  C   UNL     1      26.817  22.865  25.495  0.00  0.00    +0.000 A 
ATOM      9  C   UNL     1      27.738  22.423  26.411  0.00  0.00    +0.000 A 
ATOM     10  C   UNL     1      29.082  22.415  26.157  0.00  0.00    +0.000 A 
ATOM     11  C   UNL     1      29.491  22.874  24.928  0.00  0.00    +0.000 A 
ATOM     12  C   UNL     1      30.934  22.913  24.538  0.00  0.00    +0.000 C 
ENDBRANCH   1  10
BRANCH   2  13
ATOM     13  C   UNL     1      31.335  22.309  29.183  0.00  0.00    +0.000 A 
ATOM     14  C   UNL     1      32.622  21.981  28.819  0.00  0.00    +0.000 A 
ATOM     15  C   UNL     1      33.529  21.513  29.753  0.00  0.00    +0.000 A 
ATOM     16  C   UNL     1      33.198  21.352  31.080  0.00  0.00    +0.000 A 
ATOM     17 CL   UNL     1      34.374  20.751  32.253  0.00  0.00    +0.000 Cl
ATOM     18  C   UNL     1      31.912  21.677  31.448  0.00  0.00    +0.000 A 
ATOM     19  C   UNL     1      30.994  22.151  30.507  0.00  0.00    +0.000 A 
ENDBRANCH   2  13
TORSDOF 2
ENDMDL
MODEL 6
REMARK VINA RESULT:      -6.2     19.302     20.216
REMARK  Name = 
REMARK  2 active torsions:
REMARK  status: ('A' for Active; 'I' for Inactive)
REMARK    1  A    between atoms: C_7  and  N_8
REMARK    2  A    between atoms: C_9  and  C_11
REMARK                            x       y       z     vdW  Elec       q    Type
REMARK                         _______ _______ _______ _____ _____    ______ ____
ROOT
ATOM      1  N   UNL     1      30.820  21.830  27.345  0.00  0.00    +0.000 NA
ATOM      2  C   UNL     1      31.425  22.764  28.229  0.00  0.00    +0.000 C 
ATOM      3  O   UNL     1      31.218  23.985  28.018  0.00  0.00    +0.000 OA
ENDROOT
BRANCH   1  10
ATOM      4  C   UNL     1      26.427  23.064  25.504  0.00  0.00    +0.000 C 
ATOM      5  C   UNL     1      27.893  22.890  25.347  0.00  0.00    +0.000 A 
ATOM      6  C   UNL     1      28.465  23.179  24.130  0.00  0.00    +0.000 A 
ATOM      7  O   UNL     1      27.676  23.625  23.068  0.00  0.00    +0.000 OA
ATOM      8  C   UNL     1      29.825  23.012  24.001  0.00  0.00    +0.000 A 
ATOM      9  C   UNL     1      30.574  22.572  25.063  0.00  0.00    +0.000 A 
ATOM     10  C   UNL     1      30.024  22.280  26.280  0.00  0.00    +0.000 A 
ATOM     11  C   UNL     1      28.666  22.445  26.411  0.00  0.00    +0.000 A 
ATOM     12  C   UNL     1      27.953  22.157  27.694  0.00  0.00    +0.000 C 
ENDBRANCH   1  10
BRANCH   2  13
ATOM     13  C   UNL     1      32.248  22.281  29.329  0.00  0.00    +0.000 A 
ATOM     14  C   UNL     1      33.600  22.538  29.361  0.00  0.00    +0.000 A 
ATOM     15  C   UNL     1      34.388  22.082  30.402  0.00  0.00    +0.000 A 
ATOM     16  C   UNL     1      33.868  21.355  31.451  0.00  0.00    +0.000 A 
ATOM     17 CL   UNL     1      34.895  20.782  32.769  0.00  0.00    +0.000 Cl
ATOM     18  C   UNL     1      32.517  21.095  31.422  0.00  0.00    +0.000 A 
ATOM     19  C   UNL     1      31.719  21.555  30.372  0.00  0.00    +0.000 A 
ENDBRANCH   2  13
TORSDOF 2
ENDMDL
MODEL 7
REMARK VINA RESULT:      -5.9     20.030     22.649
REMARK  Name = 
REMARK  2 active torsions:
REMARK  status: ('A' for Active; 'I' for Inactive)
REMARK    1  A    between atoms: C_7  and  N_8
REMARK    2  A    between atoms: C_9  and  C_11
REMARK                            x       y       z     vdW  Elec       q    Type
REMARK                         _______ _______ _______ _____ _____    ______ ____
ROOT
ATOM      1  N   UNL     1      33.431  -0.688  35.319  0.00  0.00    +0.000 NA
ATOM      2  C   UNL     1      33.730   0.181  34.234  0.00  0.00    +0.000 C 
ATOM      3  O   UNL     1      33.996  -0.344  33.125  0.00  0.00    +0.000 OA
ENDROOT
BRANCH   1  10
ATOM      4  C   UNL     1      35.765  -5.017  35.465  0.00  0.00    +0.000 C 
ATOM      5  C   UNL     1      34.548  -4.211  35.191  0.00  0.00    +0.000 A 
ATOM      6  C   UNL     1      33.417  -4.856  34.747  0.00  0.00    +0.000 A 
ATOM      7  O   UNL     1      33.420  -6.239  34.560  0.00  0.00    +0.000 OA
ATOM      8  C   UNL     1      32.297  -4.095  34.499  0.00  0.00    +0.000 A 
ATOM      9  C   UNL     1      32.324  -2.737  34.693  0.00  0.00    +0.000 A 
ATOM     10  C   UNL     1      33.439  -2.079  35.133  0.00  0.00    +0.000 A 
ATOM     11  C   UNL     1      34.558  -2.837  35.382  0.00  0.00    +0.000 A 
ATOM     12  C   UNL     1      35.835  -2.227  35.866  0.00  0.00    +0.000 C 
ENDBRANCH   1  10
BRANCH   2  13
ATOM     13  C   UNL     1      33.717   1.622  34.445  0.00  0.00    +0.000 A 
ATOM     14  C   UNL     1      33.421   2.480  33.409  0.00  0.00    +0.000 A 
ATOM     15  C   UNL     1      33.407   3.850  33.601  0.00  0.00    +0.000 A 
ATOM     16  C   UNL     1      33.684   4.422  34.823  0.00  0.00    +0.000 A 
ATOM     17 CL   UNL     1      33.660   6.174  35.043  0.00  0.00    +0.000 Cl
ATOM     18  C   UNL     1      33.981   3.567  35.861  0.00  0.00    +0.000 A 
ATOM     19  C   UNL     1      33.995   2.183  35.670  0.00  0.00    +0.000 A 
ENDBRANCH   2  13
TORSDOF 2
ENDMDL
MODEL 8
REMARK VINA RESULT:      -5.9     21.846     23.537
REMARK  Name = 
REMARK  2 active torsions:
REMARK  status: ('A' for Active; 'I' for Inactive)
REMARK    1  A    between atoms: C_7  and  N_8
REMARK    2  A    between atoms: C_9  and  C_11
REMARK                            x       y       z     vdW  Elec       q    Type
REMARK                         _______ _______ _______ _____ _____    ______ ____
ROOT
ATOM      1  N   UNL     1      21.851  -7.980  24.904  0.00  0.00    +0.000 NA
ATOM      2  C   UNL     1      23.072  -7.260  24.786  0.00  0.00    +0.000 C 
ATOM      3  O   UNL     1      23.113  -6.101  25.268  0.00  0.00    +0.000 OA
ENDROOT
BRANCH   1  10
ATOM      4  C   UNL     1      17.900  -8.336  27.815  0.00  0.00    +0.000 C 
ATOM      5  C   UNL     1      18.808  -7.532  26.957  0.00  0.00    +0.000 A 
ATOM      6  C   UNL     1      18.545  -6.191  26.795  0.00  0.00    +0.000 A 
ATOM      7  O   UNL     1      17.446  -5.606  27.425  0.00  0.00    +0.000 OA
ATOM      8  C   UNL     1      19.396  -5.461  25.997  0.00  0.00    +0.000 A 
ATOM      9  C   UNL     1      20.469  -6.064  25.391  0.00  0.00    +0.000 A 
ATOM     10  C   UNL     1      20.746  -7.395  25.540  0.00  0.00    +0.000 A 
ATOM     11  C   UNL     1      19.897  -8.127  26.336  0.00  0.00    +0.000 A 
ATOM     12  C   UNL     1      20.099  -9.589  26.574  0.00  0.00    +0.000 C 
ENDBRANCH   1  10
BRANCH   2  13
ATOM     13  C   UNL     1      24.210  -7.882  24.124  0.00  0.00    +0.000 A 
ATOM     14  C   UNL     1      24.298  -9.253  24.019  0.00  0.00    +0.000 A 
ATOM     15  C   UNL     1      25.376  -9.850  23.392  0.00  0.00    +0.000 A 
ATOM     16  C   UNL     1      26.406  -9.117  22.845  0.00  0.00    +0.000 A 
ATOM     17 CL   UNL     1      27.773  -9.904  22.050  0.00  0.00    +0.000 Cl
ATOM     18  C   UNL     1      26.321  -7.747  22.949  0.00  0.00    +0.000 A 
ATOM     19  C   UNL     1      25.233  -7.140  23.581  0.00  0.00    +0.000 A 
ENDBRANCH   2  13
TORSDOF 2
ENDMDL
MODEL 9
REMARK VINA RESULT:      -5.8     18.625     20.270
REMARK  Name = 
REMARK  2 active torsions:
REMARK  status: ('A' for Active; 'I' for Inactive)
REMARK    1  A    between atoms: C_7  and  N_8
REMARK    2  A    between atoms: C_9  and  C_11
REMARK                            x       y       z     vdW  Elec       q    Type
REMARK                         _______ _______ _______ _____ _____    ______ ____
ROOT
ATOM      1  N   UNL     1      25.923  24.031  25.438  0.00  0.00    +0.000 NA
ATOM      2  C   UNL     1      25.663  25.410  25.670  0.00  0.00    +0.000 C 
ATOM      3  O   UNL     1      26.633  26.205  25.598  0.00  0.00    +0.000 OA
ENDROOT
BRANCH   1  10
ATOM      4  C   UNL     1      30.200  22.042  26.838  0.00  0.00    +0.000 C 
ATOM      5  C   UNL     1      29.328  22.631  25.790  0.00  0.00    +0.000 A 
ATOM      6  C   UNL     1      29.821  22.747  24.511  0.00  0.00    +0.000 A 
ATOM      7  O   UNL     1      31.116  22.318  24.212  0.00  0.00    +0.000 OA
ATOM      8  C   UNL     1      29.000  23.294  23.552  0.00  0.00    +0.000 A 
ATOM      9  C   UNL     1      27.732  23.706  23.876  0.00  0.00    +0.000 A 
ATOM     10  C   UNL     1      27.225  23.599  25.142  0.00  0.00    +0.000 A 
ATOM     11  C   UNL     1      28.043  23.053  26.101  0.00  0.00    +0.000 A 
ATOM     12  C   UNL     1      27.598  22.885  27.519  0.00  0.00    +0.000 C 
ENDBRANCH   1  10
BRANCH   2  13
ATOM     13  C   UNL     1      24.307  25.842  25.976  0.00  0.00    +0.000 A 
ATOM     14  C   UNL     1      23.521  26.424  25.006  0.00  0.00    +0.000 A 
ATOM     15  C   UNL     1      22.231  26.838  25.290  0.00  0.00    +0.000 A 
ATOM     16  C   UNL     1      21.671  26.691  26.539  0.00  0.00    +0.000 A 
ATOM     17 CL   UNL     1      20.022  27.228  26.876  0.00  0.00    +0.000 Cl
ATOM     18  C   UNL     1      22.455  26.109  27.511  0.00  0.00    +0.000 A 
ATOM     19  C   UNL     1      23.757  25.690  27.228  0.00  0.00    +0.000 A 
ENDBRANCH   2  13
TORSDOF 2
ENDMDL
MODEL 10
REMARK VINA RESULT:      -5.8     21.298     22.783
REMARK  Name = 
REMARK  2 active torsions:
REMARK  status: ('A' for Active; 'I' for Inactive)
REMARK    1  A    between atoms: C_7  and  N_8
REMARK    2  A    between atoms: C_9  and  C_11
REMARK                            x       y       z     vdW  Elec       q    Type
REMARK                         _______ _______ _______ _____ _____    ______ ____
ROOT
ATOM      1  N   UNL     1      30.470  24.823  24.433  0.00  0.00    +0.000 NA
ATOM      2  C   UNL     1      31.572  23.937  24.576  0.00  0.00    +0.000 C 
ATOM      3  O   UNL     1      31.421  22.753  24.184  0.00  0.00    +0.000 OA
ENDROOT
BRANCH   1  10
ATOM      4  C   UNL     1      25.946  22.956  24.937  0.00  0.00    +0.000 C 
ATOM      5  C   UNL     1      27.051  23.456  24.081  0.00  0.00    +0.000 A 
ATOM      6  C   UNL     1      26.876  23.467  22.717  0.00  0.00    +0.000 A 
ATOM      7  O   UNL     1      25.680  23.015  22.155  0.00  0.00    +0.000 OA
ATOM      8  C   UNL     1      27.910  23.935  21.938  0.00  0.00    +0.000 A 
ATOM      9  C   UNL     1      29.073  24.372  22.519  0.00  0.00    +0.000 A 
ATOM     10  C   UNL     1      29.266  24.369  23.873  0.00  0.00    +0.000 A 
ATOM     11  C   UNL     1      28.234  23.902  24.652  0.00  0.00    +0.000 A 
ATOM     12  C   UNL     1      28.331  23.851  26.144  0.00  0.00    +0.000 C 
ENDBRANCH   1  10
BRANCH   2  13
ATOM     13  C   UNL     1      32.814  24.425  25.158  0.00  0.00    +0.000 A 
ATOM     14  C   UNL     1      34.009  24.276  24.489  0.00  0.00    +0.000 A 
ATOM     15  C   UNL     1      35.193  24.737  25.037  0.00  0.00    +0.000 A 
ATOM     16  C   UNL     1      35.240  25.361  26.263  0.00  0.00    +0.000 A 
ATOM     17 CL   UNL     1      36.765  25.940  26.942  0.00  0.00    +0.000 Cl
ATOM     18  C   UNL     1      34.047  25.511  26.935  0.00  0.00    +0.000 A 
ATOM     19  C   UNL     1      32.850  25.047  26.384  0.00  0.00    +0.000 A 
ENDBRANCH   2  13
TORSDOF 2
ENDMDL
