MODEL 1
REMARK VINA RESULT:      -8.1      0.000      0.000
REMARK  Name = 
REMARK  7 active torsions:
REMARK  status: ('A' for Active; 'I' for Inactive)
REMARK    1  A    between atoms: C_2  and  O_3
REMARK    2  A    between atoms: O_3  and  C_4
REMARK    3  A    between atoms: C_7  and  N_8
REMARK    4  A    between atoms: C_11  and  C_12
REMARK    5  A    between atoms: N_19  and  C_20
REMARK    6  A    between atoms: C_20  and  C_21
REMARK    7  A    between atoms: C_24  and  N_25
REMARK                            x       y       z     vdW  Elec       q    Type
REMARK                         _______ _______ _______ _____ _____    ______ ____
ROOT
ATOM      1  N   UNL     1      33.813   6.629  13.821  0.00  0.00    +0.000 NA
ATOM      2  C   UNL     1      34.953   5.794  14.124  0.00  0.00    +0.000 A 
ATOM      3  N   UNL     1      34.940   4.500  14.353  0.00  0.00    +0.000 NA
ATOM      4  C   UNL     1      36.057   3.886  14.615  0.00  0.00    +0.000 A 
ATOM      5  N   UNL     1      37.178   4.603  14.635  0.00  0.00    +0.000 N 
ATOM      6  S   UNL     1      36.605   6.173  14.278  0.00  0.00    +0.000 S 
ENDROOT
BRANCH   4   7
ATOM      7  C   UNL     1      36.066   2.426  14.905  0.00  0.00    +0.000 A 
ATOM      8  C   UNL     1      35.735   1.919  16.144  0.00  0.00    +0.000 A 
ATOM      9  C   UNL     1      35.765   0.570  16.426  0.00  0.00    +0.000 A 
ATOM     10  C   UNL     1      36.135  -0.328  15.453  0.00  0.00    +0.000 A 
ATOM     11  C   UNL     1      36.186  -1.800  15.704  0.00  0.00    +0.000 C 
ATOM     12  C   UNL     1      36.469   0.147  14.214  0.00  0.00    +0.000 A 
ATOM     13  C   UNL     1      36.430   1.501  13.961  0.00  0.00    +0.000 A 
ENDBRANCH   4   7
BRANCH   1  17
ATOM     14  C   UNL     1      34.306  10.765  13.380  0.00  0.00    +0.000 A 
ATOM     15  C   UNL     1      33.998  10.195  14.592  0.00  0.00    +0.000 A 
ATOM     16  C   UNL     1      33.843   8.833  14.698  0.00  0.00    +0.000 A 
ATOM     17  C   UNL     1      33.994   8.021  13.596  0.00  0.00    +0.000 A 
ATOM     18  C   UNL     1      34.301   8.573  12.387  0.00  0.00    +0.000 A 
ATOM     19  C   UNL     1      34.454   9.939  12.287  0.00  0.00    +0.000 A 
BRANCH  14  20
ATOM     20  O   UNL     1      34.458  12.147  13.295  0.00  0.00    +0.000 OA
BRANCH  20  22
ATOM     21  C   UNL     1      34.070  14.377  13.990  0.00  0.00    +0.000 C 
ATOM     22  C   UNL     1      33.593  12.952  14.073  0.00  0.00    +0.000 C 
ENDBRANCH  20  22
ENDBRANCH  14  20
ENDBRANCH   1  17
BRANCH   5  23
ATOM     23  C   UNL     1      38.578   4.196  14.854  0.00  0.00    +0.000 C 
BRANCH  23  24
ATOM     24  C   UNL     1      39.048   4.805  16.124  0.00  0.00    +0.000 A 
ATOM     25  C   UNL     1      40.097   5.677  16.237  0.00  0.00    +0.000 A 
ATOM     26  C   UNL     1      40.492   6.213  17.442  0.00  0.00    +0.000 A 
ATOM     27  C   UNL     1      39.847   5.897  18.616  0.00  0.00    +0.000 A 
ATOM     28  C   UNL     1      38.784   5.021  18.543  0.00  0.00    +0.000 A 
ATOM     29  C   UNL     1      38.402   4.495  17.330  0.00  0.00    +0.000 A 
BRANCH  27  30
ATOM     30  N   UNL     1      40.239   6.441  19.872  0.00  0.00    +0.000 N 
ATOM     31  O   UNL     1      41.357   6.223  20.336  0.00  0.00    +0.000 OA
ATOM     32  O   UNL     1      39.369   7.220  20.588  0.00  0.00    +0.000 OA
ENDBRANCH  27  30
ENDBRANCH  23  24
ENDBRANCH   5  23
TORSDOF 7
ENDMDL
MODEL 2
REMARK VINA RESULT:      -7.6      4.163      6.530
REMARK  Name = 
REMARK  7 active torsions:
REMARK  status: ('A' for Active; 'I' for Inactive)
REMARK    1  A    between atoms: C_2  and  O_3
REMARK    2  A    between atoms: O_3  and  C_4
REMARK    3  A    between atoms: C_7  and  N_8
REMARK    4  A    between atoms: C_11  and  C_12
REMARK    5  A    between atoms: N_19  and  C_20
REMARK    6  A    between atoms: C_20  and  C_21
REMARK    7  A    between atoms: C_24  and  N_25
REMARK                            x       y       z     vdW  Elec       q    Type
REMARK                         _______ _______ _______ _____ _____    ______ ____
ROOT
ATOM      1  N   UNL     1      39.470   5.345  16.264  0.00  0.00    +0.000 NA
ATOM      2  C   UNL     1      38.748   4.124  15.989  0.00  0.00    +0.000 A 
ATOM      3  N   UNL     1      39.098   3.177  15.150  0.00  0.00    +0.000 NA
ATOM      4  C   UNL     1      38.336   2.132  15.011  0.00  0.00    +0.000 A 
ATOM      5  N   UNL     1      37.222   2.065  15.737  0.00  0.00    +0.000 N 
ATOM      6  S   UNL     1      37.283   3.529  16.618  0.00  0.00    +0.000 S 
ENDROOT
BRANCH   4   7
ATOM      7  C   UNL     1      38.696   1.056  14.046  0.00  0.00    +0.000 A 
ATOM      8  C   UNL     1      37.970   0.823  12.897  0.00  0.00    +0.000 A 
ATOM      9  C   UNL     1      38.285  -0.187  12.013  0.00  0.00    +0.000 A 
ATOM     10  C   UNL     1      39.358  -1.008  12.260  0.00  0.00    +0.000 A 
ATOM     11  C   UNL     1      39.743  -2.117  11.337  0.00  0.00    +0.000 C 
ATOM     12  C   UNL     1      40.097  -0.799  13.393  0.00  0.00    +0.000 A 
ATOM     13  C   UNL     1      39.759   0.218  14.259  0.00  0.00    +0.000 A 
ENDBRANCH   4   7
BRANCH   1  17
ATOM     14  C   UNL     1      38.076   7.982  19.205  0.00  0.00    +0.000 A 
ATOM     15  C   UNL     1      38.937   6.953  19.501  0.00  0.00    +0.000 A 
ATOM     16  C   UNL     1      39.374   6.107  18.509  0.00  0.00    +0.000 A 
ATOM     17  C   UNL     1      38.955   6.277  17.208  0.00  0.00    +0.000 A 
ATOM     18  C   UNL     1      38.101   7.294  16.899  0.00  0.00    +0.000 A 
ATOM     19  C   UNL     1      37.667   8.139  17.898  0.00  0.00    +0.000 A 
BRANCH  14  20
ATOM     20  O   UNL     1      37.646   8.827  20.225  0.00  0.00    +0.000 OA
BRANCH  20  22
ATOM     21  C   UNL     1      39.282  10.371  20.963  0.00  0.00    +0.000 C 
ATOM     22  C   UNL     1      38.027  10.188  20.154  0.00  0.00    +0.000 C 
ENDBRANCH  20  22
ENDBRANCH  14  20
ENDBRANCH   1  17
BRANCH   5  23
ATOM     23  C   UNL     1      36.195   1.011  15.832  0.00  0.00    +0.000 C 
BRANCH  23  24
ATOM     24  C   UNL     1      36.595   0.067  16.906  0.00  0.00    +0.000 A 
ATOM     25  C   UNL     1      36.251   0.185  18.226  0.00  0.00    +0.000 A 
ATOM     26  C   UNL     1      36.650  -0.720  19.182  0.00  0.00    +0.000 A 
ATOM     27  C   UNL     1      37.426  -1.811  18.862  0.00  0.00    +0.000 A 
ATOM     28  C   UNL     1      37.792  -1.966  17.541  0.00  0.00    +0.000 A 
ATOM     29  C   UNL     1      37.385  -1.051  16.597  0.00  0.00    +0.000 A 
BRANCH  27  30
ATOM     30  N   UNL     1      37.848  -2.759  19.836  0.00  0.00    +0.000 N 
ATOM     31  O   UNL     1      38.668  -3.632  19.557  0.00  0.00    +0.000 OA
ATOM     32  O   UNL     1      37.342  -2.713  21.108  0.00  0.00    +0.000 OA
ENDBRANCH  27  30
ENDBRANCH  23  24
ENDBRANCH   5  23
TORSDOF 7
ENDMDL
MODEL 3
REMARK VINA RESULT:      -7.6      2.861      8.251
REMARK  Name = 
REMARK  7 active torsions:
REMARK  status: ('A' for Active; 'I' for Inactive)
REMARK    1  A    between atoms: C_2  and  O_3
REMARK    2  A    between atoms: O_3  and  C_4
REMARK    3  A    between atoms: C_7  and  N_8
REMARK    4  A    between atoms: C_11  and  C_12
REMARK    5  A    between atoms: N_19  and  C_20
REMARK    6  A    between atoms: C_20  and  C_21
REMARK    7  A    between atoms: C_24  and  N_25
REMARK                            x       y       z     vdW  Elec       q    Type
REMARK                         _______ _______ _______ _____ _____    ______ ____
ROOT
ATOM      1  N   UNL     1      35.145   1.232  15.843  0.00  0.00    +0.000 NA
ATOM      2  C   UNL     1      35.798   2.451  15.425  0.00  0.00    +0.000 A 
ATOM      3  N   UNL     1      35.295   3.387  14.652  0.00  0.00    +0.000 NA
ATOM      4  C   UNL     1      36.013   4.432  14.363  0.00  0.00    +0.000 A 
ATOM      5  N   UNL     1      37.240   4.512  14.874  0.00  0.00    +0.000 N 
ATOM      6  S   UNL     1      37.349   3.061  15.770  0.00  0.00    +0.000 S 
ENDROOT
BRANCH   4   7
ATOM      7  C   UNL     1      35.477   5.493  13.467  0.00  0.00    +0.000 A 
ATOM      8  C   UNL     1      34.516   6.392  13.881  0.00  0.00    +0.000 A 
ATOM      9  C   UNL     1      33.998   7.360  13.047  0.00  0.00    +0.000 A 
ATOM     10  C   UNL     1      34.438   7.458  11.749  0.00  0.00    +0.000 A 
ATOM     11  C   UNL     1      33.911   8.487  10.804  0.00  0.00    +0.000 C 
ATOM     12  C   UNL     1      35.391   6.578  11.311  0.00  0.00    +0.000 A 
ATOM     13  C   UNL     1      35.890   5.621  12.166  0.00  0.00    +0.000 A 
ENDBRANCH   4   7
BRANCH   1  17
ATOM     14  C   UNL     1      37.055  -1.369  18.513  0.00  0.00    +0.000 A 
ATOM     15  C   UNL     1      36.204  -0.381  18.945  0.00  0.00    +0.000 A 
ATOM     16  C   UNL     1      35.594   0.455  18.038  0.00  0.00    +0.000 A 
ATOM     17  C   UNL     1      35.828   0.315  16.688  0.00  0.00    +0.000 A 
ATOM     18  C   UNL     1      36.670  -0.661  16.246  0.00  0.00    +0.000 A 
ATOM     19  C   UNL     1      37.278  -1.496  17.159  0.00  0.00    +0.000 A 
BRANCH  14  20
ATOM     20  O   UNL     1      37.662  -2.204  19.448  0.00  0.00    +0.000 OA
BRANCH  20  22
ATOM     21  C   UNL     1      38.935  -4.091  20.099  0.00  0.00    +0.000 C 
ATOM     22  C   UNL     1      38.594  -3.156  18.971  0.00  0.00    +0.000 C 
ENDBRANCH  20  22
ENDBRANCH  14  20
ENDBRANCH   1  17
BRANCH   5  23
ATOM     23  C   UNL     1      38.261   5.571  14.768  0.00  0.00    +0.000 C 
BRANCH  23  24
ATOM     24  C   UNL     1      38.710   5.925  16.138  0.00  0.00    +0.000 A 
ATOM     25  C   UNL     1      39.892   5.530  16.705  0.00  0.00    +0.000 A 
ATOM     26  C   UNL     1      40.260   5.887  17.982  0.00  0.00    +0.000 A 
ATOM     27  C   UNL     1      39.450   6.672  18.771  0.00  0.00    +0.000 A 
ATOM     28  C   UNL     1      38.251   7.091  18.235  0.00  0.00    +0.000 A 
ATOM     29  C   UNL     1      37.898   6.725  16.956  0.00  0.00    +0.000 A 
BRANCH  27  30
ATOM     30  N   UNL     1      39.813   7.053  20.094  0.00  0.00    +0.000 N 
ATOM     31  O   UNL     1      38.996   7.576  20.850  0.00  0.00    +0.000 OA
ATOM     32  O   UNL     1      41.088   6.841  20.548  0.00  0.00    +0.000 OA
ENDBRANCH  27  30
ENDBRANCH  23  24
ENDBRANCH   5  23
TORSDOF 7
ENDMDL
MODEL 4
REMARK VINA RESULT:      -7.4      3.693      6.257
REMARK  Name = 
REMARK  7 active torsions:
REMARK  status: ('A' for Active; 'I' for Inactive)
REMARK    1  A    between atoms: C_2  and  O_3
REMARK    2  A    between atoms: O_3  and  C_4
REMARK    3  A    between atoms: C_7  and  N_8
REMARK    4  A    between atoms: C_11  and  C_12
REMARK    5  A    between atoms: N_19  and  C_20
REMARK    6  A    between atoms: C_20  and  C_21
REMARK    7  A    between atoms: C_24  and  N_25
REMARK                            x       y       z     vdW  Elec       q    Type
REMARK                         _______ _______ _______ _____ _____    ______ ____
ROOT
ATOM      1  N   UNL     1      36.079   8.104  13.638  0.00  0.00    +0.000 NA
ATOM      2  C   UNL     1      36.950   7.068  14.143  0.00  0.00    +0.000 A 
ATOM      3  N   UNL     1      37.663   7.109  15.246  0.00  0.00    +0.000 NA
ATOM      4  C   UNL     1      38.404   6.089  15.567  0.00  0.00    +0.000 A 
ATOM      5  N   UNL     1      38.405   5.033  14.756  0.00  0.00    +0.000 N 
ATOM      6  S   UNL     1      37.330   5.529  13.523  0.00  0.00    +0.000 S 
ENDROOT
BRANCH   4   7
ATOM      7  C   UNL     1      39.242   6.121  16.797  0.00  0.00    +0.000 A 
ATOM      8  C   UNL     1      38.711   5.932  18.056  0.00  0.00    +0.000 A 
ATOM      9  C   UNL     1      39.479   5.986  19.200  0.00  0.00    +0.000 A 
ATOM     10  C   UNL     1      40.827   6.235  19.113  0.00  0.00    +0.000 A 
ATOM     11  C   UNL     1      41.704   6.304  20.320  0.00  0.00    +0.000 C 
ATOM     12  C   UNL     1      41.381   6.427  17.876  0.00  0.00    +0.000 A 
ATOM     13  C   UNL     1      40.590   6.368  16.750  0.00  0.00    +0.000 A 
ENDBRANCH   4   7
BRANCH   1  17
ATOM     14  C   UNL     1      34.173   7.605   9.941  0.00  0.00    +0.000 A 
ATOM     15  C   UNL     1      35.428   8.155  10.043  0.00  0.00    +0.000 A 
ATOM     16  C   UNL     1      36.022   8.303  11.275  0.00  0.00    +0.000 A 
ATOM     17  C   UNL     1      35.371   7.905  12.421  0.00  0.00    +0.000 A 
ATOM     18  C   UNL     1      34.126   7.356  12.335  0.00  0.00    +0.000 A 
ATOM     19  C   UNL     1      33.535   7.210  11.098  0.00  0.00    +0.000 A 
BRANCH  14  20
ATOM     20  O   UNL     1      33.590   7.463   8.685  0.00  0.00    +0.000 OA
BRANCH  20  22
ATOM     21  C   UNL     1      33.443   6.620   6.477  0.00  0.00    +0.000 C 
ATOM     22  C   UNL     1      34.173   6.534   7.791  0.00  0.00    +0.000 C 
ENDBRANCH  20  22
ENDBRANCH  14  20
ENDBRANCH   1  17
BRANCH   5  23
ATOM     23  C   UNL     1      39.094   3.734  14.866  0.00  0.00    +0.000 C 
BRANCH  23  24
ATOM     24  C   UNL     1      38.098   2.710  15.269  0.00  0.00    +0.000 A 
ATOM     25  C   UNL     1      37.091   2.907  16.175  0.00  0.00    +0.000 A 
ATOM     26  C   UNL     1      36.192   1.921  16.515  0.00  0.00    +0.000 A 
ATOM     27  C   UNL     1      36.257   0.665  15.955  0.00  0.00    +0.000 A 
ATOM     28  C   UNL     1      37.258   0.428  15.037  0.00  0.00    +0.000 A 
ATOM     29  C   UNL     1      38.148   1.425  14.708  0.00  0.00    +0.000 A 
BRANCH  27  30
ATOM     30  N   UNL     1      35.337  -0.368  16.292  0.00  0.00    +0.000 N 
ATOM     31  O   UNL     1      34.412  -0.164  17.076  0.00  0.00    +0.000 OA
ATOM     32  O   UNL     1      35.472  -1.616  15.744  0.00  0.00    +0.000 OA
ENDBRANCH  27  30
ENDBRANCH  23  24
ENDBRANCH   5  23
TORSDOF 7
ENDMDL
MODEL 5
REMARK VINA RESULT:      -7.4      4.298      7.029
REMARK  Name = 
REMARK  7 active torsions:
REMARK  status: ('A' for Active; 'I' for Inactive)
REMARK    1  A    between atoms: C_2  and  O_3
REMARK    2  A    between atoms: O_3  and  C_4
REMARK    3  A    between atoms: C_7  and  N_8
REMARK    4  A    between atoms: C_11  and  C_12
REMARK    5  A    between atoms: N_19  and  C_20
REMARK    6  A    between atoms: C_20  and  C_21
REMARK    7  A    between atoms: C_24  and  N_25
REMARK                            x       y       z     vdW  Elec       q    Type
REMARK                         _______ _______ _______ _____ _____    ______ ____
ROOT
ATOM      1  N   UNL     1      39.615   4.945  16.066  0.00  0.00    +0.000 NA
ATOM      2  C   UNL     1      38.841   3.789  15.676  0.00  0.00    +0.000 A 
ATOM      3  N   UNL     1      39.230   2.812  14.888  0.00  0.00    +0.000 NA
ATOM      4  C   UNL     1      38.412   1.835  14.629  0.00  0.00    +0.000 A 
ATOM      5  N   UNL     1      37.202   1.865  15.184  0.00  0.00    +0.000 N 
ATOM      6  S   UNL     1      37.255   3.321  16.078  0.00  0.00    +0.000 S 
ENDROOT
BRANCH   4   7
ATOM      7  C   UNL     1      38.819   0.730  13.718  0.00  0.00    +0.000 A 
ATOM      8  C   UNL     1      38.286   0.583  12.454  0.00  0.00    +0.000 A 
ATOM      9  C   UNL     1      38.642  -0.452  11.616  0.00  0.00    +0.000 A 
ATOM     10  C   UNL     1      39.560  -1.388  12.028  0.00  0.00    +0.000 A 
ATOM     11  C   UNL     1      39.980  -2.529  11.161  0.00  0.00    +0.000 C 
ATOM     12  C   UNL     1      40.105  -1.266  13.278  0.00  0.00    +0.000 A 
ATOM     13  C   UNL     1      39.731  -0.221  14.094  0.00  0.00    +0.000 A 
ENDBRANCH   4   7
BRANCH   1  17
ATOM     14  C   UNL     1      38.048   7.712  18.793  0.00  0.00    +0.000 A 
ATOM     15  C   UNL     1      38.858   6.677  19.192  0.00  0.00    +0.000 A 
ATOM     16  C   UNL     1      39.354   5.788  18.268  0.00  0.00    +0.000 A 
ATOM     17  C   UNL     1      39.047   5.920  16.932  0.00  0.00    +0.000 A 
ATOM     18  C   UNL     1      38.244   6.942  16.521  0.00  0.00    +0.000 A 
ATOM     19  C   UNL     1      37.750   7.830  17.452  0.00  0.00    +0.000 A 
BRANCH  14  20
ATOM     20  O   UNL     1      37.556   8.601  19.745  0.00  0.00    +0.000 OA
BRANCH  20  22
ATOM     21  C   UNL     1      38.584  10.412  20.872  0.00  0.00    +0.000 C 
ATOM     22  C   UNL     1      38.394   8.920  20.840  0.00  0.00    +0.000 C 
ENDBRANCH  20  22
ENDBRANCH  14  20
ENDBRANCH   1  17
BRANCH   5  23
ATOM     23  C   UNL     1      36.088   0.902  15.117  0.00  0.00    +0.000 C 
BRANCH  23  24
ATOM     24  C   UNL     1      36.588  -0.422  15.566  0.00  0.00    +0.000 A 
ATOM     25  C   UNL     1      36.475  -1.588  14.857  0.00  0.00    +0.000 A 
ATOM     26  C   UNL     1      36.957  -2.790  15.321  0.00  0.00    +0.000 A 
ATOM     27  C   UNL     1      37.588  -2.891  16.540  0.00  0.00    +0.000 A 
ATOM     28  C   UNL     1      37.722  -1.737  17.284  0.00  0.00    +0.000 A 
ATOM     29  C   UNL     1      37.235  -0.542  16.806  0.00  0.00    +0.000 A 
BRANCH  27  30
ATOM     30  N   UNL     1      38.094  -4.125  17.038  0.00  0.00    +0.000 N 
ATOM     31  O   UNL     1      39.070  -4.155  17.785  0.00  0.00    +0.000 OA
ATOM     32  O   UNL     1      37.496  -5.307  16.688  0.00  0.00    +0.000 OA
ENDBRANCH  27  30
ENDBRANCH  23  24
ENDBRANCH   5  23
TORSDOF 7
ENDMDL
MODEL 6
REMARK VINA RESULT:      -7.0      4.144      6.880
REMARK  Name = 
REMARK  7 active torsions:
REMARK  status: ('A' for Active; 'I' for Inactive)
REMARK    1  A    between atoms: C_2  and  O_3
REMARK    2  A    between atoms: O_3  and  C_4
REMARK    3  A    between atoms: C_7  and  N_8
REMARK    4  A    between atoms: C_11  and  C_12
REMARK    5  A    between atoms: N_19  and  C_20
REMARK    6  A    between atoms: C_20  and  C_21
REMARK    7  A    between atoms: C_24  and  N_25
REMARK                            x       y       z     vdW  Elec       q    Type
REMARK                         _______ _______ _______ _____ _____    ______ ____
ROOT
ATOM      1  N   UNL     1      39.528   5.780  15.612  0.00  0.00    +0.000 NA
ATOM      2  C   UNL     1      38.553   4.874  15.051  0.00  0.00    +0.000 A 
ATOM      3  N   UNL     1      38.570   4.347  13.848  0.00  0.00    +0.000 NA
ATOM      4  C   UNL     1      37.613   3.544  13.487  0.00  0.00    +0.000 A 
ATOM      5  N   UNL     1      36.646   3.284  14.365  0.00  0.00    +0.000 N 
ATOM      6  S   UNL     1      37.131   4.215  15.715  0.00  0.00    +0.000 S 
ENDROOT
BRANCH   4   7
ATOM      7  C   UNL     1      37.595   2.955  12.120  0.00  0.00    +0.000 A 
ATOM      8  C   UNL     1      38.037   1.674  11.862  0.00  0.00    +0.000 A 
ATOM      9  C   UNL     1      38.046   1.133  10.595  0.00  0.00    +0.000 A 
ATOM     10  C   UNL     1      37.603   1.875   9.527  0.00  0.00    +0.000 A 
ATOM     11  C   UNL     1      37.591   1.339   8.133  0.00  0.00    +0.000 C 
ATOM     12  C   UNL     1      37.158   3.150   9.752  0.00  0.00    +0.000 A 
ATOM     13  C   UNL     1      37.160   3.665  11.030  0.00  0.00    +0.000 A 
ENDBRANCH   4   7
BRANCH   1  17
ATOM     14  C   UNL     1      38.913   7.370  19.438  0.00  0.00    +0.000 A 
ATOM     15  C   UNL     1      38.342   7.927  18.319  0.00  0.00    +0.000 A 
ATOM     16  C   UNL     1      38.567   7.377  17.079  0.00  0.00    +0.000 A 
ATOM     17  C   UNL     1      39.366   6.264  16.939  0.00  0.00    +0.000 A 
ATOM     18  C   UNL     1      39.939   5.701  18.041  0.00  0.00    +0.000 A 
ATOM     19  C   UNL     1      39.710   6.256  19.281  0.00  0.00    +0.000 A 
BRANCH  14  20
ATOM     20  O   UNL     1      38.673   7.943  20.684  0.00  0.00    +0.000 OA
BRANCH  20  22
ATOM     21  C   UNL     1      39.010  10.249  21.100  0.00  0.00    +0.000 C 
ATOM     22  C   UNL     1      38.010   9.193  20.716  0.00  0.00    +0.000 C 
ENDBRANCH  20  22
ENDBRANCH  14  20
ENDBRANCH   1  17
BRANCH   5  23
ATOM     23  C   UNL     1      35.470   2.399  14.270  0.00  0.00    +0.000 C 
BRANCH  23  24
ATOM     24  C   UNL     1      35.733   1.185  15.084  0.00  0.00    +0.000 A 
ATOM     25  C   UNL     1      36.535   0.143  14.705  0.00  0.00    +0.000 A 
ATOM     26  C   UNL     1      36.745  -0.961  15.499  0.00  0.00    +0.000 A 
ATOM     27  C   UNL     1      36.153  -1.082  16.735  0.00  0.00    +0.000 A 
ATOM     28  C   UNL     1      35.338  -0.051  17.154  0.00  0.00    +0.000 A 
ATOM     29  C   UNL     1      35.138   1.047  16.347  0.00  0.00    +0.000 A 
BRANCH  27  30
ATOM     30  N   UNL     1      36.357  -2.215  17.572  0.00  0.00    +0.000 N 
ATOM     31  O   UNL     1      36.777  -2.088  18.721  0.00  0.00    +0.000 OA
ATOM     32  O   UNL     1      36.087  -3.475  17.105  0.00  0.00    +0.000 OA
ENDBRANCH  27  30
ENDBRANCH  23  24
ENDBRANCH   5  23
TORSDOF 7
ENDMDL
MODEL 7
REMARK VINA RESULT:      -7.0      3.943      6.458
REMARK  Name = 
REMARK  7 active torsions:
REMARK  status: ('A' for Active; 'I' for Inactive)
REMARK    1  A    between atoms: C_2  and  O_3
REMARK    2  A    between atoms: O_3  and  C_4
REMARK    3  A    between atoms: C_7  and  N_8
REMARK    4  A    between atoms: C_11  and  C_12
REMARK    5  A    between atoms: N_19  and  C_20
REMARK    6  A    between atoms: C_20  and  C_21
REMARK    7  A    between atoms: C_24  and  N_25
REMARK                            x       y       z     vdW  Elec       q    Type
REMARK                         _______ _______ _______ _____ _____    ______ ____
ROOT
ATOM      1  N   UNL     1      36.566   7.973  12.992  0.00  0.00    +0.000 NA
ATOM      2  C   UNL     1      36.888   6.939  13.949  0.00  0.00    +0.000 A 
ATOM      3  N   UNL     1      37.724   7.035  14.958  0.00  0.00    +0.000 NA
ATOM      4  C   UNL     1      37.909   6.009  15.735  0.00  0.00    +0.000 A 
ATOM      5  N   UNL     1      37.232   4.893  15.474  0.00  0.00    +0.000 N 
ATOM      6  S   UNL     1      36.329   5.338  14.092  0.00  0.00    +0.000 S 
ENDROOT
BRANCH   4   7
ATOM      7  C   UNL     1      38.872   6.084  16.869  0.00  0.00    +0.000 A 
ATOM      8  C   UNL     1      38.459   6.148  18.183  0.00  0.00    +0.000 A 
ATOM      9  C   UNL     1      39.346   6.242  19.235  0.00  0.00    +0.000 A 
ATOM     10  C   UNL     1      40.698   6.274  18.994  0.00  0.00    +0.000 A 
ATOM     11  C   UNL     1      41.702   6.376  20.095  0.00  0.00    +0.000 C 
ATOM     12  C   UNL     1      41.136   6.212  17.699  0.00  0.00    +0.000 A 
ATOM     13  C   UNL     1      40.227   6.118  16.667  0.00  0.00    +0.000 A 
ENDBRANCH   4   7
BRANCH   1  17
ATOM     14  C   UNL     1      33.995   7.183   9.780  0.00  0.00    +0.000 A 
ATOM     15  C   UNL     1      35.357   7.264   9.618  0.00  0.00    +0.000 A 
ATOM     16  C   UNL     1      36.170   7.526  10.696  0.00  0.00    +0.000 A 
ATOM     17  C   UNL     1      35.633   7.710  11.951  0.00  0.00    +0.000 A 
ATOM     18  C   UNL     1      34.283   7.631  12.127  0.00  0.00    +0.000 A 
ATOM     19  C   UNL     1      33.474   7.370  11.043  0.00  0.00    +0.000 A 
BRANCH  14  20
ATOM     20  O   UNL     1      33.191   6.918   8.675  0.00  0.00    +0.000 OA
BRANCH  20  22
ATOM     21  C   UNL     1      32.928   7.124   6.331  0.00  0.00    +0.000 C 
ATOM     22  C   UNL     1      33.834   6.662   7.441  0.00  0.00    +0.000 C 
ENDBRANCH  20  22
ENDBRANCH  14  20
ENDBRANCH   1  17
BRANCH   5  23
ATOM     23  C   UNL     1      37.195   3.600  16.183  0.00  0.00    +0.000 C 
BRANCH  23  24
ATOM     24  C   UNL     1      37.783   2.565  15.296  0.00  0.00    +0.000 A 
ATOM     25  C   UNL     1      37.134   1.440  14.863  0.00  0.00    +0.000 A 
ATOM     26  C   UNL     1      37.727   0.510  14.040  0.00  0.00    +0.000 A 
ATOM     27  C   UNL     1      39.022   0.659  13.601  0.00  0.00    +0.000 A 
ATOM     28  C   UNL     1      39.710   1.781  14.015  0.00  0.00    +0.000 A 
ATOM     29  C   UNL     1      39.102   2.702  14.838  0.00  0.00    +0.000 A 
BRANCH  27  30
ATOM     30  N   UNL     1      39.654  -0.291  12.749  0.00  0.00    +0.000 N 
ATOM     31  O   UNL     1      39.192  -0.556  11.641  0.00  0.00    +0.000 OA
ATOM     32  O   UNL     1      40.795  -0.930  13.156  0.00  0.00    +0.000 OA
ENDBRANCH  27  30
ENDBRANCH  23  24
ENDBRANCH   5  23
TORSDOF 7
ENDMDL
MODEL 8
REMARK VINA RESULT:      -6.9      3.601      8.002
REMARK  Name = 
REMARK  7 active torsions:
REMARK  status: ('A' for Active; 'I' for Inactive)
REMARK    1  A    between atoms: C_2  and  O_3
REMARK    2  A    between atoms: O_3  and  C_4
REMARK    3  A    between atoms: C_7  and  N_8
REMARK    4  A    between atoms: C_11  and  C_12
REMARK    5  A    between atoms: N_19  and  C_20
REMARK    6  A    between atoms: C_20  and  C_21
REMARK    7  A    between atoms: C_24  and  N_25
REMARK                            x       y       z     vdW  Elec       q    Type
REMARK                         _______ _______ _______ _____ _____    ______ ____
ROOT
ATOM      1  N   UNL     1      39.048   7.686  17.157  0.00  0.00    +0.000 NA
ATOM      2  C   UNL     1      38.447   6.759  16.225  0.00  0.00    +0.000 A 
ATOM      3  N   UNL     1      37.512   7.028  15.343  0.00  0.00    +0.000 NA
ATOM      4  C   UNL     1      37.070   6.079  14.571  0.00  0.00    +0.000 A 
ATOM      5  N   UNL     1      37.594   4.863  14.706  0.00  0.00    +0.000 N 
ATOM      6  S   UNL     1      38.728   5.101  15.963  0.00  0.00    +0.000 S 
ENDROOT
BRANCH   4   7
ATOM      7  C   UNL     1      35.990   6.352  13.582  0.00  0.00    +0.000 A 
ATOM      8  C   UNL     1      36.236   6.441  12.228  0.00  0.00    +0.000 A 
ATOM      9  C   UNL     1      35.245   6.718  11.311  0.00  0.00    +0.000 A 
ATOM     10  C   UNL     1      33.952   6.915  11.733  0.00  0.00    +0.000 A 
ATOM     11  C   UNL     1      32.840   7.218  10.783  0.00  0.00    +0.000 C 
ATOM     12  C   UNL     1      33.679   6.832  13.072  0.00  0.00    +0.000 A 
ATOM     13  C   UNL     1      34.690   6.555  13.966  0.00  0.00    +0.000 A 
ENDBRANCH   4   7
BRANCH   1  17
ATOM     14  C   UNL     1      41.859   6.347  19.959  0.00  0.00    +0.000 A 
ATOM     15  C   UNL     1      40.536   6.522  20.284  0.00  0.00    +0.000 A 
ATOM     16  C   UNL     1      39.641   6.963  19.337  0.00  0.00    +0.000 A 
ATOM     17  C   UNL     1      40.057   7.236  18.053  0.00  0.00    +0.000 A 
ATOM     18  C   UNL     1      41.367   7.066  17.716  0.00  0.00    +0.000 A 
ATOM     19  C   UNL     1      42.259   6.624  18.669  0.00  0.00    +0.000 A 
BRANCH  14  20
ATOM     20  O   UNL     1      42.748   5.899  20.933  0.00  0.00    +0.000 OA
BRANCH  20  22
ATOM     21  C   UNL     1      44.848   5.779  22.020  0.00  0.00    +0.000 C 
ATOM     22  C   UNL     1      44.098   6.307  20.827  0.00  0.00    +0.000 C 
ENDBRANCH  20  22
ENDBRANCH  14  20
ENDBRANCH   1  17
BRANCH   5  23
ATOM     23  C   UNL     1      37.338   3.616  13.963  0.00  0.00    +0.000 C 
BRANCH  23  24
ATOM     24  C   UNL     1      36.792   2.612  14.911  0.00  0.00    +0.000 A 
ATOM     25  C   UNL     1      37.402   1.433  15.246  0.00  0.00    +0.000 A 
ATOM     26  C   UNL     1      36.851   0.536  16.132  0.00  0.00    +0.000 A 
ATOM     27  C   UNL     1      35.639   0.776  16.739  0.00  0.00    +0.000 A 
ATOM     28  C   UNL     1      34.994   1.955  16.428  0.00  0.00    +0.000 A 
ATOM     29  C   UNL     1      35.559   2.841  15.539  0.00  0.00    +0.000 A 
BRANCH  27  30
ATOM     30  N   UNL     1      35.052  -0.138  17.659  0.00  0.00    +0.000 N 
ATOM     31  O   UNL     1      35.444  -0.208  18.822  0.00  0.00    +0.000 OA
ATOM     32  O   UNL     1      34.033  -0.962  17.257  0.00  0.00    +0.000 OA
ENDBRANCH  27  30
ENDBRANCH  23  24
ENDBRANCH   5  23
TORSDOF 7
ENDMDL
MODEL 9
REMARK VINA RESULT:      -6.9      4.934      7.770
REMARK  Name = 
REMARK  7 active torsions:
REMARK  status: ('A' for Active; 'I' for Inactive)
REMARK    1  A    between atoms: C_2  and  O_3
REMARK    2  A    between atoms: O_3  and  C_4
REMARK    3  A    between atoms: C_7  and  N_8
REMARK    4  A    between atoms: C_11  and  C_12
REMARK    5  A    between atoms: N_19  and  C_20
REMARK    6  A    between atoms: C_20  and  C_21
REMARK    7  A    between atoms: C_24  and  N_25
REMARK                            x       y       z     vdW  Elec       q    Type
REMARK                         _______ _______ _______ _____ _____    ______ ____
ROOT
ATOM      1  N   UNL     1      38.550   5.119  14.548  0.00  0.00    +0.000 NA
ATOM      2  C   UNL     1      38.751   3.850  13.886  0.00  0.00    +0.000 A 
ATOM      3  N   UNL     1      38.452   3.558  12.641  0.00  0.00    +0.000 NA
ATOM      4  C   UNL     1      38.694   2.362  12.189  0.00  0.00    +0.000 A 
ATOM      5  N   UNL     1      39.244   1.477  13.017  0.00  0.00    +0.000 N 
ATOM      6  S   UNL     1      39.405   2.386  14.456  0.00  0.00    +0.000 S 
ENDROOT
BRANCH   4   7
ATOM      7  C   UNL     1      38.339   1.998  10.790  0.00  0.00    +0.000 A 
ATOM      8  C   UNL     1      39.273   1.969   9.776  0.00  0.00    +0.000 A 
ATOM      9  C   UNL     1      38.945   1.656   8.474  0.00  0.00    +0.000 A 
ATOM     10  C   UNL     1      37.645   1.356   8.145  0.00  0.00    +0.000 A 
ATOM     11  C   UNL     1      37.235   1.011   6.751  0.00  0.00    +0.000 C 
ATOM     12  C   UNL     1      36.697   1.377   9.131  0.00  0.00    +0.000 A 
ATOM     13  C   UNL     1      37.053   1.693  10.424  0.00  0.00    +0.000 A 
ENDBRANCH   4   7
BRANCH   1  17
ATOM     14  C   UNL     1      39.841   5.722  18.487  0.00  0.00    +0.000 A 
ATOM     15  C   UNL     1      40.478   6.302  17.418  0.00  0.00    +0.000 A 
ATOM     16  C   UNL     1      40.025   6.081  16.137  0.00  0.00    +0.000 A 
ATOM     17  C   UNL     1      38.931   5.277  15.910  0.00  0.00    +0.000 A 
ATOM     18  C   UNL     1      38.289   4.695  16.962  0.00  0.00    +0.000 A 
ATOM     19  C   UNL     1      38.747   4.920  18.242  0.00  0.00    +0.000 A 
BRANCH  14  20
ATOM     20  O   UNL     1      40.315   5.959  19.775  0.00  0.00    +0.000 OA
BRANCH  20  22
ATOM     21  C   UNL     1      39.071   7.832  20.517  0.00  0.00    +0.000 C 
ATOM     22  C   UNL     1      40.443   7.306  20.190  0.00  0.00    +0.000 C 
ENDBRANCH  20  22
ENDBRANCH  14  20
ENDBRANCH   1  17
BRANCH   5  23
ATOM     23  C   UNL     1      39.669   0.083  12.793  0.00  0.00    +0.000 C 
BRANCH  23  24
ATOM     24  C   UNL     1      38.981  -0.780  13.787  0.00  0.00    +0.000 A 
ATOM     25  C   UNL     1      39.589  -1.401  14.844  0.00  0.00    +0.000 A 
ATOM     26  C   UNL     1      38.903  -2.192  15.737  0.00  0.00    +0.000 A 
ATOM     27  C   UNL     1      37.549  -2.406  15.616  0.00  0.00    +0.000 A 
ATOM     28  C   UNL     1      36.899  -1.795  14.563  0.00  0.00    +0.000 A 
ATOM     29  C   UNL     1      37.600  -1.007  13.679  0.00  0.00    +0.000 A 
BRANCH  27  30
ATOM     30  N   UNL     1      36.820  -3.220  16.529  0.00  0.00    +0.000 N 
ATOM     31  O   UNL     1      35.858  -2.772  17.150  0.00  0.00    +0.000 OA
ATOM     32  O   UNL     1      37.184  -4.525  16.730  0.00  0.00    +0.000 OA
ENDBRANCH  27  30
ENDBRANCH  23  24
ENDBRANCH   5  23
TORSDOF 7
ENDMDL
MODEL 10
REMARK VINA RESULT:      -6.8     23.476     25.890
REMARK  Name = 
REMARK  7 active torsions:
REMARK  status: ('A' for Active; 'I' for Inactive)
REMARK    1  A    between atoms: C_2  and  O_3
REMARK    2  A    between atoms: O_3  and  C_4
REMARK    3  A    between atoms: C_7  and  N_8
REMARK    4  A    between atoms: C_11  and  C_12
REMARK    5  A    between atoms: N_19  and  C_20
REMARK    6  A    between atoms: C_20  and  C_21
REMARK    7  A    between atoms: C_24  and  N_25
REMARK                            x       y       z     vdW  Elec       q    Type
REMARK                         _______ _______ _______ _____ _____    ______ ____
ROOT
ATOM      1  N   UNL     1      18.733  -0.417   4.487  0.00  0.00    +0.000 NA
ATOM      2  C   UNL     1      17.343  -0.806   4.532  0.00  0.00    +0.000 A 
ATOM      3  N   UNL     1      16.633  -1.064   5.607  0.00  0.00    +0.000 NA
ATOM      4  C   UNL     1      15.384  -1.406   5.482  0.00  0.00    +0.000 A 
ATOM      5  N   UNL     1      14.872  -1.476   4.255  0.00  0.00    +0.000 N 
ATOM      6  S   UNL     1      16.212  -1.050   3.284  0.00  0.00    +0.000 S 
ENDROOT
BRANCH   4   7
ATOM      7  C   UNL     1      14.566  -1.729   6.683  0.00  0.00    +0.000 A 
ATOM      8  C   UNL     1      13.672  -0.833   7.230  0.00  0.00    +0.000 A 
ATOM      9  C   UNL     1      12.930  -1.118   8.356  0.00  0.00    +0.000 A 
ATOM     10  C   UNL     1      13.065  -2.336   8.979  0.00  0.00    +0.000 A 
ATOM     11  C   UNL     1      12.286  -2.697  10.201  0.00  0.00    +0.000 C 
ATOM     12  C   UNL     1      13.945  -3.245   8.458  0.00  0.00    +0.000 A 
ATOM     13  C   UNL     1      14.674  -2.932   7.331  0.00  0.00    +0.000 A 
ENDBRANCH   4   7
BRANCH   1  17
ATOM     14  C   UNL     1      20.654   0.089   0.799  0.00  0.00    +0.000 A 
ATOM     15  C   UNL     1      20.679  -1.108   1.473  0.00  0.00    +0.000 A 
ATOM     16  C   UNL     1      20.037  -1.237   2.683  0.00  0.00    +0.000 A 
ATOM     17  C   UNL     1      19.361  -0.171   3.235  0.00  0.00    +0.000 A 
ATOM     18  C   UNL     1      19.327   1.022   2.577  0.00  0.00    +0.000 A 
ATOM     19  C   UNL     1      19.973   1.145   1.365  0.00  0.00    +0.000 A 
BRANCH  14  20
ATOM     20  O   UNL     1      21.311   0.198  -0.423  0.00  0.00    +0.000 OA
BRANCH  20  22
ATOM     21  C   UNL     1      22.457   1.930  -1.561  0.00  0.00    +0.000 C 
ATOM     22  C   UNL     1      21.110   1.381  -1.174  0.00  0.00    +0.000 C 
ENDBRANCH  20  22
ENDBRANCH  14  20
ENDBRANCH   1  17
BRANCH   5  23
ATOM     23  C   UNL     1      13.505  -1.788   3.799  0.00  0.00    +0.000 C 
BRANCH  23  24
ATOM     24  C   UNL     1      13.265  -3.239   3.999  0.00  0.00    +0.000 A 
ATOM     25  C   UNL     1      14.017  -4.244   3.450  0.00  0.00    +0.000 A 
ATOM     26  C   UNL     1      13.751  -5.576   3.669  0.00  0.00    +0.000 A 
ATOM     27  C   UNL     1      12.700  -5.980   4.462  0.00  0.00    +0.000 A 
ATOM     28  C   UNL     1      11.920  -4.997   5.034  0.00  0.00    +0.000 A 
ATOM     29  C   UNL     1      12.200  -3.668   4.805  0.00  0.00    +0.000 A 
BRANCH  27  30
ATOM     30  N   UNL     1      12.408  -7.352   4.700  0.00  0.00    +0.000 N 
ATOM     31  O   UNL     1      11.512  -7.685   5.474  0.00  0.00    +0.000 OA
ATOM     32  O   UNL     1      13.129  -8.331   4.068  0.00  0.00    +0.000 OA
ENDBRANCH  27  30
ENDBRANCH  23  24
ENDBRANCH   5  23
TORSDOF 7
ENDMDL
