MODEL 1
REMARK VINA RESULT:      -7.2      0.000      0.000
REMARK  Name = 
REMARK  3 active torsions:
REMARK  status: ('A' for Active; 'I' for Inactive)
REMARK    1  A    between atoms: C_5  and  C_6
REMARK    2  A    between atoms: C_6  and  N_7
REMARK    3  A    between atoms: C_8  and  C_10
REMARK                            x       y       z     vdW  Elec       q    Type
REMARK                         _______ _______ _______ _____ _____    ______ ____
ROOT
ATOM      1  N   UNL     1      16.451  10.864  36.011  0.00  0.00    +0.000 NA
ATOM      2  C   UNL     1      16.782  10.517  34.680  0.00  0.00    +0.000 C 
ATOM      3  O   UNL     1      17.681   9.663  34.494  0.00  0.00    +0.000 OA
ENDROOT
BRANCH   2   4
ATOM      4  C   UNL     1      16.130  11.106  33.516  0.00  0.00    +0.000 A 
ATOM      5  C   UNL     1      16.371  10.573  32.268  0.00  0.00    +0.000 A 
ATOM      6  C   UNL     1      15.771  11.111  31.153  0.00  0.00    +0.000 A 
ATOM      7  C   UNL     1      14.915  12.186  31.212  0.00  0.00    +0.000 A 
ATOM      8  O   UNL     1      14.300  12.740  30.089  0.00  0.00    +0.000 OA
ATOM      9  C   UNL     1      14.671  12.725  32.477  0.00  0.00    +0.000 A 
ATOM     10 CL   UNL     1      13.603  14.084  32.623  0.00  0.00    +0.000 Cl
ATOM     11  C   UNL     1      15.281  12.178  33.602  0.00  0.00    +0.000 A 
ENDBRANCH   2   4
BRANCH   1  12
ATOM     12  C   UNL     1      17.080  10.299  37.183  0.00  0.00    +0.000 C 
BRANCH  12  17
ATOM     13  C   UNL     1      21.456  13.501  39.224  0.00  0.00    +0.000 C 
ATOM     14  C   UNL     1      20.320  12.689  38.687  0.00  0.00    +0.000 A 
ATOM     15  C   UNL     1      20.242  11.334  38.927  0.00  0.00    +0.000 A 
ATOM     16  C   UNL     1      19.186  10.580  38.432  0.00  0.00    +0.000 A 
ATOM     17  C   UNL     1      18.185  11.154  37.685  0.00  0.00    +0.000 A 
ATOM     18  C   UNL     1      18.255  12.503  37.441  0.00  0.00    +0.000 A 
ATOM     19  C   UNL     1      19.311  13.260  37.938  0.00  0.00    +0.000 A 
ENDBRANCH  12  17
ENDBRANCH   1  12
TORSDOF 3
ENDMDL
MODEL 2
REMARK VINA RESULT:      -6.9      2.256      3.042
REMARK  Name = 
REMARK  3 active torsions:
REMARK  status: ('A' for Active; 'I' for Inactive)
REMARK    1  A    between atoms: C_5  and  C_6
REMARK    2  A    between atoms: C_6  and  N_7
REMARK    3  A    between atoms: C_8  and  C_10
REMARK                            x       y       z     vdW  Elec       q    Type
REMARK                         _______ _______ _______ _____ _____    ______ ____
ROOT
ATOM      1  N   UNL     1      17.359  10.710  36.027  0.00  0.00    +0.000 NA
ATOM      2  C   UNL     1      17.153  10.625  34.629  0.00  0.00    +0.000 C 
ATOM      3  O   UNL     1      17.823   9.788  33.979  0.00  0.00    +0.000 OA
ENDROOT
BRANCH   2   4
ATOM      4  C   UNL     1      16.201  11.464  33.911  0.00  0.00    +0.000 A 
ATOM      5  C   UNL     1      16.177  11.428  32.534  0.00  0.00    +0.000 A 
ATOM      6  C   UNL     1      15.291  12.212  31.831  0.00  0.00    +0.000 A 
ATOM      7  C   UNL     1      14.396  13.057  32.444  0.00  0.00    +0.000 A 
ATOM      8  O   UNL     1      13.492  13.856  31.743  0.00  0.00    +0.000 OA
ATOM      9  C   UNL     1      14.420  13.093  33.839  0.00  0.00    +0.000 A 
ATOM     10 CL   UNL     1      13.318  14.139  34.676  0.00  0.00    +0.000 Cl
ATOM     11  C   UNL     1      15.319  12.298  34.545  0.00  0.00    +0.000 A 
ENDBRANCH   2   4
BRANCH   1  12
ATOM     12  C   UNL     1      18.296   9.893  36.764  0.00  0.00    +0.000 C 
BRANCH  12  17
ATOM     13  C   UNL     1      16.371   9.020  42.159  0.00  0.00    +0.000 C 
ATOM     14  C   UNL     1      16.882   9.232  40.769  0.00  0.00    +0.000 A 
ATOM     15  C   UNL     1      16.192  10.021  39.873  0.00  0.00    +0.000 A 
ATOM     16  C   UNL     1      16.666  10.221  38.583  0.00  0.00    +0.000 A 
ATOM     17  C   UNL     1      17.837   9.642  38.153  0.00  0.00    +0.000 A 
ATOM     18  C   UNL     1      18.530   8.855  39.039  0.00  0.00    +0.000 A 
ATOM     19  C   UNL     1      18.056   8.654  40.332  0.00  0.00    +0.000 A 
ENDBRANCH  12  17
ENDBRANCH   1  12
TORSDOF 3
ENDMDL
MODEL 3
REMARK VINA RESULT:      -6.8     21.445     22.702
REMARK  Name = 
REMARK  3 active torsions:
REMARK  status: ('A' for Active; 'I' for Inactive)
REMARK    1  A    between atoms: C_5  and  C_6
REMARK    2  A    between atoms: C_6  and  N_7
REMARK    3  A    between atoms: C_8  and  C_10
REMARK                            x       y       z     vdW  Elec       q    Type
REMARK                         _______ _______ _______ _____ _____    ______ ____
ROOT
ATOM      1  N   UNL     1      33.533  -3.255  32.798  0.00  0.00    +0.000 NA
ATOM      2  C   UNL     1      33.346  -4.657  32.741  0.00  0.00    +0.000 C 
ATOM      3  O   UNL     1      33.233  -5.285  33.820  0.00  0.00    +0.000 OA
ENDROOT
BRANCH   2   4
ATOM      4  C   UNL     1      33.279  -5.402  31.490  0.00  0.00    +0.000 A 
ATOM      5  C   UNL     1      34.175  -5.111  30.484  0.00  0.00    +0.000 A 
ATOM      6  C   UNL     1      34.132  -5.798  29.292  0.00  0.00    +0.000 A 
ATOM      7  C   UNL     1      33.218  -6.791  29.037  0.00  0.00    +0.000 A 
ATOM      8  O   UNL     1      33.164  -7.495  27.834  0.00  0.00    +0.000 OA
ATOM      9  C   UNL     1      32.310  -7.086  30.056  0.00  0.00    +0.000 A 
ATOM     10 CL   UNL     1      31.127  -8.329  29.799  0.00  0.00    +0.000 Cl
ATOM     11  C   UNL     1      32.357  -6.389  31.260  0.00  0.00    +0.000 A 
ENDBRANCH   2   4
BRANCH   1  12
ATOM     12  C   UNL     1      33.603  -2.490  34.023  0.00  0.00    +0.000 C 
BRANCH  12  17
ATOM     13  C   UNL     1      33.521   3.235  33.141  0.00  0.00    +0.000 C 
ATOM     14  C   UNL     1      33.555   1.755  33.355  0.00  0.00    +0.000 A 
ATOM     15  C   UNL     1      32.890   1.177  34.415  0.00  0.00    +0.000 A 
ATOM     16  C   UNL     1      32.919  -0.197  34.613  0.00  0.00    +0.000 A 
ATOM     17  C   UNL     1      33.610  -1.029  33.763  0.00  0.00    +0.000 A 
ATOM     18  C   UNL     1      34.274  -0.461  32.705  0.00  0.00    +0.000 A 
ATOM     19  C   UNL     1      34.246   0.915  32.505  0.00  0.00    +0.000 A 
ENDBRANCH  12  17
ENDBRANCH   1  12
TORSDOF 3
ENDMDL
MODEL 4
REMARK VINA RESULT:      -6.7      2.665      3.839
REMARK  Name = 
REMARK  3 active torsions:
REMARK  status: ('A' for Active; 'I' for Inactive)
REMARK    1  A    between atoms: C_5  and  C_6
REMARK    2  A    between atoms: C_6  and  N_7
REMARK    3  A    between atoms: C_8  and  C_10
REMARK                            x       y       z     vdW  Elec       q    Type
REMARK                         _______ _______ _______ _____ _____    ______ ____
ROOT
ATOM      1  N   UNL     1      18.152  10.747  37.188  0.00  0.00    +0.000 NA
ATOM      2  C   UNL     1      16.992  11.302  36.596  0.00  0.00    +0.000 C 
ATOM      3  O   UNL     1      16.183  11.911  37.333  0.00  0.00    +0.000 OA
ENDROOT
BRANCH   2   4
ATOM      4  C   UNL     1      16.696  11.196  35.172  0.00  0.00    +0.000 A 
ATOM      5  C   UNL     1      17.392  10.289  34.404  0.00  0.00    +0.000 A 
ATOM      6  C   UNL     1      17.134  10.171  33.057  0.00  0.00    +0.000 A 
ATOM      7  C   UNL     1      16.189  10.932  32.411  0.00  0.00    +0.000 A 
ATOM      8  O   UNL     1      15.917  10.822  31.047  0.00  0.00    +0.000 OA
ATOM      9  C   UNL     1      15.483  11.851  33.189  0.00  0.00    +0.000 A 
ATOM     10 CL   UNL     1      14.277  12.845  32.435  0.00  0.00    +0.000 Cl
ATOM     11  C   UNL     1      15.748  11.967  34.551  0.00  0.00    +0.000 A 
ENDBRANCH   2   4
BRANCH   1  12
ATOM     12  C   UNL     1      18.472  10.835  38.595  0.00  0.00    +0.000 C 
BRANCH  12  17
ATOM     13  C   UNL     1      17.230   5.953  41.457  0.00  0.00    +0.000 C 
ATOM     14  C   UNL     1      17.564   7.204  40.708  0.00  0.00    +0.000 A 
ATOM     15  C   UNL     1      16.798   8.341  40.851  0.00  0.00    +0.000 A 
ATOM     16  C   UNL     1      17.109   9.505  40.159  0.00  0.00    +0.000 A 
ATOM     17  C   UNL     1      18.187   9.564  39.307  0.00  0.00    +0.000 A 
ATOM     18  C   UNL     1      18.955   8.436  39.159  0.00  0.00    +0.000 A 
ATOM     19  C   UNL     1      18.645   7.271  39.853  0.00  0.00    +0.000 A 
ENDBRANCH  12  17
ENDBRANCH   1  12
TORSDOF 3
ENDMDL
MODEL 5
REMARK VINA RESULT:      -6.6     18.761     20.751
REMARK  Name = 
REMARK  3 active torsions:
REMARK  status: ('A' for Active; 'I' for Inactive)
REMARK    1  A    between atoms: C_5  and  C_6
REMARK    2  A    between atoms: C_6  and  N_7
REMARK    3  A    between atoms: C_8  and  C_10
REMARK                            x       y       z     vdW  Elec       q    Type
REMARK                         _______ _______ _______ _____ _____    ______ ____
ROOT
ATOM      1  N   UNL     1      33.507   1.382  33.856  0.00  0.00    +0.000 NA
ATOM      2  C   UNL     1      34.048   0.221  33.254  0.00  0.00    +0.000 C 
ATOM      3  O   UNL     1      34.484   0.308  32.082  0.00  0.00    +0.000 OA
ENDROOT
BRANCH   2   4
ATOM      4  C   UNL     1      34.122  -1.068  33.931  0.00  0.00    +0.000 A 
ATOM      5  C   UNL     1      34.747  -1.151  35.156  0.00  0.00    +0.000 A 
ATOM      6  C   UNL     1      34.834  -2.356  35.815  0.00  0.00    +0.000 A 
ATOM      7  C   UNL     1      34.314  -3.522  35.306  0.00  0.00    +0.000 A 
ATOM      8  O   UNL     1      34.394  -4.749  35.964  0.00  0.00    +0.000 OA
ATOM      9  C   UNL     1      33.680  -3.438  34.065  0.00  0.00    +0.000 A 
ATOM     10 CL   UNL     1      33.003  -4.874  33.364  0.00  0.00    +0.000 Cl
ATOM     11  C   UNL     1      33.595  -2.217  33.402  0.00  0.00    +0.000 A 
ENDBRANCH   2   4
BRANCH   1  12
ATOM     12  C   UNL     1      33.420   2.672  33.209  0.00  0.00    +0.000 C 
BRANCH  12  17
ATOM     13  C   UNL     1      34.179   7.122  36.841  0.00  0.00    +0.000 C 
ATOM     14  C   UNL     1      33.992   5.962  35.915  0.00  0.00    +0.000 A 
ATOM     15  C   UNL     1      33.199   6.071  34.794  0.00  0.00    +0.000 A 
ATOM     16  C   UNL     1      33.027   4.995  33.932  0.00  0.00    +0.000 A 
ATOM     17  C   UNL     1      33.639   3.786  34.166  0.00  0.00    +0.000 A 
ATOM     18  C   UNL     1      34.431   3.669  35.280  0.00  0.00    +0.000 A 
ATOM     19  C   UNL     1      34.604   4.746  36.144  0.00  0.00    +0.000 A 
ENDBRANCH  12  17
ENDBRANCH   1  12
TORSDOF 3
ENDMDL
MODEL 6
REMARK VINA RESULT:      -6.6      4.531      8.092
REMARK  Name = 
REMARK  3 active torsions:
REMARK  status: ('A' for Active; 'I' for Inactive)
REMARK    1  A    between atoms: C_5  and  C_6
REMARK    2  A    between atoms: C_6  and  N_7
REMARK    3  A    between atoms: C_8  and  C_10
REMARK                            x       y       z     vdW  Elec       q    Type
REMARK                         _______ _______ _______ _____ _____    ______ ____
ROOT
ATOM      1  N   UNL     1      17.100  10.364  37.903  0.00  0.00    +0.000 NA
ATOM      2  C   UNL     1      17.981   9.983  38.943  0.00  0.00    +0.000 C 
ATOM      3  O   UNL     1      18.947  10.737  39.209  0.00  0.00    +0.000 OA
ENDROOT
BRANCH   2   4
ATOM      4  C   UNL     1      17.820   8.758  39.718  0.00  0.00    +0.000 A 
ATOM      5  C   UNL     1      16.843   8.699  40.688  0.00  0.00    +0.000 A 
ATOM      6  C   UNL     1      16.672   7.556  41.435  0.00  0.00    +0.000 A 
ATOM      7  C   UNL     1      17.442   6.431  41.264  0.00  0.00    +0.000 A 
ATOM      8  O   UNL     1      17.278   5.266  42.014  0.00  0.00    +0.000 OA
ATOM      9  C   UNL     1      18.432   6.491  40.280  0.00  0.00    +0.000 A 
ATOM     10 CL   UNL     1      19.442   5.106  40.013  0.00  0.00    +0.000 Cl
ATOM     11  C   UNL     1      18.602   7.649  39.527  0.00  0.00    +0.000 A 
ENDBRANCH   2   4
BRANCH   1  12
ATOM     12  C   UNL     1      17.236  11.571  37.120  0.00  0.00    +0.000 C 
BRANCH  12  17
ATOM     13  C   UNL     1      15.874  10.626  31.568  0.00  0.00    +0.000 C 
ATOM     14  C   UNL     1      16.210  10.881  33.003  0.00  0.00    +0.000 A 
ATOM     15  C   UNL     1      17.271  10.241  33.607  0.00  0.00    +0.000 A 
ATOM     16  C   UNL     1      17.586  10.477  34.939  0.00  0.00    +0.000 A 
ATOM     17  C   UNL     1      16.852  11.356  35.702  0.00  0.00    +0.000 A 
ATOM     18  C   UNL     1      15.794  11.998  35.108  0.00  0.00    +0.000 A 
ATOM     19  C   UNL     1      15.478  11.761  33.774  0.00  0.00    +0.000 A 
ENDBRANCH  12  17
ENDBRANCH   1  12
TORSDOF 3
ENDMDL
MODEL 7
REMARK VINA RESULT:      -6.5     21.482     22.958
REMARK  Name = 
REMARK  3 active torsions:
REMARK  status: ('A' for Active; 'I' for Inactive)
REMARK    1  A    between atoms: C_5  and  C_6
REMARK    2  A    between atoms: C_6  and  N_7
REMARK    3  A    between atoms: C_8  and  C_10
REMARK                            x       y       z     vdW  Elec       q    Type
REMARK                         _______ _______ _______ _____ _____    ______ ____
ROOT
ATOM      1  N   UNL     1      34.274  -3.132  34.009  0.00  0.00    +0.000 NA
ATOM      2  C   UNL     1      33.454  -4.153  33.473  0.00  0.00    +0.000 C 
ATOM      3  O   UNL     1      32.282  -4.262  33.905  0.00  0.00    +0.000 OA
ENDROOT
BRANCH   2   4
ATOM      4  C   UNL     1      33.907  -5.084  32.446  0.00  0.00    +0.000 A 
ATOM      5  C   UNL     1      34.835  -6.049  32.773  0.00  0.00    +0.000 A 
ATOM      6  C   UNL     1      35.281  -6.937  31.822  0.00  0.00    +0.000 A 
ATOM      7  C   UNL     1      34.841  -6.919  30.520  0.00  0.00    +0.000 A 
ATOM      8  O   UNL     1      35.285  -7.815  29.547  0.00  0.00    +0.000 OA
ATOM      9  C   UNL     1      33.901  -5.942  30.189  0.00  0.00    +0.000 A 
ATOM     10 CL   UNL     1      33.304  -5.862  28.562  0.00  0.00    +0.000 Cl
ATOM     11  C   UNL     1      33.452  -5.045  31.154  0.00  0.00    +0.000 A 
ENDBRANCH   2   4
BRANCH   1  12
ATOM     12  C   UNL     1      33.852  -2.197  35.028  0.00  0.00    +0.000 C 
BRANCH  12  17
ATOM     13  C   UNL     1      33.636   3.167  32.848  0.00  0.00    +0.000 C 
ATOM     14  C   UNL     1      33.684   1.788  33.427  0.00  0.00    +0.000 A 
ATOM     15  C   UNL     1      33.994   0.700  32.640  0.00  0.00    +0.000 A 
ATOM     16  C   UNL     1      34.043  -0.580  33.177  0.00  0.00    +0.000 A 
ATOM     17  C   UNL     1      33.784  -0.808  34.509  0.00  0.00    +0.000 A 
ATOM     18  C   UNL     1      33.476   0.271  35.299  0.00  0.00    +0.000 A 
ATOM     19  C   UNL     1      33.427   1.553  34.763  0.00  0.00    +0.000 A 
ENDBRANCH  12  17
ENDBRANCH   1  12
TORSDOF 3
ENDMDL
MODEL 8
REMARK VINA RESULT:      -6.4      4.097      5.334
REMARK  Name = 
REMARK  3 active torsions:
REMARK  status: ('A' for Active; 'I' for Inactive)
REMARK    1  A    between atoms: C_5  and  C_6
REMARK    2  A    between atoms: C_6  and  N_7
REMARK    3  A    between atoms: C_8  and  C_10
REMARK                            x       y       z     vdW  Elec       q    Type
REMARK                         _______ _______ _______ _____ _____    ______ ____
ROOT
ATOM      1  N   UNL     1      15.910  10.214  39.507  0.00  0.00    +0.000 NA
ATOM      2  C   UNL     1      14.695  10.630  38.913  0.00  0.00    +0.000 C 
ATOM      3  O   UNL     1      13.625  10.395  39.522  0.00  0.00    +0.000 OA
ENDROOT
BRANCH   2   4
ATOM      4  C   UNL     1      14.629  11.316  37.628  0.00  0.00    +0.000 A 
ATOM      5  C   UNL     1      13.531  12.098  37.337  0.00  0.00    +0.000 A 
ATOM      6  C   UNL     1      13.443  12.754  36.131  0.00  0.00    +0.000 A 
ATOM      7  C   UNL     1      14.418  12.673  35.165  0.00  0.00    +0.000 A 
ATOM      8  O   UNL     1      14.340  13.333  33.939  0.00  0.00    +0.000 OA
ATOM      9  C   UNL     1      15.529  11.881  35.460  0.00  0.00    +0.000 A 
ATOM     10 CL   UNL     1      16.796  11.734  34.284  0.00  0.00    +0.000 Cl
ATOM     11  C   UNL     1      15.615  11.219  36.681  0.00  0.00    +0.000 A 
ENDBRANCH   2   4
BRANCH   1  12
ATOM     12  C   UNL     1      16.006   9.532  40.778  0.00  0.00    +0.000 C 
BRANCH  12  17
ATOM     13  C   UNL     1      19.280   4.757  40.561  0.00  0.00    +0.000 C 
ATOM     14  C   UNL     1      18.447   5.998  40.604  0.00  0.00    +0.000 A 
ATOM     15  C   UNL     1      17.236   6.016  41.263  0.00  0.00    +0.000 A 
ATOM     16  C   UNL     1      16.462   7.168  41.307  0.00  0.00    +0.000 A 
ATOM     17  C   UNL     1      16.873   8.330  40.696  0.00  0.00    +0.000 A 
ATOM     18  C   UNL     1      18.078   8.321  40.039  0.00  0.00    +0.000 A 
ATOM     19  C   UNL     1      18.854   7.168  39.995  0.00  0.00    +0.000 A 
ENDBRANCH  12  17
ENDBRANCH   1  12
TORSDOF 3
ENDMDL
MODEL 9
REMARK VINA RESULT:      -6.4     17.760     19.515
REMARK  Name = 
REMARK  3 active torsions:
REMARK  status: ('A' for Active; 'I' for Inactive)
REMARK    1  A    between atoms: C_5  and  C_6
REMARK    2  A    between atoms: C_6  and  N_7
REMARK    3  A    between atoms: C_8  and  C_10
REMARK                            x       y       z     vdW  Elec       q    Type
REMARK                         _______ _______ _______ _____ _____    ______ ____
ROOT
ATOM      1  N   UNL     1      33.989   3.505  34.144  0.00  0.00    +0.000 NA
ATOM      2  C   UNL     1      33.306   4.714  34.420  0.00  0.00    +0.000 C 
ATOM      3  O   UNL     1      32.453   5.116  33.594  0.00  0.00    +0.000 OA
ENDROOT
BRANCH   2   4
ATOM      4  C   UNL     1      33.549   5.512  35.616  0.00  0.00    +0.000 A 
ATOM      5  C   UNL     1      34.053   6.787  35.484  0.00  0.00    +0.000 A 
ATOM      6  C   UNL     1      34.294   7.560  36.597  0.00  0.00    +0.000 A 
ATOM      7  C   UNL     1      34.052   7.120  37.876  0.00  0.00    +0.000 A 
ATOM      8  O   UNL     1      34.291   7.894  39.012  0.00  0.00    +0.000 OA
ATOM      9  C   UNL     1      33.541   5.828  38.010  0.00  0.00    +0.000 A 
ATOM     10 CL   UNL     1      33.214   5.209  39.598  0.00  0.00    +0.000 Cl
ATOM     11  C   UNL     1      33.299   5.049  36.882  0.00  0.00    +0.000 A 
ENDBRANCH   2   4
BRANCH   1  12
ATOM     12  C   UNL     1      33.771   2.695  32.967  0.00  0.00    +0.000 C 
BRANCH  12  17
ATOM     13  C   UNL     1      32.928  -2.850  34.420  0.00  0.00    +0.000 C 
ATOM     14  C   UNL     1      33.158  -1.424  34.031  0.00  0.00    +0.000 A 
ATOM     15  C   UNL     1      32.434  -0.406  34.613  0.00  0.00    +0.000 A 
ATOM     16  C   UNL     1      32.647   0.919  34.255  0.00  0.00    +0.000 A 
ATOM     17  C   UNL     1      33.585   1.262  33.309  0.00  0.00    +0.000 A 
ATOM     18  C   UNL     1      34.310   0.254  32.725  0.00  0.00    +0.000 A 
ATOM     19  C   UNL     1      34.097  -1.073  33.083  0.00  0.00    +0.000 A 
ENDBRANCH  12  17
ENDBRANCH   1  12
TORSDOF 3
ENDMDL
MODEL 10
REMARK VINA RESULT:      -6.4     20.966     22.789
REMARK  Name = 
REMARK  3 active torsions:
REMARK  status: ('A' for Active; 'I' for Inactive)
REMARK    1  A    between atoms: C_5  and  C_6
REMARK    2  A    between atoms: C_6  and  N_7
REMARK    3  A    between atoms: C_8  and  C_10
REMARK                            x       y       z     vdW  Elec       q    Type
REMARK                         _______ _______ _______ _____ _____    ______ ____
ROOT
ATOM      1  N   UNL     1      33.991  -3.596  33.932  0.00  0.00    +0.000 NA
ATOM      2  C   UNL     1      33.011  -2.703  34.426  0.00  0.00    +0.000 C 
ATOM      3  O   UNL     1      31.868  -3.154  34.675  0.00  0.00    +0.000 OA
ENDROOT
BRANCH   2   4
ATOM      4  C   UNL     1      33.266  -1.286  34.656  0.00  0.00    +0.000 A 
ATOM      5  C   UNL     1      33.318  -0.812  35.949  0.00  0.00    +0.000 A 
ATOM      6  C   UNL     1      33.554   0.521  36.194  0.00  0.00    +0.000 A 
ATOM      7  C   UNL     1      33.748   1.440  35.190  0.00  0.00    +0.000 A 
ATOM      8  O   UNL     1      33.989   2.794  35.425  0.00  0.00    +0.000 OA
ATOM      9  C   UNL     1      33.695   0.960  33.880  0.00  0.00    +0.000 A 
ATOM     10 CL   UNL     1      33.928   2.068  32.565  0.00  0.00    +0.000 Cl
ATOM     11  C   UNL     1      33.455  -0.389  33.637  0.00  0.00    +0.000 A 
ENDBRANCH   2   4
BRANCH   1  12
ATOM     12  C   UNL     1      33.767  -5.004  33.694  0.00  0.00    +0.000 C 
BRANCH  12  17
ATOM     13  C   UNL     1      33.720  -6.267  28.040  0.00  0.00    +0.000 C 
ATOM     14  C   UNL     1      33.751  -5.941  29.499  0.00  0.00    +0.000 A 
ATOM     15  C   UNL     1      32.598  -5.606  30.175  0.00  0.00    +0.000 A 
ATOM     16  C   UNL     1      32.625  -5.306  31.531  0.00  0.00    +0.000 A 
ATOM     17  C   UNL     1      33.799  -5.332  32.247  0.00  0.00    +0.000 A 
ATOM     18  C   UNL     1      34.952  -5.666  31.581  0.00  0.00    +0.000 A 
ATOM     19  C   UNL     1      34.926  -5.967  30.223  0.00  0.00    +0.000 A 
ENDBRANCH  12  17
ENDBRANCH   1  12
TORSDOF 3
ENDMDL
