MODEL 1
REMARK VINA RESULT:      -5.5      0.000      0.000
REMARK  Name = 
REMARK  4 active torsions:
REMARK  status: ('A' for Active; 'I' for Inactive)
REMARK    1  A    between atoms: C_4  and  O_5
REMARK    2  A    between atoms: O_5  and  C_6
REMARK    3  A    between atoms: C_6  and  C_8
REMARK    4  A    between atoms: C_8  and  C_10
REMARK                            x       y       z     vdW  Elec       q    Type
REMARK                         _______ _______ _______ _____ _____    ______ ____
ROOT
ATOM      1  O   UNL     1      27.070  24.211  26.385  0.00  0.00    +0.000 OA
ENDROOT
BRANCH   1   5
ATOM      2  C   UNL     1      30.095  22.784  28.035  0.00  0.00    +0.000 C 
ATOM      3  C   UNL     1      29.514  23.818  29.157  0.00  0.00    +0.000 C 
ATOM      4  C   UNL     1      28.546  24.585  28.108  0.00  0.00    +0.000 C 
ATOM      5  C   UNL     1      27.654  23.343  27.494  0.00  0.00    +0.000 C 
ATOM      6  C   UNL     1      26.447  23.642  28.552  0.00  0.00    +0.000 C 
ATOM      7  C   UNL     1      27.122  23.212  29.835  0.00  0.00    +0.000 C 
ATOM      8  C   UNL     1      26.343  21.939  30.238  0.00  0.00    +0.000 C 
ATOM      9  C   UNL     1      26.785  24.161  30.986  0.00  0.00    +0.000 C 
ATOM     10  C   UNL     1      28.481  22.738  29.765  0.00  0.00    +0.000 C 
ENDBRANCH   1   5
BRANCH   1  11
ATOM     11  C   UNL     1      26.851  23.600  25.179  0.00  0.00    +0.000 C 
ATOM     12  O   UNL     1      26.204  22.545  25.141  0.00  0.00    +0.000 OA
BRANCH  11  13
ATOM     13  C   UNL     1      27.406  24.205  23.829  0.00  0.00    +0.000 C 
ATOM     14  O   UNL     1      27.346  25.641  24.255  0.00  0.00    +0.000 OA
BRANCH  13  15
ATOM     15  C   UNL     1      28.930  24.009  24.152  0.00  0.00    +0.000 A 
ATOM     16  C   UNL     1      29.470  22.778  24.211  0.00  0.00    +0.000 A 
ATOM     17  C   UNL     1      30.815  22.633  24.498  0.00  0.00    +0.000 A 
ATOM     18  C   UNL     1      31.556  23.753  24.711  0.00  0.00    +0.000 A 
ATOM     19  C   UNL     1      30.991  25.009  24.647  0.00  0.00    +0.000 A 
ATOM     20  C   UNL     1      29.631  25.144  24.357  0.00  0.00    +0.000 A 
ENDBRANCH  13  15
ENDBRANCH  11  13
ENDBRANCH   1  11
TORSDOF 4
ENDMDL
MODEL 2
REMARK VINA RESULT:      -5.4      1.939      5.852
REMARK  Name = 
REMARK  4 active torsions:
REMARK  status: ('A' for Active; 'I' for Inactive)
REMARK    1  A    between atoms: C_4  and  O_5
REMARK    2  A    between atoms: O_5  and  C_6
REMARK    3  A    between atoms: C_6  and  C_8
REMARK    4  A    between atoms: C_8  and  C_10
REMARK                            x       y       z     vdW  Elec       q    Type
REMARK                         _______ _______ _______ _____ _____    ______ ____
ROOT
ATOM      1  O   UNL     1      29.063  22.289  27.231  0.00  0.00    +0.000 OA
ENDROOT
BRANCH   1   5
ATOM      2  C   UNL     1      32.015  24.010  25.736  0.00  0.00    +0.000 C 
ATOM      3  C   UNL     1      31.336  23.259  24.456  0.00  0.00    +0.000 C 
ATOM      4  C   UNL     1      30.416  22.291  25.372  0.00  0.00    +0.000 C 
ATOM      5  C   UNL     1      29.599  23.375  26.305  0.00  0.00    +0.000 C 
ATOM      6  C   UNL     1      28.319  23.334  25.292  0.00  0.00    +0.000 C 
ATOM      7  C   UNL     1      28.923  24.031  24.093  0.00  0.00    +0.000 C 
ATOM      8  C   UNL     1      28.155  25.372  24.036  0.00  0.00    +0.000 C 
ATOM      9  C   UNL     1      28.488  23.366  22.786  0.00  0.00    +0.000 C 
ATOM     10  C   UNL     1      30.296  24.461  24.174  0.00  0.00    +0.000 C 
ENDBRANCH   1   5
BRANCH   1  11
ATOM     11  C   UNL     1      28.649  22.692  28.473  0.00  0.00    +0.000 C 
ATOM     12  O   UNL     1      29.296  23.556  29.078  0.00  0.00    +0.000 OA
BRANCH  11  13
ATOM     13  C   UNL     1      27.363  22.081  29.159  0.00  0.00    +0.000 C 
ATOM     14  O   UNL     1      27.817  22.286  30.572  0.00  0.00    +0.000 OA
BRANCH  13  15
ATOM     15  C   UNL     1      26.483  23.379  29.087  0.00  0.00    +0.000 A 
ATOM     16  C   UNL     1      26.010  23.830  27.911  0.00  0.00    +0.000 A 
ATOM     17  C   UNL     1      25.238  24.976  27.876  0.00  0.00    +0.000 A 
ATOM     18  C   UNL     1      24.977  25.617  29.047  0.00  0.00    +0.000 A 
ATOM     19  C   UNL     1      25.467  25.146  30.246  0.00  0.00    +0.000 A 
ATOM     20  C   UNL     1      26.246  23.986  30.269  0.00  0.00    +0.000 A 
ENDBRANCH  13  15
ENDBRANCH  11  13
ENDBRANCH   1  11
TORSDOF 4
ENDMDL
MODEL 3
REMARK VINA RESULT:      -5.4      2.136      2.980
REMARK  Name = 
REMARK  4 active torsions:
REMARK  status: ('A' for Active; 'I' for Inactive)
REMARK    1  A    between atoms: C_4  and  O_5
REMARK    2  A    between atoms: O_5  and  C_6
REMARK    3  A    between atoms: C_6  and  C_8
REMARK    4  A    between atoms: C_8  and  C_10
REMARK                            x       y       z     vdW  Elec       q    Type
REMARK                         _______ _______ _______ _____ _____    ______ ____
ROOT
ATOM      1  O   UNL     1      26.571  24.965  23.745  0.00  0.00    +0.000 OA
ENDROOT
BRANCH   1   5
ATOM      2  C   UNL     1      27.161  23.024  26.876  0.00  0.00    +0.000 C 
ATOM      3  C   UNL     1      27.290  24.575  27.370  0.00  0.00    +0.000 C 
ATOM      4  C   UNL     1      27.438  25.157  25.866  0.00  0.00    +0.000 C 
ATOM      5  C   UNL     1      26.086  24.566  25.134  0.00  0.00    +0.000 C 
ATOM      6  C   UNL     1      25.286  25.963  25.405  0.00  0.00    +0.000 C 
ATOM      7  C   UNL     1      25.140  25.884  26.909  0.00  0.00    +0.000 C 
ATOM      8  C   UNL     1      23.621  25.681  27.109  0.00  0.00    +0.000 C 
ATOM      9  C   UNL     1      25.361  27.249  27.561  0.00  0.00    +0.000 C 
ATOM     10  C   UNL     1      25.700  24.744  27.589  0.00  0.00    +0.000 C 
ENDBRANCH   1   5
BRANCH   1  11
ATOM     11  C   UNL     1      26.728  23.952  22.836  0.00  0.00    +0.000 C 
ATOM     12  O   UNL     1      25.874  23.058  22.770  0.00  0.00    +0.000 OA
BRANCH  11  13
ATOM     13  C   UNL     1      27.974  23.891  21.866  0.00  0.00    +0.000 C 
ATOM     14  O   UNL     1      28.097  25.371  21.665  0.00  0.00    +0.000 OA
BRANCH  13  15
ATOM     15  C   UNL     1      29.072  23.793  22.984  0.00  0.00    +0.000 A 
ATOM     16  C   UNL     1      29.196  22.683  23.735  0.00  0.00    +0.000 A 
ATOM     17  C   UNL     1      30.172  22.623  24.713  0.00  0.00    +0.000 A 
ATOM     18  C   UNL     1      30.983  23.700  24.885  0.00  0.00    +0.000 A 
ATOM     19  C   UNL     1      30.847  24.831  24.110  0.00  0.00    +0.000 A 
ATOM     20  C   UNL     1      29.857  24.882  23.124  0.00  0.00    +0.000 A 
ENDBRANCH  13  15
ENDBRANCH  11  13
ENDBRANCH   1  11
TORSDOF 4
ENDMDL
MODEL 4
REMARK VINA RESULT:      -5.3      1.570      2.703
REMARK  Name = 
REMARK  4 active torsions:
REMARK  status: ('A' for Active; 'I' for Inactive)
REMARK    1  A    between atoms: C_4  and  O_5
REMARK    2  A    between atoms: O_5  and  C_6
REMARK    3  A    between atoms: C_6  and  C_8
REMARK    4  A    between atoms: C_8  and  C_10
REMARK                            x       y       z     vdW  Elec       q    Type
REMARK                         _______ _______ _______ _____ _____    ______ ____
ROOT
ATOM      1  O   UNL     1      27.698  23.129  26.104  0.00  0.00    +0.000 OA
ENDROOT
BRANCH   1   5
ATOM      2  C   UNL     1      26.563  25.897  28.333  0.00  0.00    +0.000 C 
ATOM      3  C   UNL     1      25.759  24.600  28.913  0.00  0.00    +0.000 C 
ATOM      4  C   UNL     1      26.046  23.697  27.599  0.00  0.00    +0.000 C 
ATOM      5  C   UNL     1      27.689  23.753  27.495  0.00  0.00    +0.000 C 
ATOM      6  C   UNL     1      27.821  22.329  28.284  0.00  0.00    +0.000 C 
ATOM      7  C   UNL     1      27.372  22.760  29.663  0.00  0.00    +0.000 C 
ATOM      8  C   UNL     1      28.663  22.655  30.506  0.00  0.00    +0.000 C 
ATOM      9  C   UNL     1      26.485  21.699  30.315  0.00  0.00    +0.000 C 
ATOM     10  C   UNL     1      26.985  24.134  29.855  0.00  0.00    +0.000 C 
ENDBRANCH   1   5
BRANCH   1  11
ATOM     11  C   UNL     1      28.653  23.585  25.235  0.00  0.00    +0.000 C 
ATOM     12  O   UNL     1      28.666  24.782  24.920  0.00  0.00    +0.000 OA
BRANCH  11  13
ATOM     13  C   UNL     1      29.744  22.621  24.619  0.00  0.00    +0.000 C 
ATOM     14  O   UNL     1      29.919  23.372  23.334  0.00  0.00    +0.000 OA
BRANCH  13  15
ATOM     15  C   UNL     1      30.982  23.259  25.343  0.00  0.00    +0.000 A 
ATOM     16  C   UNL     1      31.110  23.191  26.681  0.00  0.00    +0.000 A 
ATOM     17  C   UNL     1      32.211  23.761  27.293  0.00  0.00    +0.000 A 
ATOM     18  C   UNL     1      33.139  24.379  26.514  0.00  0.00    +0.000 A 
ATOM     19  C   UNL     1      32.996  24.442  25.145  0.00  0.00    +0.000 A 
ATOM     20  C   UNL     1      31.880  23.862  24.536  0.00  0.00    +0.000 A 
ENDBRANCH  13  15
ENDBRANCH  11  13
ENDBRANCH   1  11
TORSDOF 4
ENDMDL
MODEL 5
REMARK VINA RESULT:      -5.3      2.752      4.064
REMARK  Name = 
REMARK  4 active torsions:
REMARK  status: ('A' for Active; 'I' for Inactive)
REMARK    1  A    between atoms: C_4  and  O_5
REMARK    2  A    between atoms: O_5  and  C_6
REMARK    3  A    between atoms: C_6  and  C_8
REMARK    4  A    between atoms: C_8  and  C_10
REMARK                            x       y       z     vdW  Elec       q    Type
REMARK                         _______ _______ _______ _____ _____    ______ ____
ROOT
ATOM      1  O   UNL     1      27.095  25.728  24.603  0.00  0.00    +0.000 OA
ENDROOT
BRANCH   1   5
ATOM      2  C   UNL     1      25.569  24.132  27.609  0.00  0.00    +0.000 C 
ATOM      3  C   UNL     1      25.383  25.727  27.901  0.00  0.00    +0.000 C 
ATOM      4  C   UNL     1      26.448  26.171  26.765  0.00  0.00    +0.000 C 
ATOM      5  C   UNL     1      25.842  25.436  25.421  0.00  0.00    +0.000 C 
ATOM      6  C   UNL     1      25.069  26.805  24.978  0.00  0.00    +0.000 C 
ATOM      7  C   UNL     1      24.013  26.861  26.061  0.00  0.00    +0.000 C 
ATOM      8  C   UNL     1      22.700  26.590  25.292  0.00  0.00    +0.000 C 
ATOM      9  C   UNL     1      23.798  28.292  26.553  0.00  0.00    +0.000 C 
ATOM     10  C   UNL     1      24.008  25.825  27.062  0.00  0.00    +0.000 C 
ENDBRANCH   1   5
BRANCH   1  11
ATOM     11  C   UNL     1      27.301  24.947  23.497  0.00  0.00    +0.000 C 
ATOM     12  O   UNL     1      27.619  25.482  22.427  0.00  0.00    +0.000 OA
BRANCH  11  13
ATOM     13  C   UNL     1      27.141  23.376  23.548  0.00  0.00    +0.000 C 
ATOM     14  O   UNL     1      27.774  23.103  22.217  0.00  0.00    +0.000 OA
BRANCH  13  15
ATOM     15  C   UNL     1      28.430  23.089  24.397  0.00  0.00    +0.000 A 
ATOM     16  C   UNL     1      28.339  22.690  25.678  0.00  0.00    +0.000 A 
ATOM     17  C   UNL     1      29.491  22.443  26.403  0.00  0.00    +0.000 A 
ATOM     18  C   UNL     1      30.691  22.614  25.789  0.00  0.00    +0.000 A 
ATOM     19  C   UNL     1      30.772  23.023  24.475  0.00  0.00    +0.000 A 
ATOM     20  C   UNL     1      29.602  23.269  23.752  0.00  0.00    +0.000 A 
ENDBRANCH  13  15
ENDBRANCH  11  13
ENDBRANCH   1  11
TORSDOF 4
ENDMDL
MODEL 6
REMARK VINA RESULT:      -5.2     30.461     31.974
REMARK  Name = 
REMARK  4 active torsions:
REMARK  status: ('A' for Active; 'I' for Inactive)
REMARK    1  A    between atoms: C_4  and  O_5
REMARK    2  A    between atoms: O_5  and  C_6
REMARK    3  A    between atoms: C_6  and  C_8
REMARK    4  A    between atoms: C_8  and  C_10
REMARK                            x       y       z     vdW  Elec       q    Type
REMARK                         _______ _______ _______ _____ _____    ______ ____
ROOT
ATOM      1  O   UNL     1      31.941  -8.051  29.042  0.00  0.00    +0.000 OA
ENDROOT
BRANCH   1   5
ATOM      2  C   UNL     1      32.323  -8.519  32.723  0.00  0.00    +0.000 C 
ATOM      3  C   UNL     1      30.872  -7.782  32.591  0.00  0.00    +0.000 C 
ATOM      4  C   UNL     1      31.127  -7.313  31.062  0.00  0.00    +0.000 C 
ATOM      5  C   UNL     1      31.470  -8.742  30.317  0.00  0.00    +0.000 C 
ATOM      6  C   UNL     1      29.921  -8.897  29.824  0.00  0.00    +0.000 C 
ATOM      7  C   UNL     1      29.255  -9.153  31.158  0.00  0.00    +0.000 C 
ATOM      8  C   UNL     1      28.800 -10.626  31.052  0.00  0.00    +0.000 C 
ATOM      9  C   UNL     1      27.917  -8.419  31.261  0.00  0.00    +0.000 C 
ATOM     10  C   UNL     1      30.078  -9.165  32.340  0.00  0.00    +0.000 C 
ENDBRANCH   1   5
BRANCH   1  11
ATOM     11  C   UNL     1      33.237  -8.280  28.664  0.00  0.00    +0.000 C 
ATOM     12  O   UNL     1      33.663  -9.442  28.630  0.00  0.00    +0.000 OA
BRANCH  11  13
ATOM     13  C   UNL     1      34.209  -7.098  28.269  0.00  0.00    +0.000 C 
ATOM     14  O   UNL     1      33.138  -6.140  27.844  0.00  0.00    +0.000 OA
BRANCH  13  15
ATOM     15  C   UNL     1      34.380  -6.511  29.715  0.00  0.00    +0.000 A 
ATOM     16  C   UNL     1      35.174  -7.116  30.617  0.00  0.00    +0.000 A 
ATOM     17  C   UNL     1      35.307  -6.577  31.884  0.00  0.00    +0.000 A 
ATOM     18  C   UNL     1      34.624  -5.440  32.179  0.00  0.00    +0.000 A 
ATOM     19  C   UNL     1      33.813  -4.829  31.246  0.00  0.00    +0.000 A 
ATOM     20  C   UNL     1      33.686  -5.382  29.969  0.00  0.00    +0.000 A 
ENDBRANCH  13  15
ENDBRANCH  11  13
ENDBRANCH   1  11
TORSDOF 4
ENDMDL
MODEL 7
REMARK VINA RESULT:      -5.1      2.464      4.258
REMARK  Name = 
REMARK  4 active torsions:
REMARK  status: ('A' for Active; 'I' for Inactive)
REMARK    1  A    between atoms: C_4  and  O_5
REMARK    2  A    between atoms: O_5  and  C_6
REMARK    3  A    between atoms: C_6  and  C_8
REMARK    4  A    between atoms: C_8  and  C_10
REMARK                            x       y       z     vdW  Elec       q    Type
REMARK                         _______ _______ _______ _____ _____    ______ ____
ROOT
ATOM      1  O   UNL     1      29.352  25.228  23.982  0.00  0.00    +0.000 OA
ENDROOT
BRANCH   1   5
ATOM      2  C   UNL     1      32.828  24.043  24.633  0.00  0.00    +0.000 C 
ATOM      3  C   UNL     1      32.467  24.891  25.980  0.00  0.00    +0.000 C 
ATOM      4  C   UNL     1      31.188  25.624  25.308  0.00  0.00    +0.000 C 
ATOM      5  C   UNL     1      30.289  24.342  24.795  0.00  0.00    +0.000 C 
ATOM      6  C   UNL     1      29.380  24.392  26.151  0.00  0.00    +0.000 C 
ATOM      7  C   UNL     1      30.408  23.934  27.162  0.00  0.00    +0.000 C 
ATOM      8  C   UNL     1      29.890  22.544  27.593  0.00  0.00    +0.000 C 
ATOM      9  C   UNL     1      30.298  24.727  28.465  0.00  0.00    +0.000 C 
ATOM     10  C   UNL     1      31.739  23.640  26.696  0.00  0.00    +0.000 C 
ENDBRANCH   1   5
BRANCH   1  11
ATOM     11  C   UNL     1      28.898  24.714  22.796  0.00  0.00    +0.000 C 
ATOM     12  O   UNL     1      29.674  24.074  22.075  0.00  0.00    +0.000 OA
BRANCH  11  13
ATOM     13  C   UNL     1      27.404  24.915  22.321  0.00  0.00    +0.000 C 
ATOM     14  O   UNL     1      27.230  23.545  21.741  0.00  0.00    +0.000 OA
BRANCH  13  15
ATOM     15  C   UNL     1      26.728  24.589  23.700  0.00  0.00    +0.000 A 
ATOM     16  C   UNL     1      26.255  25.572  24.487  0.00  0.00    +0.000 A 
ATOM     17  C   UNL     1      25.663  25.257  25.697  0.00  0.00    +0.000 A 
ATOM     18  C   UNL     1      25.578  23.948  26.055  0.00  0.00    +0.000 A 
ATOM     19  C   UNL     1      26.066  22.950  25.240  0.00  0.00    +0.000 A 
ATOM     20  C   UNL     1      26.662  23.279  24.019  0.00  0.00    +0.000 A 
ENDBRANCH  13  15
ENDBRANCH  11  13
ENDBRANCH   1  11
TORSDOF 4
ENDMDL
MODEL 8
REMARK VINA RESULT:      -5.1      2.054      3.354
REMARK  Name = 
REMARK  4 active torsions:
REMARK  status: ('A' for Active; 'I' for Inactive)
REMARK    1  A    between atoms: C_4  and  O_5
REMARK    2  A    between atoms: O_5  and  C_6
REMARK    3  A    between atoms: C_6  and  C_8
REMARK    4  A    between atoms: C_8  and  C_10
REMARK                            x       y       z     vdW  Elec       q    Type
REMARK                         _______ _______ _______ _____ _____    ______ ____
ROOT
ATOM      1  O   UNL     1      27.830  24.712  26.097  0.00  0.00    +0.000 OA
ENDROOT
BRANCH   1   5
ATOM      2  C   UNL     1      30.383  22.404  24.657  0.00  0.00    +0.000 C 
ATOM      3  C   UNL     1      31.288  23.541  25.401  0.00  0.00    +0.000 C 
ATOM      4  C   UNL     1      30.058  24.585  25.541  0.00  0.00    +0.000 C 
ATOM      5  C   UNL     1      28.931  23.684  26.336  0.00  0.00    +0.000 C 
ATOM      6  C   UNL     1      29.392  24.309  27.772  0.00  0.00    +0.000 C 
ATOM      7  C   UNL     1      30.756  23.668  27.901  0.00  0.00    +0.000 C 
ATOM      8  C   UNL     1      30.575  22.681  29.076  0.00  0.00    +0.000 C 
ATOM      9  C   UNL     1      31.780  24.650  28.473  0.00  0.00    +0.000 C 
ATOM     10  C   UNL     1      31.209  22.809  26.838  0.00  0.00    +0.000 C 
ENDBRANCH   1   5
BRANCH   1  11
ATOM     11  C   UNL     1      26.687  24.256  25.495  0.00  0.00    +0.000 C 
ATOM     12  O   UNL     1      26.194  23.181  25.861  0.00  0.00    +0.000 OA
BRANCH  11  13
ATOM     13  C   UNL     1      25.977  25.068  24.340  0.00  0.00    +0.000 C 
ATOM     14  O   UNL     1      26.286  26.430  24.882  0.00  0.00    +0.000 OA
BRANCH  13  15
ATOM     15  C   UNL     1      27.174  25.027  23.325  0.00  0.00    +0.000 A 
ATOM     16  C   UNL     1      27.891  26.134  23.058  0.00  0.00    +0.000 A 
ATOM     17  C   UNL     1      28.941  26.070  22.159  0.00  0.00    +0.000 A 
ATOM     18  C   UNL     1      29.217  24.877  21.569  0.00  0.00    +0.000 A 
ATOM     19  C   UNL     1      28.475  23.750  21.851  0.00  0.00    +0.000 A 
ATOM     20  C   UNL     1      27.416  23.825  22.761  0.00  0.00    +0.000 A 
ENDBRANCH  13  15
ENDBRANCH  11  13
ENDBRANCH   1  11
TORSDOF 4
ENDMDL
MODEL 9
REMARK VINA RESULT:      -5.0      1.767      2.723
REMARK  Name = 
REMARK  4 active torsions:
REMARK  status: ('A' for Active; 'I' for Inactive)
REMARK    1  A    between atoms: C_4  and  O_5
REMARK    2  A    between atoms: O_5  and  C_6
REMARK    3  A    between atoms: C_6  and  C_8
REMARK    4  A    between atoms: C_8  and  C_10
REMARK                            x       y       z     vdW  Elec       q    Type
REMARK                         _______ _______ _______ _____ _____    ______ ____
ROOT
ATOM      1  O   UNL     1      26.819  25.094  26.717  0.00  0.00    +0.000 OA
ENDROOT
BRANCH   1   5
ATOM      2  C   UNL     1      26.522  22.817  29.657  0.00  0.00    +0.000 C 
ATOM      3  C   UNL     1      27.103  24.195  30.312  0.00  0.00    +0.000 C 
ATOM      4  C   UNL     1      27.541  24.818  28.883  0.00  0.00    +0.000 C 
ATOM      5  C   UNL     1      26.129  24.761  28.036  0.00  0.00    +0.000 C 
ATOM      6  C   UNL     1      25.801  26.316  28.413  0.00  0.00    +0.000 C 
ATOM      7  C   UNL     1      25.526  26.166  29.892  0.00  0.00    +0.000 C 
ATOM      8  C   UNL     1      24.011  26.452  30.004  0.00  0.00    +0.000 C 
ATOM      9  C   UNL     1      26.123  27.326  30.690  0.00  0.00    +0.000 C 
ATOM     10  C   UNL     1      25.639  24.854  30.477  0.00  0.00    +0.000 C 
ENDBRANCH   1   5
BRANCH   1  11
ATOM     11  C   UNL     1      26.299  24.513  25.591  0.00  0.00    +0.000 C 
ATOM     12  O   UNL     1      25.785  25.229  24.721  0.00  0.00    +0.000 OA
BRANCH  11  13
ATOM     13  C   UNL     1      26.336  22.949  25.369  0.00  0.00    +0.000 C 
ATOM     14  O   UNL     1      26.172  22.990  23.880  0.00  0.00    +0.000 OA
BRANCH  13  15
ATOM     15  C   UNL     1      27.899  22.804  25.351  0.00  0.00    +0.000 A 
ATOM     16  C   UNL     1      28.562  22.345  26.428  0.00  0.00    +0.000 A 
ATOM     17  C   UNL     1      29.940  22.227  26.385  0.00  0.00    +0.000 A 
ATOM     18  C   UNL     1      30.585  22.581  25.242  0.00  0.00    +0.000 A 
ATOM     19  C   UNL     1      29.894  23.049  24.145  0.00  0.00    +0.000 A 
ATOM     20  C   UNL     1      28.502  23.164  24.199  0.00  0.00    +0.000 A 
ENDBRANCH  13  15
ENDBRANCH  11  13
ENDBRANCH   1  11
TORSDOF 4
ENDMDL
MODEL 10
REMARK VINA RESULT:      -5.0      1.952      3.562
REMARK  Name = 
REMARK  4 active torsions:
REMARK  status: ('A' for Active; 'I' for Inactive)
REMARK    1  A    between atoms: C_4  and  O_5
REMARK    2  A    between atoms: O_5  and  C_6
REMARK    3  A    between atoms: C_6  and  C_8
REMARK    4  A    between atoms: C_8  and  C_10
REMARK                            x       y       z     vdW  Elec       q    Type
REMARK                         _______ _______ _______ _____ _____    ______ ____
ROOT
ATOM      1  O   UNL     1      29.551  23.589  26.417  0.00  0.00    +0.000 OA
ENDROOT
BRANCH   1   5
ATOM      2  C   UNL     1      26.218  24.945  25.435  0.00  0.00    +0.000 C 
ATOM      3  C   UNL     1      25.837  23.712  26.436  0.00  0.00    +0.000 C 
ATOM      4  C   UNL     1      27.316  23.054  26.366  0.00  0.00    +0.000 C 
ATOM      5  C   UNL     1      28.273  24.312  26.828  0.00  0.00    +0.000 C 
ATOM      6  C   UNL     1      28.300  23.771  28.369  0.00  0.00    +0.000 C 
ATOM      7  C   UNL     1      26.863  24.042  28.757  0.00  0.00    +0.000 C 
ATOM      8  C   UNL     1      26.983  25.181  29.794  0.00  0.00    +0.000 C 
ATOM      9  C   UNL     1      26.293  22.905  29.606  0.00  0.00    +0.000 C 
ATOM     10  C   UNL     1      25.985  24.612  27.767  0.00  0.00    +0.000 C 
ENDBRANCH   1   5
BRANCH   1  11
ATOM     11  C   UNL     1      30.461  24.314  25.694  0.00  0.00    +0.000 C 
ATOM     12  O   UNL     1      30.859  25.400  26.135  0.00  0.00    +0.000 OA
BRANCH  11  13
ATOM     13  C   UNL     1      31.017  23.802  24.307  0.00  0.00    +0.000 C 
ATOM     14  O   UNL     1      30.530  22.392  24.445  0.00  0.00    +0.000 OA
BRANCH  13  15
ATOM     15  C   UNL     1      29.812  24.299  23.431  0.00  0.00    +0.000 A 
ATOM     16  C   UNL     1      29.688  25.598  23.101  0.00  0.00    +0.000 A 
ATOM     17  C   UNL     1      28.616  26.008  22.328  0.00  0.00    +0.000 A 
ATOM     18  C   UNL     1      27.714  25.075  21.923  0.00  0.00    +0.000 A 
ATOM     19  C   UNL     1      27.853  23.748  22.268  0.00  0.00    +0.000 A 
ATOM     20  C   UNL     1      28.939  23.343  23.049  0.00  0.00    +0.000 A 
ENDBRANCH  13  15
ENDBRANCH  11  13
ENDBRANCH   1  11
TORSDOF 4
ENDMDL
