MODEL 1
REMARK VINA RESULT:      -8.5      0.000      0.000
REMARK  Name = 
REMARK  7 active torsions:
REMARK  status: ('A' for Active; 'I' for Inactive)
REMARK    1  A    between atoms: O_2  and  C_3
REMARK    2  A    between atoms: C_7  and  N_8
REMARK    3  A    between atoms: N_8  and  C_9
REMARK    4  A    between atoms: C_10  and  S_11
REMARK    5  A    between atoms: S_11  and  C_12
REMARK    6  A    between atoms: N_21  and  C_22
REMARK    7  A    between atoms: C_25  and  C_26
REMARK                            x       y       z     vdW  Elec       q    Type
REMARK                         _______ _______ _______ _____ _____    ______ ____
ROOT
ATOM      1  C   UNL     1      37.248   4.802  14.428  0.00  0.00    +0.000 C 
ATOM      2  C   UNL     1      37.634   5.043  15.693  0.00  0.00    +0.000 C 
ATOM      3  C   UNL     1      37.438   3.816  16.436  0.00  0.00    +0.000 C 
ATOM      4  O   UNL     1      37.655   3.563  17.646  0.00  0.00    +0.000 OA
ATOM      5  N   UNL     1      36.909   2.810  15.543  0.00  0.00    +0.000 N 
ATOM      6  C   UNL     1      36.797   3.443  14.290  0.00  0.00    +0.000 C 
ATOM      7  O   UNL     1      36.359   2.882  13.218  0.00  0.00    +0.000 OA
ENDROOT
BRANCH   5   8
ATOM      8  C   UNL     1      36.565   1.466  15.866  0.00  0.00    +0.000 A 
ATOM      9  C   UNL     1      35.411   1.188  16.579  0.00  0.00    +0.000 A 
ATOM     10  C   UNL     1      35.061  -0.105  16.911  0.00  0.00    +0.000 A 
ATOM     11  C   UNL     1      35.831  -1.185  16.560  0.00  0.00    +0.000 A 
ATOM     12  C   UNL     1      36.990  -0.921  15.846  0.00  0.00    +0.000 A 
ATOM     13  C   UNL     1      37.341   0.386  15.511  0.00  0.00    +0.000 A 
BRANCH  11  14
ATOM     14  C   UNL     1      35.491  -2.581  16.901  0.00  0.00    +0.000 C 
ATOM     15  C   UNL     1      34.591  -3.149  15.809  0.00  0.00    +0.000 C 
ATOM     16  C   UNL     1      36.744  -3.425  17.021  0.00  0.00    +0.000 C 
ENDBRANCH  11  14
ENDBRANCH   5   8
BRANCH   1  17
ATOM     17  N   UNL     1      37.294   5.772  13.400  0.00  0.00    +0.000 NA
BRANCH  17  22
ATOM     18  C   UNL     1      34.541   6.901  11.124  0.00  0.00    +0.000 A 
ATOM     19  C   UNL     1      33.560   7.155  12.087  0.00  0.00    +0.000 A 
ATOM     20  C   UNL     1      33.830   6.950  13.406  0.00  0.00    +0.000 A 
ATOM     21  C   UNL     1      35.028   6.501  13.862  0.00  0.00    +0.000 A 
ATOM     22  C   UNL     1      36.007   6.247  12.935  0.00  0.00    +0.000 A 
ATOM     23  C   UNL     1      35.767   6.440  11.618  0.00  0.00    +0.000 A 
BRANCH  18  25
ATOM     24  C   UNL     1      34.240   7.213   8.609  0.00  0.00    +0.000 C 
ATOM     25  O   UNL     1      34.341   7.075   9.867  0.00  0.00    +0.000 OA
ENDBRANCH  18  25
ENDBRANCH  17  22
ENDBRANCH   1  17
BRANCH   2  26
ATOM     26  S   UNL     1      38.251   6.588  16.260  0.00  0.00    +0.000 S 
BRANCH  26  27
ATOM     27  C   UNL     1      39.427   6.517  17.563  0.00  0.00    +0.000 A 
ATOM     28  C   UNL     1      40.803   6.446  17.280  0.00  0.00    +0.000 A 
ATOM     29  C   UNL     1      41.732   6.379  18.276  0.00  0.00    +0.000 A 
ATOM     30  C   UNL     1      41.401   6.376  19.610  0.00  0.00    +0.000 A 
ATOM     31  C   UNL     1      42.465   6.295  20.644  0.00  0.00    +0.000 C 
ATOM     32  C   UNL     1      40.062   6.444  19.911  0.00  0.00    +0.000 A 
ATOM     33  C   UNL     1      39.122   6.512  18.894  0.00  0.00    +0.000 A 
ENDBRANCH  26  27
ENDBRANCH   2  26
TORSDOF 7
ENDMDL
MODEL 2
REMARK VINA RESULT:      -8.4      3.705      8.535
REMARK  Name = 
REMARK  7 active torsions:
REMARK  status: ('A' for Active; 'I' for Inactive)
REMARK    1  A    between atoms: O_2  and  C_3
REMARK    2  A    between atoms: C_7  and  N_8
REMARK    3  A    between atoms: N_8  and  C_9
REMARK    4  A    between atoms: C_10  and  S_11
REMARK    5  A    between atoms: S_11  and  C_12
REMARK    6  A    between atoms: N_21  and  C_22
REMARK    7  A    between atoms: C_25  and  C_26
REMARK                            x       y       z     vdW  Elec       q    Type
REMARK                         _______ _______ _______ _____ _____    ______ ____
ROOT
ATOM      1  C   UNL     1      37.414   2.607  14.845  0.00  0.00    +0.000 C 
ATOM      2  C   UNL     1      38.548   2.969  14.221  0.00  0.00    +0.000 C 
ATOM      3  C   UNL     1      39.137   4.037  15.001  0.00  0.00    +0.000 C 
ATOM      4  O   UNL     1      40.193   4.688  14.808  0.00  0.00    +0.000 OA
ATOM      5  N   UNL     1      38.290   4.303  16.142  0.00  0.00    +0.000 N 
ATOM      6  C   UNL     1      37.216   3.399  16.030  0.00  0.00    +0.000 C 
ATOM      7  O   UNL     1      36.235   3.315  16.858  0.00  0.00    +0.000 OA
ENDROOT
BRANCH   5   8
ATOM      8  C   UNL     1      38.496   5.280  17.158  0.00  0.00    +0.000 A 
ATOM      9  C   UNL     1      39.207   4.963  18.303  0.00  0.00    +0.000 A 
ATOM     10  C   UNL     1      39.412   5.889  19.305  0.00  0.00    +0.000 A 
ATOM     11  C   UNL     1      38.926   7.170  19.229  0.00  0.00    +0.000 A 
ATOM     12  C   UNL     1      38.212   7.501  18.088  0.00  0.00    +0.000 A 
ATOM     13  C   UNL     1      38.006   6.564  17.076  0.00  0.00    +0.000 A 
BRANCH  11  14
ATOM     14  C   UNL     1      39.122   8.186  20.282  0.00  0.00    +0.000 C 
ATOM     15  C   UNL     1      40.289   9.084  19.888  0.00  0.00    +0.000 C 
ATOM     16  C   UNL     1      37.871   9.023  20.460  0.00  0.00    +0.000 C 
ENDBRANCH  11  14
ENDBRANCH   5   8
BRANCH   1  17
ATOM     17  N   UNL     1      36.558   1.584  14.375  0.00  0.00    +0.000 NA
BRANCH  17  22
ATOM     18  C   UNL     1      37.600  -1.334  16.483  0.00  0.00    +0.000 A 
ATOM     19  C   UNL     1      37.615  -2.317  15.490  0.00  0.00    +0.000 A 
ATOM     20  C   UNL     1      37.291  -1.997  14.207  0.00  0.00    +0.000 A 
ATOM     21  C   UNL     1      36.942  -0.744  13.815  0.00  0.00    +0.000 A 
ATOM     22  C   UNL     1      36.921   0.239  14.772  0.00  0.00    +0.000 A 
ATOM     23  C   UNL     1      37.238  -0.050  16.055  0.00  0.00    +0.000 A 
BRANCH  18  25
ATOM     24  C   UNL     1      38.096  -1.872  18.928  0.00  0.00    +0.000 C 
ATOM     25  O   UNL     1      37.895  -1.579  17.708  0.00  0.00    +0.000 OA
ENDBRANCH  18  25
ENDBRANCH  17  22
ENDBRANCH   1  17
BRANCH   2  26
ATOM     26  S   UNL     1      39.138   2.233  12.738  0.00  0.00    +0.000 S 
BRANCH  26  27
ATOM     27  C   UNL     1      39.937   0.679  12.913  0.00  0.00    +0.000 A 
ATOM     28  C   UNL     1      39.974  -0.230  11.840  0.00  0.00    +0.000 A 
ATOM     29  C   UNL     1      40.580  -1.446  11.958  0.00  0.00    +0.000 A 
ATOM     30  C   UNL     1      41.191  -1.869  13.114  0.00  0.00    +0.000 A 
ATOM     31  C   UNL     1      41.827  -3.210  13.175  0.00  0.00    +0.000 C 
ATOM     32  C   UNL     1      41.167  -0.998  14.177  0.00  0.00    +0.000 A 
ATOM     33  C   UNL     1      40.549   0.237  14.050  0.00  0.00    +0.000 A 
ENDBRANCH  26  27
ENDBRANCH   2  26
TORSDOF 7
ENDMDL
MODEL 3
REMARK VINA RESULT:      -8.2      2.212      7.103
REMARK  Name = 
REMARK  7 active torsions:
REMARK  status: ('A' for Active; 'I' for Inactive)
REMARK    1  A    between atoms: O_2  and  C_3
REMARK    2  A    between atoms: C_7  and  N_8
REMARK    3  A    between atoms: N_8  and  C_9
REMARK    4  A    between atoms: C_10  and  S_11
REMARK    5  A    between atoms: S_11  and  C_12
REMARK    6  A    between atoms: N_21  and  C_22
REMARK    7  A    between atoms: C_25  and  C_26
REMARK                            x       y       z     vdW  Elec       q    Type
REMARK                         _______ _______ _______ _____ _____    ______ ____
ROOT
ATOM      1  C   UNL     1      37.211   5.801  14.627  0.00  0.00    +0.000 C 
ATOM      2  C   UNL     1      36.940   4.611  15.190  0.00  0.00    +0.000 C 
ATOM      3  C   UNL     1      37.758   4.511  16.380  0.00  0.00    +0.000 C 
ATOM      4  O   UNL     1      37.846   3.583  17.221  0.00  0.00    +0.000 OA
ATOM      5  N   UNL     1      38.545   5.716  16.508  0.00  0.00    +0.000 N 
ATOM      6  C   UNL     1      38.191   6.514  15.403  0.00  0.00    +0.000 C 
ATOM      7  O   UNL     1      38.676   7.679  15.150  0.00  0.00    +0.000 OA
ENDROOT
BRANCH   5   8
ATOM      8  C   UNL     1      39.487   6.026  17.531  0.00  0.00    +0.000 A 
ATOM      9  C   UNL     1      39.063   6.259  18.828  0.00  0.00    +0.000 A 
ATOM     10  C   UNL     1      39.955   6.568  19.835  0.00  0.00    +0.000 A 
ATOM     11  C   UNL     1      41.305   6.664  19.612  0.00  0.00    +0.000 A 
ATOM     12  C   UNL     1      41.744   6.433  18.318  0.00  0.00    +0.000 A 
ATOM     13  C   UNL     1      40.841   6.120  17.303  0.00  0.00    +0.000 A 
BRANCH  11  14
ATOM     14  C   UNL     1      42.288   6.997  20.663  0.00  0.00    +0.000 C 
ATOM     15  C   UNL     1      42.980   5.715  21.114  0.00  0.00    +0.000 C 
ATOM     16  C   UNL     1      43.319   7.978  20.142  0.00  0.00    +0.000 C 
ENDBRANCH  11  14
ENDBRANCH   5   8
BRANCH   1  17
ATOM     17  N   UNL     1      36.599   6.259  13.436  0.00  0.00    +0.000 NA
BRANCH  17  22
ATOM     18  C   UNL     1      34.265   8.821  14.859  0.00  0.00    +0.000 A 
ATOM     19  C   UNL     1      34.272   9.728  13.797  0.00  0.00    +0.000 A 
ATOM     20  C   UNL     1      35.021   9.475  12.688  0.00  0.00    +0.000 A 
ATOM     21  C   UNL     1      35.787   8.362  12.542  0.00  0.00    +0.000 A 
ATOM     22  C   UNL     1      35.794   7.456  13.573  0.00  0.00    +0.000 A 
ATOM     23  C   UNL     1      35.060   7.681  14.687  0.00  0.00    +0.000 A 
BRANCH  18  25
ATOM     24  C   UNL     1      32.966   9.273  17.009  0.00  0.00    +0.000 C 
ATOM     25  O   UNL     1      33.578   9.010  15.928  0.00  0.00    +0.000 OA
ENDBRANCH  18  25
ENDBRANCH  17  22
ENDBRANCH   1  17
BRANCH   2  26
ATOM     26  S   UNL     1      35.792   3.450  14.540  0.00  0.00    +0.000 S 
BRANCH  26  27
ATOM     27  C   UNL     1      35.675   1.921  15.396  0.00  0.00    +0.000 A 
ATOM     28  C   UNL     1      36.383   0.793  14.942  0.00  0.00    +0.000 A 
ATOM     29  C   UNL     1      36.297  -0.407  15.585  0.00  0.00    +0.000 A 
ATOM     30  C   UNL     1      35.526  -0.603  16.706  0.00  0.00    +0.000 A 
ATOM     31  C   UNL     1      35.474  -1.939  17.353  0.00  0.00    +0.000 C 
ATOM     32  C   UNL     1      34.824   0.485  17.167  0.00  0.00    +0.000 A 
ATOM     33  C   UNL     1      34.915   1.702  16.509  0.00  0.00    +0.000 A 
ENDBRANCH  26  27
ENDBRANCH   2  26
TORSDOF 7
ENDMDL
MODEL 4
REMARK VINA RESULT:      -8.2      2.162      2.767
REMARK  Name = 
REMARK  7 active torsions:
REMARK  status: ('A' for Active; 'I' for Inactive)
REMARK    1  A    between atoms: O_2  and  C_3
REMARK    2  A    between atoms: C_7  and  N_8
REMARK    3  A    between atoms: N_8  and  C_9
REMARK    4  A    between atoms: C_10  and  S_11
REMARK    5  A    between atoms: S_11  and  C_12
REMARK    6  A    between atoms: N_21  and  C_22
REMARK    7  A    between atoms: C_25  and  C_26
REMARK                            x       y       z     vdW  Elec       q    Type
REMARK                         _______ _______ _______ _____ _____    ______ ____
ROOT
ATOM      1  C   UNL     1      37.077   5.719  14.769  0.00  0.00    +0.000 C 
ATOM      2  C   UNL     1      37.956   5.708  15.786  0.00  0.00    +0.000 C 
ATOM      3  C   UNL     1      37.864   4.404  16.409  0.00  0.00    +0.000 C 
ATOM      4  O   UNL     1      38.488   3.935  17.392  0.00  0.00    +0.000 OA
ATOM      5  N   UNL     1      36.874   3.620  15.707  0.00  0.00    +0.000 N 
ATOM      6  C   UNL     1      36.391   4.457  14.682  0.00  0.00    +0.000 C 
ATOM      7  O   UNL     1      35.488   4.129  13.827  0.00  0.00    +0.000 OA
ENDROOT
BRANCH   5   8
ATOM      8  C   UNL     1      36.466   2.286  15.997  0.00  0.00    +0.000 A 
ATOM      9  C   UNL     1      36.701   1.267  15.089  0.00  0.00    +0.000 A 
ATOM     10  C   UNL     1      36.309  -0.032  15.344  0.00  0.00    +0.000 A 
ATOM     11  C   UNL     1      35.666  -0.388  16.502  0.00  0.00    +0.000 A 
ATOM     12  C   UNL     1      35.425   0.622  17.420  0.00  0.00    +0.000 A 
ATOM     13  C   UNL     1      35.822   1.934  17.161  0.00  0.00    +0.000 A 
BRANCH  11  14
ATOM     14  C   UNL     1      35.229  -1.765  16.807  0.00  0.00    +0.000 C 
ATOM     15  C   UNL     1      33.782  -1.728  17.285  0.00  0.00    +0.000 C 
ATOM     16  C   UNL     1      35.340  -2.647  15.579  0.00  0.00    +0.000 C 
ENDBRANCH  11  14
ENDBRANCH   5   8
BRANCH   1  17
ATOM     17  N   UNL     1      36.881   6.833  13.920  0.00  0.00    +0.000 NA
BRANCH  17  22
ATOM     18  C   UNL     1      35.318   9.953  15.284  0.00  0.00    +0.000 A 
ATOM     19  C   UNL     1      33.977   9.567  15.213  0.00  0.00    +0.000 A 
ATOM     20  C   UNL     1      33.645   8.337  14.733  0.00  0.00    +0.000 A 
ATOM     21  C   UNL     1      34.562   7.430  14.305  0.00  0.00    +0.000 A 
ATOM     22  C   UNL     1      35.886   7.786  14.366  0.00  0.00    +0.000 A 
ATOM     23  C   UNL     1      36.245   9.002  14.838  0.00  0.00    +0.000 A 
BRANCH  18  25
ATOM     24  C   UNL     1      36.075  12.261  16.066  0.00  0.00    +0.000 C 
ATOM     25  O   UNL     1      35.687  11.101  15.726  0.00  0.00    +0.000 OA
ENDBRANCH  18  25
ENDBRANCH  17  22
ENDBRANCH   1  17
BRANCH   2  26
ATOM     26  S   UNL     1      38.989   7.063  16.214  0.00  0.00    +0.000 S 
BRANCH  26  27
ATOM     27  C   UNL     1      40.030   6.829  17.609  0.00  0.00    +0.000 A 
ATOM     28  C   UNL     1      41.424   6.725  17.450  0.00  0.00    +0.000 A 
ATOM     29  C   UNL     1      42.250   6.532  18.519  0.00  0.00    +0.000 A 
ATOM     30  C   UNL     1      41.791   6.426  19.810  0.00  0.00    +0.000 A 
ATOM     31  C   UNL     1      42.746   6.210  20.927  0.00  0.00    +0.000 C 
ATOM     32  C   UNL     1      40.432   6.523  19.990  0.00  0.00    +0.000 A 
ATOM     33  C   UNL     1      39.598   6.719  18.899  0.00  0.00    +0.000 A 
ENDBRANCH  26  27
ENDBRANCH   2  26
TORSDOF 7
ENDMDL
MODEL 5
REMARK VINA RESULT:      -8.1      1.606      6.753
REMARK  Name = 
REMARK  7 active torsions:
REMARK  status: ('A' for Active; 'I' for Inactive)
REMARK    1  A    between atoms: O_2  and  C_3
REMARK    2  A    between atoms: C_7  and  N_8
REMARK    3  A    between atoms: N_8  and  C_9
REMARK    4  A    between atoms: C_10  and  S_11
REMARK    5  A    between atoms: S_11  and  C_12
REMARK    6  A    between atoms: N_21  and  C_22
REMARK    7  A    between atoms: C_25  and  C_26
REMARK                            x       y       z     vdW  Elec       q    Type
REMARK                         _______ _______ _______ _____ _____    ______ ____
ROOT
ATOM      1  C   UNL     1      36.760   4.481  14.524  0.00  0.00    +0.000 C 
ATOM      2  C   UNL     1      36.423   3.564  15.447  0.00  0.00    +0.000 C 
ATOM      3  C   UNL     1      37.293   3.771  16.585  0.00  0.00    +0.000 C 
ATOM      4  O   UNL     1      37.350   3.155  17.678  0.00  0.00    +0.000 OA
ATOM      5  N   UNL     1      38.182   4.874  16.299  0.00  0.00    +0.000 N 
ATOM      6  C   UNL     1      37.835   5.308  15.005  0.00  0.00    +0.000 C 
ATOM      7  O   UNL     1      38.399   6.280  14.378  0.00  0.00    +0.000 OA
ENDROOT
BRANCH   5   8
ATOM      8  C   UNL     1      39.199   5.403  17.144  0.00  0.00    +0.000 A 
ATOM      9  C   UNL     1      38.969   5.573  18.499  0.00  0.00    +0.000 A 
ATOM     10  C   UNL     1      39.935   6.091  19.337  0.00  0.00    +0.000 A 
ATOM     11  C   UNL     1      41.174   6.467  18.881  0.00  0.00    +0.000 A 
ATOM     12  C   UNL     1      41.419   6.301  17.527  0.00  0.00    +0.000 A 
ATOM     13  C   UNL     1      40.441   5.778  16.682  0.00  0.00    +0.000 A 
BRANCH  11  14
ATOM     14  C   UNL     1      42.231   7.027  19.747  0.00  0.00    +0.000 C 
ATOM     15  C   UNL     1      41.759   8.369  20.294  0.00  0.00    +0.000 C 
ATOM     16  C   UNL     1      42.539   6.086  20.894  0.00  0.00    +0.000 C 
ENDBRANCH  11  14
ENDBRANCH   5   8
BRANCH   1  17
ATOM     17  N   UNL     1      36.124   4.592  13.265  0.00  0.00    +0.000 NA
BRANCH  17  22
ATOM     18  C   UNL     1      34.678   7.708  11.770  0.00  0.00    +0.000 A 
ATOM     19  C   UNL     1      33.753   8.015  12.773  0.00  0.00    +0.000 A 
ATOM     20  C   UNL     1      33.641   7.211  13.866  0.00  0.00    +0.000 A 
ATOM     21  C   UNL     1      34.393   6.096  14.054  0.00  0.00    +0.000 A 
ATOM     22  C   UNL     1      35.308   5.775  13.083  0.00  0.00    +0.000 A 
ATOM     23  C   UNL     1      35.442   6.554  11.985  0.00  0.00    +0.000 A 
BRANCH  18  25
ATOM     24  C   UNL     1      34.871   9.173   9.690  0.00  0.00    +0.000 C 
ATOM     25  O   UNL     1      34.825   8.429  10.718  0.00  0.00    +0.000 OA
ENDBRANCH  18  25
ENDBRANCH  17  22
ENDBRANCH   1  17
BRANCH   2  26
ATOM     26  S   UNL     1      35.151   2.371  15.234  0.00  0.00    +0.000 S 
BRANCH  26  27
ATOM     27  C   UNL     1      35.508   0.752  15.815  0.00  0.00    +0.000 A 
ATOM     28  C   UNL     1      36.356  -0.099  15.082  0.00  0.00    +0.000 A 
ATOM     29  C   UNL     1      36.638  -1.363  15.509  0.00  0.00    +0.000 A 
ATOM     30  C   UNL     1      36.123  -1.894  16.668  0.00  0.00    +0.000 A 
ATOM     31  C   UNL     1      36.467  -3.283  17.070  0.00  0.00    +0.000 C 
ATOM     32  C   UNL     1      35.290  -1.082  17.399  0.00  0.00    +0.000 A 
ATOM     33  C   UNL     1      35.008   0.202  16.960  0.00  0.00    +0.000 A 
ENDBRANCH  26  27
ENDBRANCH   2  26
TORSDOF 7
ENDMDL
MODEL 6
REMARK VINA RESULT:      -8.1      3.709      8.463
REMARK  Name = 
REMARK  7 active torsions:
REMARK  status: ('A' for Active; 'I' for Inactive)
REMARK    1  A    between atoms: O_2  and  C_3
REMARK    2  A    between atoms: C_7  and  N_8
REMARK    3  A    between atoms: N_8  and  C_9
REMARK    4  A    between atoms: C_10  and  S_11
REMARK    5  A    between atoms: S_11  and  C_12
REMARK    6  A    between atoms: N_21  and  C_22
REMARK    7  A    between atoms: C_25  and  C_26
REMARK                            x       y       z     vdW  Elec       q    Type
REMARK                         _______ _______ _______ _____ _____    ______ ____
ROOT
ATOM      1  C   UNL     1      38.445   2.821  14.278  0.00  0.00    +0.000 C 
ATOM      2  C   UNL     1      37.364   2.368  14.935  0.00  0.00    +0.000 C 
ATOM      3  C   UNL     1      37.198   3.207  16.103  0.00  0.00    +0.000 C 
ATOM      4  O   UNL     1      36.330   3.163  17.010  0.00  0.00    +0.000 OA
ATOM      5  N   UNL     1      38.246   4.202  16.117  0.00  0.00    +0.000 N 
ATOM      6  C   UNL     1      39.018   3.947  14.967  0.00  0.00    +0.000 C 
ATOM      7  O   UNL     1      40.057   4.619  14.614  0.00  0.00    +0.000 OA
ENDROOT
BRANCH   5   8
ATOM      8  C   UNL     1      38.458   5.217  17.093  0.00  0.00    +0.000 A 
ATOM      9  C   UNL     1      39.138   4.935  18.265  0.00  0.00    +0.000 A 
ATOM     10  C   UNL     1      39.348   5.900  19.229  0.00  0.00    +0.000 A 
ATOM     11  C   UNL     1      38.897   7.188  19.085  0.00  0.00    +0.000 A 
ATOM     12  C   UNL     1      38.215   7.485  17.916  0.00  0.00    +0.000 A 
ATOM     13  C   UNL     1      38.004   6.509  16.943  0.00  0.00    +0.000 A 
BRANCH  11  14
ATOM     14  C   UNL     1      39.101   8.245  20.096  0.00  0.00    +0.000 C 
ATOM     15  C   UNL     1      40.085   9.270  19.545  0.00  0.00    +0.000 C 
ATOM     16  C   UNL     1      37.788   8.925  20.432  0.00  0.00    +0.000 C 
ENDBRANCH  11  14
ENDBRANCH   5   8
BRANCH   1  17
ATOM     17  N   UNL     1      38.925   2.248  13.077  0.00  0.00    +0.000 NA
BRANCH  17  22
ATOM     18  C   UNL     1      40.226  -1.177  12.295  0.00  0.00    +0.000 A 
ATOM     19  C   UNL     1      40.824  -1.463  13.525  0.00  0.00    +0.000 A 
ATOM     20  C   UNL     1      40.782  -0.548  14.533  0.00  0.00    +0.000 A 
ATOM     21  C   UNL     1      40.177   0.662  14.418  0.00  0.00    +0.000 A 
ATOM     22  C   UNL     1      39.581   0.965  13.220  0.00  0.00    +0.000 A 
ATOM     23  C   UNL     1      39.608   0.076  12.200  0.00  0.00    +0.000 A 
BRANCH  18  25
ATOM     24  C   UNL     1      40.261  -2.893  10.406  0.00  0.00    +0.000 C 
ATOM     25  O   UNL     1      40.236  -2.001  11.310  0.00  0.00    +0.000 OA
ENDBRANCH  18  25
ENDBRANCH  17  22
ENDBRANCH   1  17
BRANCH   2  26
ATOM     26  S   UNL     1      36.386   1.006  14.408  0.00  0.00    +0.000 S 
BRANCH  26  27
ATOM     27  C   UNL     1      36.830  -0.561  15.065  0.00  0.00    +0.000 A 
ATOM     28  C   UNL     1      36.973  -1.675  14.218  0.00  0.00    +0.000 A 
ATOM     29  C   UNL     1      37.306  -2.904  14.708  0.00  0.00    +0.000 A 
ATOM     30  C   UNL     1      37.523  -3.143  16.044  0.00  0.00    +0.000 A 
ATOM     31  C   UNL     1      37.877  -4.509  16.511  0.00  0.00    +0.000 C 
ATOM     32  C   UNL     1      37.388  -2.070  16.891  0.00  0.00    +0.000 A 
ATOM     33  C   UNL     1      37.049  -0.823  16.387  0.00  0.00    +0.000 A 
ENDBRANCH  26  27
ENDBRANCH   2  26
TORSDOF 7
ENDMDL
MODEL 7
REMARK VINA RESULT:      -7.8      3.694      8.715
REMARK  Name = 
REMARK  7 active torsions:
REMARK  status: ('A' for Active; 'I' for Inactive)
REMARK    1  A    between atoms: O_2  and  C_3
REMARK    2  A    between atoms: C_7  and  N_8
REMARK    3  A    between atoms: N_8  and  C_9
REMARK    4  A    between atoms: C_10  and  S_11
REMARK    5  A    between atoms: S_11  and  C_12
REMARK    6  A    between atoms: N_21  and  C_22
REMARK    7  A    between atoms: C_25  and  C_26
REMARK                            x       y       z     vdW  Elec       q    Type
REMARK                         _______ _______ _______ _____ _____    ______ ____
ROOT
ATOM      1  C   UNL     1      38.481   2.037  14.041  0.00  0.00    +0.000 C 
ATOM      2  C   UNL     1      37.413   1.599  14.730  0.00  0.00    +0.000 C 
ATOM      3  C   UNL     1      37.195   2.537  15.811  0.00  0.00    +0.000 C 
ATOM      4  O   UNL     1      36.319   2.540  16.711  0.00  0.00    +0.000 OA
ATOM      5  N   UNL     1      38.197   3.576  15.738  0.00  0.00    +0.000 N 
ATOM      6  C   UNL     1      38.994   3.249  14.624  0.00  0.00    +0.000 C 
ATOM      7  O   UNL     1      40.006   3.931  14.217  0.00  0.00    +0.000 OA
ENDROOT
BRANCH   5   8
ATOM      8  C   UNL     1      38.350   4.689  16.613  0.00  0.00    +0.000 A 
ATOM      9  C   UNL     1      38.018   5.965  16.192  0.00  0.00    +0.000 A 
ATOM     10  C   UNL     1      38.165   7.060  17.019  0.00  0.00    +0.000 A 
ATOM     11  C   UNL     1      38.648   6.951  18.299  0.00  0.00    +0.000 A 
ATOM     12  C   UNL     1      38.985   5.679  18.734  0.00  0.00    +0.000 A 
ATOM     13  C   UNL     1      38.835   4.574  17.897  0.00  0.00    +0.000 A 
BRANCH  11  14
ATOM     14  C   UNL     1      38.823   8.100  19.210  0.00  0.00    +0.000 C 
ATOM     15  C   UNL     1      37.468   8.762  19.433  0.00  0.00    +0.000 C 
ATOM     16  C   UNL     1      39.396   7.648  20.539  0.00  0.00    +0.000 C 
ENDBRANCH  11  14
ENDBRANCH   5   8
BRANCH   1  17
ATOM     17  N   UNL     1      39.001   1.375  12.904  0.00  0.00    +0.000 NA
BRANCH  17  22
ATOM     18  C   UNL     1      41.933  -0.660  14.043  0.00  0.00    +0.000 A 
ATOM     19  C   UNL     1      41.460  -1.928  13.693  0.00  0.00    +0.000 A 
ATOM     20  C   UNL     1      40.234  -2.063  13.116  0.00  0.00    +0.000 A 
ATOM     21  C   UNL     1      39.414  -1.014  12.850  0.00  0.00    +0.000 A 
ATOM     22  C   UNL     1      39.858   0.241  13.184  0.00  0.00    +0.000 A 
ATOM     23  C   UNL     1      41.071   0.406  13.758  0.00  0.00    +0.000 A 
BRANCH  18  25
ATOM     24  C   UNL     1      44.165  -0.289  15.223  0.00  0.00    +0.000 C 
ATOM     25  O   UNL     1      43.080  -0.474  14.590  0.00  0.00    +0.000 OA
ENDBRANCH  18  25
ENDBRANCH  17  22
ENDBRANCH   1  17
BRANCH   2  26
ATOM     26  S   UNL     1      36.504   0.150  14.328  0.00  0.00    +0.000 S 
BRANCH  26  27
ATOM     27  C   UNL     1      36.987  -1.319  15.161  0.00  0.00    +0.000 A 
ATOM     28  C   UNL     1      37.999  -1.285  16.138  0.00  0.00    +0.000 A 
ATOM     29  C   UNL     1      38.397  -2.416  16.789  0.00  0.00    +0.000 A 
ATOM     30  C   UNL     1      37.849  -3.653  16.545  0.00  0.00    +0.000 A 
ATOM     31  C   UNL     1      38.335  -4.844  17.288  0.00  0.00    +0.000 C 
ATOM     32  C   UNL     1      36.859  -3.710  15.594  0.00  0.00    +0.000 A 
ATOM     33  C   UNL     1      36.459  -2.557  14.936  0.00  0.00    +0.000 A 
ENDBRANCH  26  27
ENDBRANCH   2  26
TORSDOF 7
ENDMDL
MODEL 8
REMARK VINA RESULT:      -7.8      2.090      7.160
REMARK  Name = 
REMARK  7 active torsions:
REMARK  status: ('A' for Active; 'I' for Inactive)
REMARK    1  A    between atoms: O_2  and  C_3
REMARK    2  A    between atoms: C_7  and  N_8
REMARK    3  A    between atoms: N_8  and  C_9
REMARK    4  A    between atoms: C_10  and  S_11
REMARK    5  A    between atoms: S_11  and  C_12
REMARK    6  A    between atoms: N_21  and  C_22
REMARK    7  A    between atoms: C_25  and  C_26
REMARK                            x       y       z     vdW  Elec       q    Type
REMARK                         _______ _______ _______ _____ _____    ______ ____
ROOT
ATOM      1  C   UNL     1      36.447   4.985  14.746  0.00  0.00    +0.000 C 
ATOM      2  C   UNL     1      36.276   3.887  15.502  0.00  0.00    +0.000 C 
ATOM      3  C   UNL     1      37.255   3.951  16.566  0.00  0.00    +0.000 C 
ATOM      4  O   UNL     1      37.475   3.149  17.508  0.00  0.00    +0.000 OA
ATOM      5  N   UNL     1      38.034   5.158  16.412  0.00  0.00    +0.000 N 
ATOM      6  C   UNL     1      37.515   5.795  15.269  0.00  0.00    +0.000 C 
ATOM      7  O   UNL     1      37.942   6.910  14.789  0.00  0.00    +0.000 OA
ENDROOT
BRANCH   5   8
ATOM      8  C   UNL     1      39.106   5.603  17.238  0.00  0.00    +0.000 A 
ATOM      9  C   UNL     1      40.345   5.886  16.689  0.00  0.00    +0.000 A 
ATOM     10  C   UNL     1      41.402   6.311  17.469  0.00  0.00    +0.000 A 
ATOM     11  C   UNL     1      41.288   6.476  18.827  0.00  0.00    +0.000 A 
ATOM     12  C   UNL     1      40.053   6.197  19.390  0.00  0.00    +0.000 A 
ATOM     13  C   UNL     1      38.987   5.768  18.600  0.00  0.00    +0.000 A 
BRANCH  11  14
ATOM     14  C   UNL     1      42.396   6.925  19.694  0.00  0.00    +0.000 C 
ATOM     15  C   UNL     1      42.489   5.994  20.897  0.00  0.00    +0.000 C 
ATOM     16  C   UNL     1      43.709   6.913  18.935  0.00  0.00    +0.000 C 
ENDBRANCH  11  14
ENDBRANCH   5   8
BRANCH   1  17
ATOM     17  N   UNL     1      35.666   5.275  13.602  0.00  0.00    +0.000 NA
BRANCH  17  22
ATOM     18  C   UNL     1      37.831   3.721  10.969  0.00  0.00    +0.000 A 
ATOM     19  C   UNL     1      37.523   4.577   9.908  0.00  0.00    +0.000 A 
ATOM     20  C   UNL     1      36.642   5.598  10.091  0.00  0.00    +0.000 A 
ATOM     21  C   UNL     1      36.023   5.849  11.273  0.00  0.00    +0.000 A 
ATOM     22  C   UNL     1      36.311   5.023  12.330  0.00  0.00    +0.000 A 
ATOM     23  C   UNL     1      37.182   3.998  12.178  0.00  0.00    +0.000 A 
BRANCH  18  25
ATOM     24  C   UNL     1      39.536   1.840  10.703  0.00  0.00    +0.000 C 
ATOM     25  O   UNL     1      38.653   2.741  10.853  0.00  0.00    +0.000 OA
ENDBRANCH  18  25
ENDBRANCH  17  22
ENDBRANCH   1  17
BRANCH   2  26
ATOM     26  S   UNL     1      35.066   2.652  15.190  0.00  0.00    +0.000 S 
BRANCH  26  27
ATOM     27  C   UNL     1      35.453   1.033  15.752  0.00  0.00    +0.000 A 
ATOM     28  C   UNL     1      34.814   0.499  16.886  0.00  0.00    +0.000 A 
ATOM     29  C   UNL     1      35.108  -0.751  17.345  0.00  0.00    +0.000 A 
ATOM     30  C   UNL     1      36.035  -1.570  16.746  0.00  0.00    +0.000 A 
ATOM     31  C   UNL     1      36.311  -2.920  17.304  0.00  0.00    +0.000 C 
ATOM     32  C   UNL     1      36.673  -1.069  15.637  0.00  0.00    +0.000 A 
ATOM     33  C   UNL     1      36.370   0.202  15.175  0.00  0.00    +0.000 A 
ENDBRANCH  26  27
ENDBRANCH   2  26
TORSDOF 7
ENDMDL
MODEL 9
REMARK VINA RESULT:      -7.8      1.834      6.614
REMARK  Name = 
REMARK  7 active torsions:
REMARK  status: ('A' for Active; 'I' for Inactive)
REMARK    1  A    between atoms: O_2  and  C_3
REMARK    2  A    between atoms: C_7  and  N_8
REMARK    3  A    between atoms: N_8  and  C_9
REMARK    4  A    between atoms: C_10  and  S_11
REMARK    5  A    between atoms: S_11  and  C_12
REMARK    6  A    between atoms: N_21  and  C_22
REMARK    7  A    between atoms: C_25  and  C_26
REMARK                            x       y       z     vdW  Elec       q    Type
REMARK                         _______ _______ _______ _____ _____    ______ ____
ROOT
ATOM      1  C   UNL     1      37.791   4.063  14.887  0.00  0.00    +0.000 C 
ATOM      2  C   UNL     1      36.486   4.311  14.682  0.00  0.00    +0.000 C 
ATOM      3  C   UNL     1      35.808   3.032  14.686  0.00  0.00    +0.000 C 
ATOM      4  O   UNL     1      34.590   2.766  14.532  0.00  0.00    +0.000 OA
ATOM      5  N   UNL     1      36.781   1.987  14.908  0.00  0.00    +0.000 N 
ATOM      6  C   UNL     1      38.018   2.649  15.032  0.00  0.00    +0.000 C 
ATOM      7  O   UNL     1      39.147   2.067  15.238  0.00  0.00    +0.000 OA
ENDROOT
BRANCH   5   8
ATOM      8  C   UNL     1      36.540   0.585  14.976  0.00  0.00    +0.000 A 
ATOM      9  C   UNL     1      35.773   0.054  15.999  0.00  0.00    +0.000 A 
ATOM     10  C   UNL     1      35.532  -1.302  16.092  0.00  0.00    +0.000 A 
ATOM     11  C   UNL     1      36.037  -2.198  15.183  0.00  0.00    +0.000 A 
ATOM     12  C   UNL     1      36.806  -1.680  14.154  0.00  0.00    +0.000 A 
ATOM     13  C   UNL     1      37.048  -0.310  14.062  0.00  0.00    +0.000 A 
BRANCH  11  14
ATOM     14  C   UNL     1      35.803  -3.655  15.253  0.00  0.00    +0.000 C 
ATOM     15  C   UNL     1      36.395  -4.187  16.552  0.00  0.00    +0.000 C 
ATOM     16  C   UNL     1      34.320  -3.963  15.202  0.00  0.00    +0.000 C 
ENDBRANCH  11  14
ENDBRANCH   5   8
BRANCH   1  17
ATOM     17  N   UNL     1      38.778   5.075  14.947  0.00  0.00    +0.000 NA
BRANCH  17  22
ATOM     18  C   UNL     1      41.042   6.176  17.721  0.00  0.00    +0.000 A 
ATOM     19  C   UNL     1      40.185   5.942  18.800  0.00  0.00    +0.000 A 
ATOM     20  C   UNL     1      38.934   5.449  18.584  0.00  0.00    +0.000 A 
ATOM     21  C   UNL     1      38.449   5.160  17.348  0.00  0.00    +0.000 A 
ATOM     22  C   UNL     1      39.273   5.381  16.274  0.00  0.00    +0.000 A 
ATOM     23  C   UNL     1      40.521   5.870  16.458  0.00  0.00    +0.000 A 
BRANCH  18  25
ATOM     24  C   UNL     1      43.410   7.048  18.102  0.00  0.00    +0.000 C 
ATOM     25  O   UNL     1      42.230   6.641  17.867  0.00  0.00    +0.000 OA
ENDBRANCH  18  25
ENDBRANCH  17  22
ENDBRANCH   1  17
BRANCH   2  26
ATOM     26  S   UNL     1      35.809   5.917  14.459  0.00  0.00    +0.000 S 
BRANCH  26  27
ATOM     27  C   UNL     1      35.274   6.310  12.833  0.00  0.00    +0.000 A 
ATOM     28  C   UNL     1      36.035   5.918  11.717  0.00  0.00    +0.000 A 
ATOM     29  C   UNL     1      35.643   6.223  10.446  0.00  0.00    +0.000 A 
ATOM     30  C   UNL     1      34.495   6.924  10.164  0.00  0.00    +0.000 A 
ATOM     31  C   UNL     1      34.131   7.226   8.756  0.00  0.00    +0.000 C 
ATOM     32  C   UNL     1      33.736   7.318  11.240  0.00  0.00    +0.000 A 
ATOM     33  C   UNL     1      34.139   7.005  12.529  0.00  0.00    +0.000 A 
ENDBRANCH  26  27
ENDBRANCH   2  26
TORSDOF 7
ENDMDL
MODEL 10
REMARK VINA RESULT:      -7.6     24.845     28.269
REMARK  Name = 
REMARK  7 active torsions:
REMARK  status: ('A' for Active; 'I' for Inactive)
REMARK    1  A    between atoms: O_2  and  C_3
REMARK    2  A    between atoms: C_7  and  N_8
REMARK    3  A    between atoms: N_8  and  C_9
REMARK    4  A    between atoms: C_10  and  S_11
REMARK    5  A    between atoms: S_11  and  C_12
REMARK    6  A    between atoms: N_21  and  C_22
REMARK    7  A    between atoms: C_25  and  C_26
REMARK                            x       y       z     vdW  Elec       q    Type
REMARK                         _______ _______ _______ _____ _____    ______ ____
ROOT
ATOM      1  C   UNL     1      27.694  14.544  40.259  0.00  0.00    +0.000 C 
ATOM      2  C   UNL     1      26.435  14.118  40.462  0.00  0.00    +0.000 C 
ATOM      3  C   UNL     1      25.678  14.457  39.275  0.00  0.00    +0.000 C 
ATOM      4  O   UNL     1      24.467  14.259  39.009  0.00  0.00    +0.000 OA
ATOM      5  N   UNL     1      26.555  15.117  38.335  0.00  0.00    +0.000 N 
ATOM      6  C   UNL     1      27.813  15.163  38.965  0.00  0.00    +0.000 C 
ATOM      7  O   UNL     1      28.875  15.679  38.453  0.00  0.00    +0.000 OA
ENDROOT
BRANCH   5   8
ATOM      8  C   UNL     1      26.214  15.621  37.047  0.00  0.00    +0.000 A 
ATOM      9  C   UNL     1      26.385  14.838  35.918  0.00  0.00    +0.000 A 
ATOM     10  C   UNL     1      26.070  15.307  34.659  0.00  0.00    +0.000 A 
ATOM     11  C   UNL     1      25.573  16.569  34.452  0.00  0.00    +0.000 A 
ATOM     12  C   UNL     1      25.396  17.364  35.573  0.00  0.00    +0.000 A 
ATOM     13  C   UNL     1      25.715  16.888  36.844  0.00  0.00    +0.000 A 
BRANCH  11  14
ATOM     14  C   UNL     1      25.229  17.106  33.120  0.00  0.00    +0.000 C 
ATOM     15  C   UNL     1      24.771  15.957  32.229  0.00  0.00    +0.000 C 
ATOM     16  C   UNL     1      24.126  18.141  33.228  0.00  0.00    +0.000 C 
ENDBRANCH  11  14
ENDBRANCH   5   8
BRANCH   1  17
ATOM     17  N   UNL     1      28.732  14.389  41.207  0.00  0.00    +0.000 NA
BRANCH  17  22
ATOM     18  C   UNL     1      31.139  12.018  39.587  0.00  0.00    +0.000 A 
ATOM     19  C   UNL     1      31.235  11.077  40.616  0.00  0.00    +0.000 A 
ATOM     20  C   UNL     1      30.531  11.252  41.768  0.00  0.00    +0.000 A 
ATOM     21  C   UNL     1      29.714  12.314  41.990  0.00  0.00    +0.000 A 
ATOM     22  C   UNL     1      29.602  13.250  40.993  0.00  0.00    +0.000 A 
ATOM     23  C   UNL     1      30.291  13.104  39.838  0.00  0.00    +0.000 A 
BRANCH  18  25
ATOM     24  C   UNL     1      32.456  11.887  37.405  0.00  0.00    +0.000 C 
ATOM     25  O   UNL     1      31.781  11.904  38.480  0.00  0.00    +0.000 OA
ENDBRANCH  18  25
ENDBRANCH  17  22
ENDBRANCH   1  17
BRANCH   2  26
ATOM     26  S   UNL     1      25.890  13.307  41.923  0.00  0.00    +0.000 S 
BRANCH  26  27
ATOM     27  C   UNL     1      26.378  11.629  42.101  0.00  0.00    +0.000 A 
ATOM     28  C   UNL     1      26.770  10.876  40.979  0.00  0.00    +0.000 A 
ATOM     29  C   UNL     1      27.142   9.569  41.094  0.00  0.00    +0.000 A 
ATOM     30  C   UNL     1      27.163   8.899  42.294  0.00  0.00    +0.000 A 
ATOM     31  C   UNL     1      27.573   7.472  42.345  0.00  0.00    +0.000 C 
ATOM     32  C   UNL     1      26.783   9.614  43.404  0.00  0.00    +0.000 A 
ATOM     33  C   UNL     1      26.406  10.942  43.281  0.00  0.00    +0.000 A 
ENDBRANCH  26  27
ENDBRANCH   2  26
TORSDOF 7
ENDMDL
