MODEL 1
REMARK VINA RESULT:      -7.8      0.000      0.000
REMARK  Name = 
REMARK  6 active torsions:
REMARK  status: ('A' for Active; 'I' for Inactive)
REMARK    1  A    between atoms: C_2  and  C_3
REMARK    2  A    between atoms: C_3  and  C_5
REMARK    3  A    between atoms: C_8  and  N_9
REMARK    4  A    between atoms: C_10  and  C_12
REMARK    5  A    between atoms: C_16  and  C_17
REMARK    6  A    between atoms: C_21  and  O_22
REMARK                            x       y       z     vdW  Elec       q    Type
REMARK                         _______ _______ _______ _____ _____    ______ ____
ROOT
ATOM      1  C   UNL     1      37.281   4.487  12.775  0.00  0.00    +0.000 A 
ATOM      2  S   UNL     1      36.578   5.423  11.523  0.00  0.00    +0.000 S 
ATOM      3  C   UNL     1      36.571   4.260  10.276  0.00  0.00    +0.000 A 
ATOM      4  N   UNL     1      36.150   4.293   8.972  0.00  0.00    +0.000 NA
ATOM      5  C   UNL     1      36.252   3.224   8.168  0.00  0.00    +0.000 A 
ATOM      6  C   UNL     1      36.802   2.106   8.736  0.00  0.00    +0.000 A 
ATOM      7  C   UNL     1      37.232   2.034  10.032  0.00  0.00    +0.000 A 
ATOM      8  C   UNL     1      37.119   3.169  10.868  0.00  0.00    +0.000 A 
ATOM      9  C   UNL     1      37.492   3.280  12.171  0.00  0.00    +0.000 A 
ATOM     10  N   UNL     1      38.094   2.203  12.956  0.00  0.00    +0.000 NA
ENDROOT
BRANCH   5  11
ATOM     11  C   UNL     1      35.821   3.211   6.780  0.00  0.00    +0.000 A 
ATOM     12  C   UNL     1      36.048   2.143   5.942  0.00  0.00    +0.000 A 
ATOM     13  C   UNL     1      35.639   2.127   4.621  0.00  0.00    +0.000 A 
ATOM     14  C   UNL     1      34.980   3.205   4.108  0.00  0.00    +0.000 A 
ATOM     15  C   UNL     1      34.733   4.289   4.907  0.00  0.00    +0.000 A 
ATOM     16  C   UNL     1      35.144   4.290   6.214  0.00  0.00    +0.000 A 
BRANCH  15  17
ATOM     17  O   UNL     1      34.069   5.372   4.384  0.00  0.00    +0.000 OA
ATOM     18  C   UNL     1      33.594   5.461   3.075  0.00  0.00    +0.000 C 
ENDBRANCH  15  17
ENDBRANCH   5  11
BRANCH   1  20
ATOM     19  N   UNL     1      38.853   4.676  14.685  0.00  0.00    +0.000 NA
ATOM     20  C   UNL     1      37.575   4.895  14.142  0.00  0.00    +0.000 C 
ATOM     21  O   UNL     1      36.692   5.436  14.820  0.00  0.00    +0.000 OA
BRANCH  19  25
ATOM     22  C   UNL     1      40.060   5.877  18.504  0.00  0.00    +0.000 A 
ATOM     23  C   UNL     1      38.989   5.047  18.378  0.00  0.00    +0.000 A 
ATOM     24  C   UNL     1      38.547   4.617  17.116  0.00  0.00    +0.000 A 
ATOM     25  C   UNL     1      39.214   5.049  16.011  0.00  0.00    +0.000 A 
ATOM     26  C   UNL     1      40.288   5.882  16.151  0.00  0.00    +0.000 A 
ATOM     27  C   UNL     1      40.732   6.313  17.411  0.00  0.00    +0.000 A 
BRANCH  22  28
ATOM     28  C   UNL     1      40.506   6.313  19.945  0.00  0.00    +0.000 C 
ATOM     29  C   UNL     1      42.087   6.577  19.556  0.00  0.00    +0.000 C 
BRANCH  28  31
ATOM     30  C   UNL     1      38.834   8.123  20.547  0.00  0.00    +0.000 C 
ATOM     31  C   UNL     1      40.083   7.895  19.797  0.00  0.00    +0.000 C 
ENDBRANCH  28  31
ENDBRANCH  22  28
ENDBRANCH  19  25
ENDBRANCH   1  20
TORSDOF 6
ENDMDL
MODEL 2
REMARK VINA RESULT:      -7.7      6.620      8.924
REMARK  Name = 
REMARK  6 active torsions:
REMARK  status: ('A' for Active; 'I' for Inactive)
REMARK    1  A    between atoms: C_2  and  C_3
REMARK    2  A    between atoms: C_3  and  C_5
REMARK    3  A    between atoms: C_8  and  N_9
REMARK    4  A    between atoms: C_10  and  C_12
REMARK    5  A    between atoms: C_16  and  C_17
REMARK    6  A    between atoms: C_21  and  O_22
REMARK                            x       y       z     vdW  Elec       q    Type
REMARK                         _______ _______ _______ _____ _____    ______ ____
ROOT
ATOM      1  C   UNL     1      36.337   1.212  16.167  0.00  0.00    +0.000 A 
ATOM      2  S   UNL     1      35.250   0.118  16.915  0.00  0.00    +0.000 S 
ATOM      3  C   UNL     1      35.593  -1.282  16.004  0.00  0.00    +0.000 A 
ATOM      4  N   UNL     1      35.101  -2.561  16.038  0.00  0.00    +0.000 NA
ATOM      5  C   UNL     1      35.540  -3.510  15.198  0.00  0.00    +0.000 A 
ATOM      6  C   UNL     1      36.504  -3.116  14.309  0.00  0.00    +0.000 A 
ATOM      7  C   UNL     1      37.019  -1.851  14.245  0.00  0.00    +0.000 A 
ATOM      8  C   UNL     1      36.547  -0.860  15.137  0.00  0.00    +0.000 A 
ATOM      9  C   UNL     1      36.940   0.439  15.215  0.00  0.00    +0.000 A 
ATOM     10  N   UNL     1      37.955   1.053  14.359  0.00  0.00    +0.000 NA
ENDROOT
BRANCH   5  11
ATOM     11  C   UNL     1      35.049  -4.879  15.197  0.00  0.00    +0.000 A 
ATOM     12  C   UNL     1      34.171  -5.352  14.248  0.00  0.00    +0.000 A 
ATOM     13  C   UNL     1      33.702  -6.652  14.244  0.00  0.00    +0.000 A 
ATOM     14  C   UNL     1      34.116  -7.520  15.210  0.00  0.00    +0.000 A 
ATOM     15  C   UNL     1      34.991  -7.092  16.174  0.00  0.00    +0.000 A 
ATOM     16  C   UNL     1      35.446  -5.799  16.165  0.00  0.00    +0.000 A 
BRANCH  15  17
ATOM     17  O   UNL     1      35.404  -7.970  17.145  0.00  0.00    +0.000 OA
ATOM     18  C   UNL     1      36.690  -8.016  17.685  0.00  0.00    +0.000 C 
ENDBRANCH  15  17
ENDBRANCH   5  11
BRANCH   1  20
ATOM     19  N   UNL     1      37.843   3.090  16.766  0.00  0.00    +0.000 NA
ATOM     20  C   UNL     1      36.550   2.618  16.481  0.00  0.00    +0.000 C 
ATOM     21  O   UNL     1      35.585   3.393  16.494  0.00  0.00    +0.000 OA
BRANCH  19  25
ATOM     22  C   UNL     1      38.736   7.025  17.867  0.00  0.00    +0.000 A 
ATOM     23  C   UNL     1      38.247   6.779  16.621  0.00  0.00    +0.000 A 
ATOM     24  C   UNL     1      37.932   5.475  16.206  0.00  0.00    +0.000 A 
ATOM     25  C   UNL     1      38.128   4.450  17.080  0.00  0.00    +0.000 A 
ATOM     26  C   UNL     1      38.620   4.709  18.328  0.00  0.00    +0.000 A 
ATOM     27  C   UNL     1      38.934   6.012  18.745  0.00  0.00    +0.000 A 
BRANCH  22  28
ATOM     28  C   UNL     1      39.059   8.507  18.268  0.00  0.00    +0.000 C 
ATOM     29  C   UNL     1      37.524   9.073  18.058  0.00  0.00    +0.000 C 
BRANCH  28  31
ATOM     30  C   UNL     1      37.696   9.046  20.338  0.00  0.00    +0.000 C 
ATOM     31  C   UNL     1      38.887   8.301  19.890  0.00  0.00    +0.000 C 
ENDBRANCH  28  31
ENDBRANCH  22  28
ENDBRANCH  19  25
ENDBRANCH   1  20
TORSDOF 6
ENDMDL
MODEL 3
REMARK VINA RESULT:      -7.5      1.722      2.127
REMARK  Name = 
REMARK  6 active torsions:
REMARK  status: ('A' for Active; 'I' for Inactive)
REMARK    1  A    between atoms: C_2  and  C_3
REMARK    2  A    between atoms: C_3  and  C_5
REMARK    3  A    between atoms: C_8  and  N_9
REMARK    4  A    between atoms: C_10  and  C_12
REMARK    5  A    between atoms: C_16  and  C_17
REMARK    6  A    between atoms: C_21  and  O_22
REMARK                            x       y       z     vdW  Elec       q    Type
REMARK                         _______ _______ _______ _____ _____    ______ ____
ROOT
ATOM      1  C   UNL     1      36.771   5.960  12.857  0.00  0.00    +0.000 A 
ATOM      2  S   UNL     1      35.875   7.063  11.899  0.00  0.00    +0.000 S 
ATOM      3  C   UNL     1      35.772   6.159  10.458  0.00  0.00    +0.000 A 
ATOM      4  N   UNL     1      35.193   6.408   9.240  0.00  0.00    +0.000 NA
ATOM      5  C   UNL     1      35.247   5.519   8.236  0.00  0.00    +0.000 A 
ATOM      6  C   UNL     1      35.915   4.356   8.510  0.00  0.00    +0.000 A 
ATOM      7  C   UNL     1      36.504   4.072   9.711  0.00  0.00    +0.000 A 
ATOM      8  C   UNL     1      36.440   5.018  10.760  0.00  0.00    +0.000 A 
ATOM      9  C   UNL     1      36.965   4.907  12.009  0.00  0.00    +0.000 A 
ATOM     10  N   UNL     1      37.710   3.747  12.496  0.00  0.00    +0.000 NA
ENDROOT
BRANCH   5  11
ATOM     11  C   UNL     1      34.649   5.738   6.929  0.00  0.00    +0.000 A 
ATOM     12  C   UNL     1      34.899   4.917   5.852  0.00  0.00    +0.000 A 
ATOM     13  C   UNL     1      34.333   5.123   4.608  0.00  0.00    +0.000 A 
ATOM     14  C   UNL     1      33.487   6.175   4.419  0.00  0.00    +0.000 A 
ATOM     15  C   UNL     1      33.210   7.016   5.463  0.00  0.00    +0.000 A 
ATOM     16  C   UNL     1      33.780   6.800   6.691  0.00  0.00    +0.000 A 
BRANCH  15  17
ATOM     17  O   UNL     1      32.358   8.075   5.266  0.00  0.00    +0.000 OA
ATOM     18  C   UNL     1      32.518   9.343   5.826  0.00  0.00    +0.000 C 
ENDBRANCH  15  17
ENDBRANCH   5  11
BRANCH   1  20
ATOM     19  N   UNL     1      38.432   5.568  14.659  0.00  0.00    +0.000 NA
ATOM     20  C   UNL     1      37.211   6.123  14.237  0.00  0.00    +0.000 C 
ATOM     21  O   UNL     1      36.503   6.754  15.031  0.00  0.00    +0.000 OA
BRANCH  19  25
ATOM     22  C   UNL     1      40.005   6.061  18.502  0.00  0.00    +0.000 A 
ATOM     23  C   UNL     1      39.046   5.119  18.294  0.00  0.00    +0.000 A 
ATOM     24  C   UNL     1      38.487   4.916  17.022  0.00  0.00    +0.000 A 
ATOM     25  C   UNL     1      38.926   5.687  15.989  0.00  0.00    +0.000 A 
ATOM     26  C   UNL     1      39.890   6.631  16.210  0.00  0.00    +0.000 A 
ATOM     27  C   UNL     1      40.449   6.834  17.482  0.00  0.00    +0.000 A 
BRANCH  22  28
ATOM     28  C   UNL     1      40.591   6.229  19.948  0.00  0.00    +0.000 C 
ATOM     29  C   UNL     1      42.146   6.497  19.467  0.00  0.00    +0.000 C 
BRANCH  28  31
ATOM     30  C   UNL     1      38.861   7.963  20.609  0.00  0.00    +0.000 C 
ATOM     31  C   UNL     1      40.240   7.828  20.104  0.00  0.00    +0.000 C 
ENDBRANCH  28  31
ENDBRANCH  22  28
ENDBRANCH  19  25
ENDBRANCH   1  20
TORSDOF 6
ENDMDL
MODEL 4
REMARK VINA RESULT:      -7.4     17.799     20.332
REMARK  Name = 
REMARK  6 active torsions:
REMARK  status: ('A' for Active; 'I' for Inactive)
REMARK    1  A    between atoms: C_2  and  C_3
REMARK    2  A    between atoms: C_3  and  C_5
REMARK    3  A    between atoms: C_8  and  N_9
REMARK    4  A    between atoms: C_10  and  C_12
REMARK    5  A    between atoms: C_16  and  C_17
REMARK    6  A    between atoms: C_21  and  O_22
REMARK                            x       y       z     vdW  Elec       q    Type
REMARK                         _______ _______ _______ _____ _____    ______ ____
ROOT
ATOM      1  C   UNL     1      26.467  18.643  20.455  0.00  0.00    +0.000 A 
ATOM      2  S   UNL     1      25.786  18.967  18.915  0.00  0.00    +0.000 S 
ATOM      3  C   UNL     1      24.134  18.797  19.301  0.00  0.00    +0.000 A 
ATOM      4  N   UNL     1      22.986  18.913  18.560  0.00  0.00    +0.000 NA
ATOM      5  C   UNL     1      21.773  18.728  19.101  0.00  0.00    +0.000 A 
ATOM      6  C   UNL     1      21.759  18.419  20.434  0.00  0.00    +0.000 A 
ATOM      7  C   UNL     1      22.882  18.295  21.206  0.00  0.00    +0.000 A 
ATOM      8  C   UNL     1      24.155  18.492  20.622  0.00  0.00    +0.000 A 
ATOM      9  C   UNL     1      25.367  18.409  21.231  0.00  0.00    +0.000 A 
ATOM     10  N   UNL     1      25.567  18.092  22.645  0.00  0.00    +0.000 NA
ENDROOT
BRANCH   5  11
ATOM     11  C   UNL     1      20.529  18.840  18.356  0.00  0.00    +0.000 A 
ATOM     12  C   UNL     1      19.326  18.386  18.847  0.00  0.00    +0.000 A 
ATOM     13  C   UNL     1      18.142  18.490  18.142  0.00  0.00    +0.000 A 
ATOM     14  C   UNL     1      18.143  19.066  16.907  0.00  0.00    +0.000 A 
ATOM     15  C   UNL     1      19.318  19.533  16.379  0.00  0.00    +0.000 A 
ATOM     16  C   UNL     1      20.484  19.422  17.091  0.00  0.00    +0.000 A 
BRANCH  15  17
ATOM     17  O   UNL     1      19.313  20.111  15.134  0.00  0.00    +0.000 OA
ATOM     18  C   UNL     1      20.454  20.421  14.393  0.00  0.00    +0.000 C 
ENDBRANCH  15  17
ENDBRANCH   5  11
BRANCH   1  20
ATOM     19  N   UNL     1      28.553  17.402  20.967  0.00  0.00    +0.000 NA
ATOM     20  C   UNL     1      27.875  18.625  20.826  0.00  0.00    +0.000 C 
ATOM     21  O   UNL     1      28.469  19.694  21.015  0.00  0.00    +0.000 OA
BRANCH  19  25
ATOM     22  C   UNL     1      32.633  17.093  21.830  0.00  0.00    +0.000 A 
ATOM     23  C   UNL     1      31.754  17.301  22.848  0.00  0.00    +0.000 A 
ATOM     24  C   UNL     1      30.375  17.412  22.608  0.00  0.00    +0.000 A 
ATOM     25  C   UNL     1      29.928  17.306  21.326  0.00  0.00    +0.000 A 
ATOM     26  C   UNL     1      30.821  17.098  20.313  0.00  0.00    +0.000 A 
ATOM     27  C   UNL     1      32.199  16.987  20.551  0.00  0.00    +0.000 A 
BRANCH  22  28
ATOM     28  C   UNL     1      34.160  16.972  22.171  0.00  0.00    +0.000 C 
ATOM     29  C   UNL     1      34.249  18.375  23.034  0.00  0.00    +0.000 C 
BRANCH  28  31
ATOM     30  C   UNL     1      35.290  15.872  24.159  0.00  0.00    +0.000 C 
ATOM     31  C   UNL     1      33.977  16.027  23.504  0.00  0.00    +0.000 C 
ENDBRANCH  28  31
ENDBRANCH  22  28
ENDBRANCH  19  25
ENDBRANCH   1  20
TORSDOF 6
ENDMDL
MODEL 5
REMARK VINA RESULT:      -7.3      6.288      9.144
REMARK  Name = 
REMARK  6 active torsions:
REMARK  status: ('A' for Active; 'I' for Inactive)
REMARK    1  A    between atoms: C_2  and  C_3
REMARK    2  A    between atoms: C_3  and  C_5
REMARK    3  A    between atoms: C_8  and  N_9
REMARK    4  A    between atoms: C_10  and  C_12
REMARK    5  A    between atoms: C_16  and  C_17
REMARK    6  A    between atoms: C_21  and  O_22
REMARK                            x       y       z     vdW  Elec       q    Type
REMARK                         _______ _______ _______ _____ _____    ______ ____
ROOT
ATOM      1  C   UNL     1      36.059   4.593  14.118  0.00  0.00    +0.000 A 
ATOM      2  S   UNL     1      37.622   3.989  13.758  0.00  0.00    +0.000 S 
ATOM      3  C   UNL     1      37.479   2.428  14.428  0.00  0.00    +0.000 A 
ATOM      4  N   UNL     1      38.343   1.367  14.516  0.00  0.00    +0.000 NA
ATOM      5  C   UNL     1      37.991   0.215  15.105  0.00  0.00    +0.000 A 
ATOM      6  C   UNL     1      36.718   0.171  15.609  0.00  0.00    +0.000 A 
ATOM      7  C   UNL     1      35.828   1.207  15.540  0.00  0.00    +0.000 A 
ATOM      8  C   UNL     1      36.213   2.417  14.916  0.00  0.00    +0.000 A 
ATOM      9  C   UNL     1      35.466   3.542  14.759  0.00  0.00    +0.000 A 
ATOM     10  N   UNL     1      34.088   3.696  15.224  0.00  0.00    +0.000 NA
ENDROOT
BRANCH   5  11
ATOM     11  C   UNL     1      38.871  -0.936  15.222  0.00  0.00    +0.000 A 
ATOM     12  C   UNL     1      39.997  -1.091  14.445  0.00  0.00    +0.000 A 
ATOM     13  C   UNL     1      40.837  -2.184  14.553  0.00  0.00    +0.000 A 
ATOM     14  C   UNL     1      40.557  -3.159  15.463  0.00  0.00    +0.000 A 
ATOM     15  C   UNL     1      39.448  -3.045  16.258  0.00  0.00    +0.000 A 
ATOM     16  C   UNL     1      38.624  -1.956  16.138  0.00  0.00    +0.000 A 
BRANCH  15  17
ATOM     17  O   UNL     1      39.171  -4.032  17.172  0.00  0.00    +0.000 OA
ATOM     18  C   UNL     1      38.705  -3.810  18.468  0.00  0.00    +0.000 C 
ENDBRANCH  15  17
ENDBRANCH   5  11
BRANCH   1  20
ATOM     19  N   UNL     1      35.874   7.023  14.584  0.00  0.00    +0.000 NA
ATOM     20  C   UNL     1      35.513   5.907  13.808  0.00  0.00    +0.000 C 
ATOM     21  O   UNL     1      34.729   6.034  12.859  0.00  0.00    +0.000 OA
BRANCH  19  25
ATOM     22  C   UNL     1      34.290  10.849  14.005  0.00  0.00    +0.000 A 
ATOM     23  C   UNL     1      35.367  10.460  13.271  0.00  0.00    +0.000 A 
ATOM     24  C   UNL     1      35.935   9.185  13.430  0.00  0.00    +0.000 A 
ATOM     25  C   UNL     1      35.382   8.337  14.341  0.00  0.00    +0.000 A 
ATOM     26  C   UNL     1      34.300   8.740  15.072  0.00  0.00    +0.000 A 
ATOM     27  C   UNL     1      33.732  10.013  14.914  0.00  0.00    +0.000 A 
BRANCH  22  28
ATOM     28  C   UNL     1      33.702  12.285  13.771  0.00  0.00    +0.000 C 
ATOM     29  C   UNL     1      33.783  12.756  15.350  0.00  0.00    +0.000 C 
BRANCH  28  31
ATOM     30  C   UNL     1      35.047  14.435  13.702  0.00  0.00    +0.000 C 
ATOM     31  C   UNL     1      35.125  13.002  13.363  0.00  0.00    +0.000 C 
ENDBRANCH  28  31
ENDBRANCH  22  28
ENDBRANCH  19  25
ENDBRANCH   1  20
TORSDOF 6
ENDMDL
MODEL 6
REMARK VINA RESULT:      -7.2      1.364      2.099
REMARK  Name = 
REMARK  6 active torsions:
REMARK  status: ('A' for Active; 'I' for Inactive)
REMARK    1  A    between atoms: C_2  and  C_3
REMARK    2  A    between atoms: C_3  and  C_5
REMARK    3  A    between atoms: C_8  and  N_9
REMARK    4  A    between atoms: C_10  and  C_12
REMARK    5  A    between atoms: C_16  and  C_17
REMARK    6  A    between atoms: C_21  and  O_22
REMARK                            x       y       z     vdW  Elec       q    Type
REMARK                         _______ _______ _______ _____ _____    ______ ____
ROOT
ATOM      1  C   UNL     1      36.680   5.930  12.703  0.00  0.00    +0.000 A 
ATOM      2  S   UNL     1      35.837   7.048  11.714  0.00  0.00    +0.000 S 
ATOM      3  C   UNL     1      35.742   6.133  10.279  0.00  0.00    +0.000 A 
ATOM      4  N   UNL     1      35.198   6.386   9.046  0.00  0.00    +0.000 NA
ATOM      5  C   UNL     1      35.251   5.487   8.052  0.00  0.00    +0.000 A 
ATOM      6  C   UNL     1      35.880   4.309   8.351  0.00  0.00    +0.000 A 
ATOM      7  C   UNL     1      36.433   4.020   9.567  0.00  0.00    +0.000 A 
ATOM      8  C   UNL     1      36.371   4.977  10.607  0.00  0.00    +0.000 A 
ATOM      9  C   UNL     1      36.864   4.864  11.869  0.00  0.00    +0.000 A 
ATOM     10  N   UNL     1      37.566   3.688  12.383  0.00  0.00    +0.000 NA
ENDROOT
BRANCH   5  11
ATOM     11  C   UNL     1      34.689   5.710   6.729  0.00  0.00    +0.000 A 
ATOM     12  C   UNL     1      33.920   6.810   6.425  0.00  0.00    +0.000 A 
ATOM     13  C   UNL     1      33.384   7.025   5.169  0.00  0.00    +0.000 A 
ATOM     14  C   UNL     1      33.617   6.122   4.175  0.00  0.00    +0.000 A 
ATOM     15  C   UNL     1      34.378   5.013   4.433  0.00  0.00    +0.000 A 
ATOM     16  C   UNL     1      34.902   4.813   5.684  0.00  0.00    +0.000 A 
BRANCH  15  17
ATOM     17  O   UNL     1      34.608   4.106   3.428  0.00  0.00    +0.000 OA
ATOM     18  C   UNL     1      34.921   2.761   3.623  0.00  0.00    +0.000 C 
ENDBRANCH  15  17
ENDBRANCH   5  11
BRANCH   1  20
ATOM     19  N   UNL     1      38.336   5.599  14.521  0.00  0.00    +0.000 NA
ATOM     20  C   UNL     1      37.092   6.094  14.090  0.00  0.00    +0.000 C 
ATOM     21  O   UNL     1      36.340   6.671  14.885  0.00  0.00    +0.000 OA
BRANCH  19  25
ATOM     22  C   UNL     1      39.820   6.122  18.395  0.00  0.00    +0.000 A 
ATOM     23  C   UNL     1      38.979   5.083  18.142  0.00  0.00    +0.000 A 
ATOM     24  C   UNL     1      38.455   4.866  16.857  0.00  0.00    +0.000 A 
ATOM     25  C   UNL     1      38.806   5.724  15.859  0.00  0.00    +0.000 A 
ATOM     26  C   UNL     1      39.652   6.763  16.126  0.00  0.00    +0.000 A 
ATOM     27  C   UNL     1      40.176   6.981  17.410  0.00  0.00    +0.000 A 
BRANCH  22  28
ATOM     28  C   UNL     1      40.374   6.300  19.852  0.00  0.00    +0.000 C 
ATOM     29  C   UNL     1      41.953   6.482  19.408  0.00  0.00    +0.000 C 
BRANCH  28  31
ATOM     30  C   UNL     1      38.792   8.132  20.614  0.00  0.00    +0.000 C 
ATOM     31  C   UNL     1      40.096   7.918  19.958  0.00  0.00    +0.000 C 
ENDBRANCH  28  31
ENDBRANCH  22  28
ENDBRANCH  19  25
ENDBRANCH   1  20
TORSDOF 6
ENDMDL
MODEL 7
REMARK VINA RESULT:      -7.1      5.299      6.681
REMARK  Name = 
REMARK  6 active torsions:
REMARK  status: ('A' for Active; 'I' for Inactive)
REMARK    1  A    between atoms: C_2  and  C_3
REMARK    2  A    between atoms: C_3  and  C_5
REMARK    3  A    between atoms: C_8  and  N_9
REMARK    4  A    between atoms: C_10  and  C_12
REMARK    5  A    between atoms: C_16  and  C_17
REMARK    6  A    between atoms: C_21  and  O_22
REMARK                            x       y       z     vdW  Elec       q    Type
REMARK                         _______ _______ _______ _____ _____    ______ ____
ROOT
ATOM      1  C   UNL     1      35.804   5.076  13.183  0.00  0.00    +0.000 A 
ATOM      2  S   UNL     1      36.518   5.239  11.633  0.00  0.00    +0.000 S 
ATOM      3  C   UNL     1      35.701   6.634  11.095  0.00  0.00    +0.000 A 
ATOM      4  N   UNL     1      35.758   7.359   9.932  0.00  0.00    +0.000 NA
ATOM      5  C   UNL     1      34.998   8.447   9.738  0.00  0.00    +0.000 A 
ATOM      6  C   UNL     1      34.167   8.781  10.774  0.00  0.00    +0.000 A 
ATOM      7  C   UNL     1      34.082   8.085  11.947  0.00  0.00    +0.000 A 
ATOM      8  C   UNL     1      34.890   6.939  12.138  0.00  0.00    +0.000 A 
ATOM      9  C   UNL     1      34.937   6.131  13.230  0.00  0.00    +0.000 A 
ATOM     10  N   UNL     1      34.132   6.318  14.437  0.00  0.00    +0.000 NA
ENDROOT
BRANCH   5  11
ATOM     11  C   UNL     1      35.024   9.246   8.524  0.00  0.00    +0.000 A 
ATOM     12  C   UNL     1      34.277   8.930   7.411  0.00  0.00    +0.000 A 
ATOM     13  C   UNL     1      34.299   9.687   6.255  0.00  0.00    +0.000 A 
ATOM     14  C   UNL     1      35.086  10.798   6.194  0.00  0.00    +0.000 A 
ATOM     15  C   UNL     1      35.845  11.150   7.278  0.00  0.00    +0.000 A 
ATOM     16  C   UNL     1      35.812  10.389   8.417  0.00  0.00    +0.000 A 
BRANCH  15  17
ATOM     17  O   UNL     1      36.636  12.271   7.209  0.00  0.00    +0.000 OA
ATOM     18  C   UNL     1      36.645  13.178   6.150  0.00  0.00    +0.000 C 
ENDBRANCH  15  17
ENDBRANCH   5  11
BRANCH   1  20
ATOM     19  N   UNL     1      35.233   2.928  14.286  0.00  0.00    +0.000 NA
ATOM     20  C   UNL     1      36.067   4.056  14.189  0.00  0.00    +0.000 C 
ATOM     21  O   UNL     1      37.029   4.190  14.955  0.00  0.00    +0.000 OA
BRANCH  19  25
ATOM     22  C   UNL     1      35.917  -0.213  16.961  0.00  0.00    +0.000 A 
ATOM     23  C   UNL     1      35.147   0.838  17.355  0.00  0.00    +0.000 A 
ATOM     24  C   UNL     1      34.889   1.916  16.492  0.00  0.00    +0.000 A 
ATOM     25  C   UNL     1      35.429   1.891  15.242  0.00  0.00    +0.000 A 
ATOM     26  C   UNL     1      36.200   0.831  14.858  0.00  0.00    +0.000 A 
ATOM     27  C   UNL     1      36.458  -0.247  15.719  0.00  0.00    +0.000 A 
BRANCH  22  28
ATOM     28  C   UNL     1      36.158  -1.387  17.973  0.00  0.00    +0.000 C 
ATOM     29  C   UNL     1      35.463  -2.556  17.040  0.00  0.00    +0.000 C 
BRANCH  28  31
ATOM     30  C   UNL     1      38.348  -2.539  18.533  0.00  0.00    +0.000 C 
ATOM     31  C   UNL     1      37.688  -1.741  17.483  0.00  0.00    +0.000 C 
ENDBRANCH  28  31
ENDBRANCH  22  28
ENDBRANCH  19  25
ENDBRANCH   1  20
TORSDOF 6
ENDMDL
MODEL 8
REMARK VINA RESULT:      -7.0      1.478      1.801
REMARK  Name = 
REMARK  6 active torsions:
REMARK  status: ('A' for Active; 'I' for Inactive)
REMARK    1  A    between atoms: C_2  and  C_3
REMARK    2  A    between atoms: C_3  and  C_5
REMARK    3  A    between atoms: C_8  and  N_9
REMARK    4  A    between atoms: C_10  and  C_12
REMARK    5  A    between atoms: C_16  and  C_17
REMARK    6  A    between atoms: C_21  and  O_22
REMARK                            x       y       z     vdW  Elec       q    Type
REMARK                         _______ _______ _______ _____ _____    ______ ____
ROOT
ATOM      1  C   UNL     1      38.131   4.623  12.296  0.00  0.00    +0.000 A 
ATOM      2  S   UNL     1      38.403   3.282  11.264  0.00  0.00    +0.000 S 
ATOM      3  C   UNL     1      37.389   3.720   9.965  0.00  0.00    +0.000 A 
ATOM      4  N   UNL     1      37.095   3.121   8.768  0.00  0.00    +0.000 NA
ATOM      5  C   UNL     1      36.245   3.674   7.890  0.00  0.00    +0.000 A 
ATOM      6  C   UNL     1      35.697   4.870   8.268  0.00  0.00    +0.000 A 
ATOM      7  C   UNL     1      35.966   5.499   9.453  0.00  0.00    +0.000 A 
ATOM      8  C   UNL     1      36.864   4.903  10.370  0.00  0.00    +0.000 A 
ATOM      9  C   UNL     1      37.245   5.381  11.584  0.00  0.00    +0.000 A 
ATOM     10  N   UNL     1      36.775   6.637  12.168  0.00  0.00    +0.000 NA
ENDROOT
BRANCH   5  11
ATOM     11  C   UNL     1      35.903   3.077   6.609  0.00  0.00    +0.000 A 
ATOM     12  C   UNL     1      36.204   1.771   6.295  0.00  0.00    +0.000 A 
ATOM     13  C   UNL     1      35.880   1.199   5.079  0.00  0.00    +0.000 A 
ATOM     14  C   UNL     1      35.233   1.943   4.137  0.00  0.00    +0.000 A 
ATOM     15  C   UNL     1      34.913   3.247   4.408  0.00  0.00    +0.000 A 
ATOM     16  C   UNL     1      35.242   3.800   5.619  0.00  0.00    +0.000 A 
BRANCH  15  17
ATOM     17  O   UNL     1      34.262   3.991   3.455  0.00  0.00    +0.000 OA
ATOM     18  C   UNL     1      33.710   3.478   2.281  0.00  0.00    +0.000 C 
ENDBRANCH  15  17
ENDBRANCH   5  11
BRANCH   1  20
ATOM     19  N   UNL     1      37.882   5.197  14.697  0.00  0.00    +0.000 NA
ATOM     20  C   UNL     1      38.711   4.876  13.608  0.00  0.00    +0.000 C 
ATOM     21  O   UNL     1      39.938   4.806  13.756  0.00  0.00    +0.000 OA
BRANCH  19  25
ATOM     22  C   UNL     1      39.384   6.137  18.485  0.00  0.00    +0.000 A 
ATOM     23  C   UNL     1      38.868   4.897  18.265  0.00  0.00    +0.000 A 
ATOM     24  C   UNL     1      38.352   4.535  17.010  0.00  0.00    +0.000 A 
ATOM     25  C   UNL     1      38.376   5.456  16.007  0.00  0.00    +0.000 A 
ATOM     26  C   UNL     1      38.896   6.697  16.241  0.00  0.00    +0.000 A 
ATOM     27  C   UNL     1      39.412   7.061  17.494  0.00  0.00    +0.000 A 
BRANCH  22  28
ATOM     28  C   UNL     1      39.950   6.472  19.910  0.00  0.00    +0.000 C 
ATOM     29  C   UNL     1      41.529   6.566  19.442  0.00  0.00    +0.000 C 
BRANCH  28  31
ATOM     30  C   UNL     1      38.564   8.449  20.689  0.00  0.00    +0.000 C 
ATOM     31  C   UNL     1      39.707   8.097  19.827  0.00  0.00    +0.000 C 
ENDBRANCH  28  31
ENDBRANCH  22  28
ENDBRANCH  19  25
ENDBRANCH   1  20
TORSDOF 6
ENDMDL
MODEL 9
REMARK VINA RESULT:      -7.0     17.537     22.130
REMARK  Name = 
REMARK  6 active torsions:
REMARK  status: ('A' for Active; 'I' for Inactive)
REMARK    1  A    between atoms: C_2  and  C_3
REMARK    2  A    between atoms: C_3  and  C_5
REMARK    3  A    between atoms: C_8  and  N_9
REMARK    4  A    between atoms: C_10  and  C_12
REMARK    5  A    between atoms: C_16  and  C_17
REMARK    6  A    between atoms: C_21  and  O_22
REMARK                            x       y       z     vdW  Elec       q    Type
REMARK                         _______ _______ _______ _____ _____    ______ ____
ROOT
ATOM      1  C   UNL     1      25.788  18.288  21.032  0.00  0.00    +0.000 A 
ATOM      2  S   UNL     1      26.694  16.844  21.205  0.00  0.00    +0.000 S 
ATOM      3  C   UNL     1      28.183  17.507  21.703  0.00  0.00    +0.000 A 
ATOM      4  N   UNL     1      29.391  16.948  22.030  0.00  0.00    +0.000 NA
ATOM      5  C   UNL     1      30.441  17.696  22.400  0.00  0.00    +0.000 A 
ATOM      6  C   UNL     1      30.224  19.048  22.429  0.00  0.00    +0.000 A 
ATOM      7  C   UNL     1      29.035  19.643  22.111  0.00  0.00    +0.000 A 
ATOM      8  C   UNL     1      27.936  18.841  21.722  0.00  0.00    +0.000 A 
ATOM      9  C   UNL     1      26.690  19.256  21.373  0.00  0.00    +0.000 A 
ATOM     10  N   UNL     1      26.259  20.654  21.341  0.00  0.00    +0.000 NA
ENDROOT
BRANCH   5  11
ATOM     11  C   UNL     1      31.740  17.149  22.756  0.00  0.00    +0.000 A 
ATOM     12  C   UNL     1      32.157  17.014  24.061  0.00  0.00    +0.000 A 
ATOM     13  C   UNL     1      33.392  16.494  24.402  0.00  0.00    +0.000 A 
ATOM     14  C   UNL     1      34.247  16.091  23.420  0.00  0.00    +0.000 A 
ATOM     15  C   UNL     1      33.872  16.206  22.108  0.00  0.00    +0.000 A 
ATOM     16  C   UNL     1      32.645  16.724  21.785  0.00  0.00    +0.000 A 
BRANCH  15  17
ATOM     17  O   UNL     1      34.738  15.798  21.123  0.00  0.00    +0.000 OA
ATOM     18  C   UNL     1      35.157  16.588  20.052  0.00  0.00    +0.000 C 
ENDBRANCH  15  17
ENDBRANCH   5  11
BRANCH   1  20
ATOM     19  N   UNL     1      24.084  19.034  19.390  0.00  0.00    +0.000 NA
ATOM     20  C   UNL     1      24.398  18.431  20.620  0.00  0.00    +0.000 C 
ATOM     21  O   UNL     1      23.498  18.017  21.362  0.00  0.00    +0.000 OA
BRANCH  19  25
ATOM     22  C   UNL     1      20.168  19.719  18.092  0.00  0.00    +0.000 A 
ATOM     23  C   UNL     1      20.753  18.519  17.829  0.00  0.00    +0.000 A 
ATOM     24  C   UNL     1      22.066  18.242  18.244  0.00  0.00    +0.000 A 
ATOM     25  C   UNL     1      22.750  19.206  18.921  0.00  0.00    +0.000 A 
ATOM     26  C   UNL     1      22.152  20.406  19.179  0.00  0.00    +0.000 A 
ATOM     27  C   UNL     1      20.839  20.684  18.765  0.00  0.00    +0.000 A 
BRANCH  22  28
ATOM     28  C   UNL     1      18.696  19.959  17.605  0.00  0.00    +0.000 C 
ATOM     29  C   UNL     1      19.004  19.687  16.007  0.00  0.00    +0.000 C 
BRANCH  28  31
ATOM     30  C   UNL     1      17.518  18.385  19.209  0.00  0.00    +0.000 C 
ATOM     31  C   UNL     1      18.159  18.429  17.882  0.00  0.00    +0.000 C 
ENDBRANCH  28  31
ENDBRANCH  22  28
ENDBRANCH  19  25
ENDBRANCH   1  20
TORSDOF 6
ENDMDL
MODEL 10
REMARK VINA RESULT:      -7.0     21.016     24.079
REMARK  Name = 
REMARK  6 active torsions:
REMARK  status: ('A' for Active; 'I' for Inactive)
REMARK    1  A    between atoms: C_2  and  C_3
REMARK    2  A    between atoms: C_3  and  C_5
REMARK    3  A    between atoms: C_8  and  N_9
REMARK    4  A    between atoms: C_10  and  C_12
REMARK    5  A    between atoms: C_16  and  C_17
REMARK    6  A    between atoms: C_21  and  O_22
REMARK                            x       y       z     vdW  Elec       q    Type
REMARK                         _______ _______ _______ _____ _____    ______ ____
ROOT
ATOM      1  C   UNL     1      18.758  -0.048   2.959  0.00  0.00    +0.000 A 
ATOM      2  S   UNL     1      18.829  -1.753   2.799  0.00  0.00    +0.000 S 
ATOM      3  C   UNL     1      17.719  -2.193   4.016  0.00  0.00    +0.000 A 
ATOM      4  N   UNL     1      17.262  -3.404   4.468  0.00  0.00    +0.000 NA
ATOM      5  C   UNL     1      16.366  -3.496   5.463  0.00  0.00    +0.000 A 
ATOM      6  C   UNL     1      15.943  -2.305   5.991  0.00  0.00    +0.000 A 
ATOM      7  C   UNL     1      16.375  -1.079   5.566  0.00  0.00    +0.000 A 
ATOM      8  C   UNL     1      17.320  -0.998   4.517  0.00  0.00    +0.000 A 
ATOM      9  C   UNL     1      17.858   0.126   3.972  0.00  0.00    +0.000 A 
ATOM     10  N   UNL     1      17.537   1.489   4.393  0.00  0.00    +0.000 NA
ENDROOT
BRANCH   5  11
ATOM     11  C   UNL     1      15.853  -4.755   5.976  0.00  0.00    +0.000 A 
ATOM     12  C   UNL     1      16.121  -5.203   7.250  0.00  0.00    +0.000 A 
ATOM     13  C   UNL     1      15.636  -6.400   7.741  0.00  0.00    +0.000 A 
ATOM     14  C   UNL     1      14.854  -7.185   6.947  0.00  0.00    +0.000 A 
ATOM     15  C   UNL     1      14.561  -6.779   5.672  0.00  0.00    +0.000 A 
ATOM     16  C   UNL     1      15.051  -5.589   5.199  0.00  0.00    +0.000 A 
BRANCH  15  17
ATOM     17  O   UNL     1      13.774  -7.574   4.877  0.00  0.00    +0.000 OA
ATOM     18  C   UNL     1      12.627  -8.244   5.304  0.00  0.00    +0.000 C 
ENDBRANCH  15  17
ENDBRANCH   5  11
BRANCH   1  20
ATOM     19  N   UNL     1      19.285   1.070   0.808  0.00  0.00    +0.000 NA
ATOM     20  C   UNL     1      19.487   0.955   2.194  0.00  0.00    +0.000 C 
ATOM     21  O   UNL     1      20.284   1.702   2.774  0.00  0.00    +0.000 OA
BRANCH  19  25
ATOM     22  C   UNL     1      21.130   4.010  -1.526  0.00  0.00    +0.000 A 
ATOM     23  C   UNL     1      21.674   2.763  -1.478  0.00  0.00    +0.000 A 
ATOM     24  C   UNL     1      21.090   1.743  -0.708  0.00  0.00    +0.000 A 
ATOM     25  C   UNL     1      19.960   2.027  -0.004  0.00  0.00    +0.000 A 
ATOM     26  C   UNL     1      19.423   3.282  -0.061  0.00  0.00    +0.000 A 
ATOM     27  C   UNL     1      20.005   4.302  -0.830  0.00  0.00    +0.000 A 
BRANCH  22  28
ATOM     28  C   UNL     1      21.829   5.099  -2.412  0.00  0.00    +0.000 C 
ATOM     29  C   UNL     1      23.372   4.673  -2.012  0.00  0.00    +0.000 C 
BRANCH  28  31
ATOM     30  C   UNL     1      20.696   4.679  -4.643  0.00  0.00    +0.000 C 
ATOM     31  C   UNL     1      21.827   4.231  -3.809  0.00  0.00    +0.000 C 
ENDBRANCH  28  31
ENDBRANCH  22  28
ENDBRANCH  19  25
ENDBRANCH   1  20
TORSDOF 6
ENDMDL
