MODEL 1
REMARK VINA RESULT:      -8.0      0.000      0.000
REMARK  Name = 
REMARK  3 active torsions:
REMARK  status: ('A' for Active; 'I' for Inactive)
REMARK    1  A    between atoms: C_4  and  N_5
REMARK    2  A    between atoms: N_5  and  N_6
REMARK    3  A    between atoms: C_7  and  C_9
REMARK                            x       y       z     vdW  Elec       q    Type
REMARK                         _______ _______ _______ _____ _____    ______ ____
ROOT
ATOM      1  N   UNL     1      16.705  11.839  34.130  0.00  0.00    +0.000 NA
ENDROOT
BRANCH   1   5
ATOM      2  C   UNL     1      15.906  10.545  31.063  0.00  0.00    +0.000 C 
ATOM      3  C   UNL     1      15.950  11.961  31.792  0.00  0.00    +0.000 C 
ATOM      4  C   UNL     1      15.003  11.489  33.212  0.00  0.00    +0.000 C 
ATOM      5  C   UNL     1      15.508  11.686  33.386  0.00  0.00    +0.000 C 
ATOM      6  C   UNL     1      14.935  12.255  32.351  0.00  0.00    +0.000 C 
ATOM      7  C   UNL     1      14.770  13.162  31.260  0.00  0.00    +0.000 C 
ATOM      8  C   UNL     1      14.026  14.435  31.734  0.00  0.00    +0.000 C 
ATOM      9  C   UNL     1      15.879  13.626  30.341  0.00  0.00    +0.000 C 
ATOM     10  C   UNL     1      14.421  12.387  31.213  0.00  0.00    +0.000 C 
ENDBRANCH   1   5
BRANCH   1  11
ATOM     11  N   UNL     1      16.802  11.496  35.442  0.00  0.00    +0.000 NA
ATOM     12  C   UNL     1      17.425  10.324  35.853  0.00  0.00    +0.000 C 
ATOM     13  O   UNL     1      17.902   9.556  34.971  0.00  0.00    +0.000 OA
BRANCH  12  14
ATOM     14  C   UNL     1      17.535   9.979  37.267  0.00  0.00    +0.000 A 
ATOM     15  C   UNL     1      18.587   9.221  37.729  0.00  0.00    +0.000 A 
ATOM     16  C   UNL     1      18.698   8.875  39.063  0.00  0.00    +0.000 A 
ATOM     17  C   UNL     1      17.742   9.289  39.964  0.00  0.00    +0.000 A 
ATOM     18  C   UNL     1      16.679  10.057  39.482  0.00  0.00    +0.000 A 
ATOM     19  C   UNL     1      16.589  10.391  38.153  0.00  0.00    +0.000 A 
ENDBRANCH  12  14
ENDBRANCH   1  11
TORSDOF 3
ENDMDL
MODEL 2
REMARK VINA RESULT:      -7.5      1.302      7.250
REMARK  Name = 
REMARK  3 active torsions:
REMARK  status: ('A' for Active; 'I' for Inactive)
REMARK    1  A    between atoms: C_4  and  N_5
REMARK    2  A    between atoms: N_5  and  N_6
REMARK    3  A    between atoms: C_7  and  C_9
REMARK                            x       y       z     vdW  Elec       q    Type
REMARK                         _______ _______ _______ _____ _____    ______ ____
ROOT
ATOM      1  N   UNL     1      16.721  10.411  35.650  0.00  0.00    +0.000 NA
ENDROOT
BRANCH   1   5
ATOM      2  C   UNL     1      18.552  12.483  37.669  0.00  0.00    +0.000 C 
ATOM      3  C   UNL     1      18.450  10.931  37.321  0.00  0.00    +0.000 C 
ATOM      4  C   UNL     1      16.704  10.779  37.580  0.00  0.00    +0.000 C 
ATOM      5  C   UNL     1      16.825  10.614  37.049  0.00  0.00    +0.000 C 
ATOM      6  C   UNL     1      17.678  10.327  38.006  0.00  0.00    +0.000 C 
ATOM      7  C   UNL     1      18.858   9.802  38.615  0.00  0.00    +0.000 C 
ATOM      8  C   UNL     1      18.610   8.348  39.089  0.00  0.00    +0.000 C 
ATOM      9  C   UNL     1      20.240   9.826  37.997  0.00  0.00    +0.000 C 
ATOM     10  C   UNL     1      18.486  10.491  38.951  0.00  0.00    +0.000 C 
ENDBRANCH   1   5
BRANCH   1  11
ATOM     11  N   UNL     1      15.995  11.229  34.842  0.00  0.00    +0.000 NA
ATOM     12  C   UNL     1      16.112  11.189  33.458  0.00  0.00    +0.000 C 
ATOM     13  O   UNL     1      16.928  10.372  32.946  0.00  0.00    +0.000 OA
BRANCH  12  14
ATOM     14  C   UNL     1      15.314  12.064  32.604  0.00  0.00    +0.000 A 
ATOM     15  C   UNL     1      14.500  13.032  33.148  0.00  0.00    +0.000 A 
ATOM     16  C   UNL     1      13.728  13.858  32.353  0.00  0.00    +0.000 A 
ATOM     17  C   UNL     1      13.762  13.724  30.982  0.00  0.00    +0.000 A 
ATOM     18  C   UNL     1      14.592  12.737  30.443  0.00  0.00    +0.000 A 
ATOM     19  C   UNL     1      15.350  11.927  31.251  0.00  0.00    +0.000 A 
ENDBRANCH  12  14
ENDBRANCH   1  11
TORSDOF 3
ENDMDL
MODEL 3
REMARK VINA RESULT:      -6.9     27.394     30.019
REMARK  Name = 
REMARK  3 active torsions:
REMARK  status: ('A' for Active; 'I' for Inactive)
REMARK    1  A    between atoms: C_4  and  N_5
REMARK    2  A    between atoms: N_5  and  N_6
REMARK    3  A    between atoms: C_7  and  C_9
REMARK                            x       y       z     vdW  Elec       q    Type
REMARK                         _______ _______ _______ _____ _____    ______ ____
ROOT
ATOM      1  N   UNL     1      31.956  20.731  12.513  0.00  0.00    +0.000 NA
ENDROOT
BRANCH   1   5
ATOM      2  C   UNL     1      35.172  20.116  11.515  0.00  0.00    +0.000 C 
ATOM      3  C   UNL     1      34.036  21.209  11.289  0.00  0.00    +0.000 C 
ATOM      4  C   UNL     1      32.750  20.076  10.840  0.00  0.00    +0.000 C 
ATOM      5  C   UNL     1      32.577  20.381  11.288  0.00  0.00    +0.000 C 
ATOM      6  C   UNL     1      33.307  20.973  10.371  0.00  0.00    +0.000 C 
ATOM      7  C   UNL     1      34.024  22.025   9.723  0.00  0.00    +0.000 C 
ATOM      8  C   UNL     1      33.088  22.787   8.752  0.00  0.00    +0.000 C 
ATOM      9  C   UNL     1      34.858  23.072  10.430  0.00  0.00    +0.000 C 
ATOM     10  C   UNL     1      34.279  21.220   9.617  0.00  0.00    +0.000 C 
ENDBRANCH   1   5
BRANCH   1  11
ATOM     11  N   UNL     1      30.646  21.086  12.597  0.00  0.00    +0.000 NA
ATOM     12  C   UNL     1      30.202  22.354  12.244  0.00  0.00    +0.000 C 
ATOM     13  O   UNL     1      31.053  23.200  11.845  0.00  0.00    +0.000 OA
BRANCH  12  14
ATOM     14  C   UNL     1      28.790  22.714  12.325  0.00  0.00    +0.000 A 
ATOM     15  C   UNL     1      28.319  23.499  13.353  0.00  0.00    +0.000 A 
ATOM     16  C   UNL     1      26.982  23.836  13.450  0.00  0.00    +0.000 A 
ATOM     17  C   UNL     1      26.086  23.385  12.506  0.00  0.00    +0.000 A 
ATOM     18  C   UNL     1      26.577  22.588  11.468  0.00  0.00    +0.000 A 
ATOM     19  C   UNL     1      27.909  22.265  11.390  0.00  0.00    +0.000 A 
ENDBRANCH  12  14
ENDBRANCH   1  11
TORSDOF 3
ENDMDL
MODEL 4
REMARK VINA RESULT:      -6.5     18.317     21.233
REMARK  Name = 
REMARK  3 active torsions:
REMARK  status: ('A' for Active; 'I' for Inactive)
REMARK    1  A    between atoms: C_4  and  N_5
REMARK    2  A    between atoms: N_5  and  N_6
REMARK    3  A    between atoms: C_7  and  C_9
REMARK                            x       y       z     vdW  Elec       q    Type
REMARK                         _______ _______ _______ _____ _____    ______ ____
ROOT
ATOM      1  N   UNL     1      32.971  -0.420  33.838  0.00  0.00    +0.000 NA
ENDROOT
BRANCH   1   5
ATOM      2  C   UNL     1      33.592  -3.658  32.916  0.00  0.00    +0.000 C 
ATOM      3  C   UNL     1      33.083  -2.852  34.193  0.00  0.00    +0.000 C 
ATOM      4  C   UNL     1      34.417  -1.687  34.242  0.00  0.00    +0.000 C 
ATOM      5  C   UNL     1      33.926  -1.402  34.202  0.00  0.00    +0.000 C 
ATOM      6  C   UNL     1      33.958  -2.497  34.926  0.00  0.00    +0.000 C 
ATOM      7  C   UNL     1      33.473  -3.542  35.770  0.00  0.00    +0.000 C 
ATOM      8  C   UNL     1      33.661  -3.155  37.258  0.00  0.00    +0.000 C 
ATOM      9  C   UNL     1      32.106  -4.184  35.660  0.00  0.00    +0.000 C 
ATOM     10  C   UNL     1      34.109  -3.706  35.228  0.00  0.00    +0.000 C 
ENDBRANCH   1   5
BRANCH   1  11
ATOM     11  N   UNL     1      32.991   0.845  34.336  0.00  0.00    +0.000 NA
ATOM     12  C   UNL     1      33.540   1.907  33.628  0.00  0.00    +0.000 C 
ATOM     13  O   UNL     1      34.043   1.676  32.492  0.00  0.00    +0.000 OA
BRANCH  12  14
ATOM     14  C   UNL     1      33.540   3.261  34.171  0.00  0.00    +0.000 A 
ATOM     15  C   UNL     1      34.211   3.555  35.337  0.00  0.00    +0.000 A 
ATOM     16  C   UNL     1      34.209   4.830  35.870  0.00  0.00    +0.000 A 
ATOM     17  C   UNL     1      33.524   5.843  35.235  0.00  0.00    +0.000 A 
ATOM     18  C   UNL     1      32.846   5.531  34.053  0.00  0.00    +0.000 A 
ATOM     19  C   UNL     1      32.862   4.257  33.540  0.00  0.00    +0.000 A 
ENDBRANCH  12  14
ENDBRANCH   1  11
TORSDOF 3
ENDMDL
MODEL 5
REMARK VINA RESULT:      -6.4     18.758     21.547
REMARK  Name = 
REMARK  3 active torsions:
REMARK  status: ('A' for Active; 'I' for Inactive)
REMARK    1  A    between atoms: C_4  and  N_5
REMARK    2  A    between atoms: N_5  and  N_6
REMARK    3  A    between atoms: C_7  and  C_9
REMARK                            x       y       z     vdW  Elec       q    Type
REMARK                         _______ _______ _______ _____ _____    ______ ____
ROOT
ATOM      1  N   UNL     1      34.292  -0.862  34.129  0.00  0.00    +0.000 NA
ENDROOT
BRANCH   1   5
ATOM      2  C   UNL     1      33.300  -3.383  36.223  0.00  0.00    +0.000 C 
ATOM      3  C   UNL     1      33.973  -3.211  34.789  0.00  0.00    +0.000 C 
ATOM      4  C   UNL     1      32.764  -2.096  34.129  0.00  0.00    +0.000 C 
ATOM      5  C   UNL     1      33.275  -1.849  34.100  0.00  0.00    +0.000 C 
ATOM      6  C   UNL     1      33.190  -3.142  33.887  0.00  0.00    +0.000 C 
ATOM      7  C   UNL     1      33.632  -4.470  33.599  0.00  0.00    +0.000 C 
ATOM      8  C   UNL     1      33.587  -4.725  32.072  0.00  0.00    +0.000 C 
ATOM      9  C   UNL     1      34.919  -5.086  34.103  0.00  0.00    +0.000 C 
ATOM     10  C   UNL     1      32.946  -4.356  34.091  0.00  0.00    +0.000 C 
ENDBRANCH   1   5
BRANCH   1  11
ATOM     11  N   UNL     1      34.072   0.406  34.566  0.00  0.00    +0.000 NA
ATOM     12  C   UNL     1      33.909   1.470  33.687  0.00  0.00    +0.000 C 
ATOM     13  O   UNL     1      33.982   1.242  32.447  0.00  0.00    +0.000 OA
BRANCH  12  14
ATOM     14  C   UNL     1      33.657   2.823  34.172  0.00  0.00    +0.000 A 
ATOM     15  C   UNL     1      33.053   3.762  33.366  0.00  0.00    +0.000 A 
ATOM     16  C   UNL     1      32.820   5.051  33.807  0.00  0.00    +0.000 A 
ATOM     17  C   UNL     1      33.195   5.423  35.080  0.00  0.00    +0.000 A 
ATOM     18  C   UNL     1      33.807   4.461  35.888  0.00  0.00    +0.000 A 
ATOM     19  C   UNL     1      34.029   3.186  35.430  0.00  0.00    +0.000 A 
ENDBRANCH  12  14
ENDBRANCH   1  11
TORSDOF 3
ENDMDL
MODEL 6
REMARK VINA RESULT:      -6.4     27.570     30.358
REMARK  Name = 
REMARK  3 active torsions:
REMARK  status: ('A' for Active; 'I' for Inactive)
REMARK    1  A    between atoms: C_4  and  N_5
REMARK    2  A    between atoms: N_5  and  N_6
REMARK    3  A    between atoms: C_7  and  C_9
REMARK                            x       y       z     vdW  Elec       q    Type
REMARK                         _______ _______ _______ _____ _____    ______ ____
ROOT
ATOM      1  N   UNL     1      31.840  21.163  11.091  0.00  0.00    +0.000 NA
ENDROOT
BRANCH   1   5
ATOM      2  C   UNL     1      33.774  21.860   8.353  0.00  0.00    +0.000 C 
ATOM      3  C   UNL     1      33.881  21.050   9.721  0.00  0.00    +0.000 C 
ATOM      4  C   UNL     1      33.359  22.370  10.781  0.00  0.00    +0.000 C 
ATOM      5  C   UNL     1      33.012  21.926  10.858  0.00  0.00    +0.000 C 
ATOM      6  C   UNL     1      34.286  21.697  10.641  0.00  0.00    +0.000 C 
ATOM      7  C   UNL     1      35.484  20.941  10.453  0.00  0.00    +0.000 C 
ATOM      8  C   UNL     1      36.191  20.717  11.812  0.00  0.00    +0.000 C 
ATOM      9  C   UNL     1      35.575  19.632   9.698  0.00  0.00    +0.000 C 
ATOM     10  C   UNL     1      35.403  21.696  10.068  0.00  0.00    +0.000 C 
ENDBRANCH   1   5
BRANCH   1  11
ATOM     11  N   UNL     1      30.600  21.718  11.138  0.00  0.00    +0.000 NA
ATOM     12  C   UNL     1      29.963  21.996  12.342  0.00  0.00    +0.000 C 
ATOM     13  O   UNL     1      30.559  21.708  13.418  0.00  0.00    +0.000 OA
BRANCH  12  14
ATOM     14  C   UNL     1      28.638  22.606  12.375  0.00  0.00    +0.000 A 
ATOM     15  C   UNL     1      27.710  22.337  11.394  0.00  0.00    +0.000 A 
ATOM     16  C   UNL     1      26.456  22.918  11.405  0.00  0.00    +0.000 A 
ATOM     17  C   UNL     1      26.109  23.790  12.413  0.00  0.00    +0.000 A 
ATOM     18  C   UNL     1      27.060  24.056  13.402  0.00  0.00    +0.000 A 
ATOM     19  C   UNL     1      28.300  23.467  13.373  0.00  0.00    +0.000 A 
ENDBRANCH  12  14
ENDBRANCH   1  11
TORSDOF 3
ENDMDL
MODEL 7
REMARK VINA RESULT:      -6.4     19.732     21.051
REMARK  Name = 
REMARK  3 active torsions:
REMARK  status: ('A' for Active; 'I' for Inactive)
REMARK    1  A    between atoms: C_4  and  N_5
REMARK    2  A    between atoms: N_5  and  N_6
REMARK    3  A    between atoms: C_7  and  C_9
REMARK                            x       y       z     vdW  Elec       q    Type
REMARK                         _______ _______ _______ _____ _____    ______ ____
ROOT
ATOM      1  N   UNL     1      25.094   4.061  16.825  0.00  0.00    +0.000 NA
ENDROOT
BRANCH   1   5
ATOM      2  C   UNL     1      26.486   6.909  15.530  0.00  0.00    +0.000 C 
ATOM      3  C   UNL     1      26.811   5.814  16.642  0.00  0.00    +0.000 C 
ATOM      4  C   UNL     1      25.253   5.907  17.480  0.00  0.00    +0.000 C 
ATOM      5  C   UNL     1      25.338   5.370  17.312  0.00  0.00    +0.000 C 
ATOM      6  C   UNL     1      26.370   6.070  17.723  0.00  0.00    +0.000 C 
ATOM      7  C   UNL     1      27.730   6.361  18.046  0.00  0.00    +0.000 C 
ATOM      8  C   UNL     1      28.010   6.018  19.530  0.00  0.00    +0.000 C 
ATOM      9  C   UNL     1      28.931   5.884  17.258  0.00  0.00    +0.000 C 
ATOM     10  C   UNL     1      27.221   6.991  17.782  0.00  0.00    +0.000 C 
ENDBRANCH   1   5
BRANCH   1  11
ATOM     11  N   UNL     1      23.841   3.587  16.592  0.00  0.00    +0.000 NA
ATOM     12  C   UNL     1      23.181   2.772  17.503  0.00  0.00    +0.000 C 
ATOM     13  O   UNL     1      23.777   2.460  18.573  0.00  0.00    +0.000 OA
BRANCH  12  14
ATOM     14  C   UNL     1      21.830   2.284  17.245  0.00  0.00    +0.000 A 
ATOM     15  C   UNL     1      20.755   2.772  17.953  0.00  0.00    +0.000 A 
ATOM     16  C   UNL     1      19.472   2.309  17.728  0.00  0.00    +0.000 A 
ATOM     17  C   UNL     1      19.245   1.337  16.778  0.00  0.00    +0.000 A 
ATOM     18  C   UNL     1      20.345   0.850  16.067  0.00  0.00    +0.000 A 
ATOM     19  C   UNL     1      21.612   1.324  16.305  0.00  0.00    +0.000 A 
ENDBRANCH  12  14
ENDBRANCH   1  11
TORSDOF 3
ENDMDL
MODEL 8
REMARK VINA RESULT:      -6.3     22.469     25.416
REMARK  Name = 
REMARK  3 active torsions:
REMARK  status: ('A' for Active; 'I' for Inactive)
REMARK    1  A    between atoms: C_4  and  N_5
REMARK    2  A    between atoms: N_5  and  N_6
REMARK    3  A    between atoms: C_7  and  C_9
REMARK                            x       y       z     vdW  Elec       q    Type
REMARK                         _______ _______ _______ _____ _____    ______ ____
ROOT
ATOM      1  N   UNL     1      30.178  26.755  19.623  0.00  0.00    +0.000 NA
ENDROOT
BRANCH   1   5
ATOM      2  C   UNL     1      30.916  27.494  16.362  0.00  0.00    +0.000 C 
ATOM      3  C   UNL     1      31.528  27.734  17.814  0.00  0.00    +0.000 C 
ATOM      4  C   UNL     1      30.057  28.395  18.548  0.00  0.00    +0.000 C 
ATOM      5  C   UNL     1      30.223  27.941  18.848  0.00  0.00    +0.000 C 
ATOM      6  C   UNL     1      31.144  28.733  18.347  0.00  0.00    +0.000 C 
ATOM      7  C   UNL     1      32.452  29.220  18.047  0.00  0.00    +0.000 C 
ATOM      8  C   UNL     1      32.917  30.208  19.146  0.00  0.00    +0.000 C 
ATOM      9  C   UNL     1      33.647  28.353  17.712  0.00  0.00    +0.000 C 
ATOM     10  C   UNL     1      31.817  29.369  17.500  0.00  0.00    +0.000 C 
ENDBRANCH   1   5
BRANCH   1  11
ATOM     11  N   UNL     1      29.224  26.530  20.565  0.00  0.00    +0.000 NA
ATOM     12  C   UNL     1      29.038  25.279  21.141  0.00  0.00    +0.000 C 
ATOM     13  O   UNL     1      29.776  24.327  20.760  0.00  0.00    +0.000 OA
BRANCH  12  14
ATOM     14  C   UNL     1      28.020  25.059  22.163  0.00  0.00    +0.000 A 
ATOM     15  C   UNL     1      27.716  26.039  23.080  0.00  0.00    +0.000 A 
ATOM     16  C   UNL     1      26.764  25.840  24.062  0.00  0.00    +0.000 A 
ATOM     17  C   UNL     1      26.094  24.638  24.140  0.00  0.00    +0.000 A 
ATOM     18  C   UNL     1      26.413  23.651  23.203  0.00  0.00    +0.000 A 
ATOM     19  C   UNL     1      27.362  23.870  22.235  0.00  0.00    +0.000 A 
ENDBRANCH  12  14
ENDBRANCH   1  11
TORSDOF 3
ENDMDL
MODEL 9
REMARK VINA RESULT:      -6.1      2.543      8.532
REMARK  Name = 
REMARK  3 active torsions:
REMARK  status: ('A' for Active; 'I' for Inactive)
REMARK    1  A    between atoms: C_4  and  N_5
REMARK    2  A    between atoms: N_5  and  N_6
REMARK    3  A    between atoms: C_7  and  C_9
REMARK                            x       y       z     vdW  Elec       q    Type
REMARK                         _______ _______ _______ _____ _____    ______ ____
ROOT
ATOM      1  N   UNL     1      16.912  10.022  39.674  0.00  0.00    +0.000 NA
ENDROOT
BRANCH   1   5
ATOM      2  C   UNL     1      16.560  10.017  43.080  0.00  0.00    +0.000 C 
ATOM      3  C   UNL     1      17.156   9.082  41.935  0.00  0.00    +0.000 C 
ATOM      4  C   UNL     1      15.712   9.074  40.908  0.00  0.00    +0.000 C 
ATOM      5  C   UNL     1      16.152   9.268  40.603  0.00  0.00    +0.000 C 
ATOM      6  C   UNL     1      16.367   8.310  41.475  0.00  0.00    +0.000 C 
ATOM      7  C   UNL     1      17.101   7.342  42.226  0.00  0.00    +0.000 C 
ATOM      8  C   UNL     1      17.098   5.981  41.487  0.00  0.00    +0.000 C 
ATOM      9  C   UNL     1      18.503   7.539  42.763  0.00  0.00    +0.000 C 
ATOM     10  C   UNL     1      16.414   7.706  42.574  0.00  0.00    +0.000 C 
ENDBRANCH   1   5
BRANCH   1  11
ATOM     11  N   UNL     1      16.462  10.318  38.426  0.00  0.00    +0.000 NA
ATOM     12  C   UNL     1      17.328  10.529  37.361  0.00  0.00    +0.000 C 
ATOM     13  O   UNL     1      18.572  10.452  37.573  0.00  0.00    +0.000 OA
BRANCH  12  14
ATOM     14  C   UNL     1      16.828  10.831  36.024  0.00  0.00    +0.000 A 
ATOM     15  C   UNL     1      15.788  11.714  35.841  0.00  0.00    +0.000 A 
ATOM     16  C   UNL     1      15.294  12.000  34.582  0.00  0.00    +0.000 A 
ATOM     17  C   UNL     1      15.843  11.395  33.473  0.00  0.00    +0.000 A 
ATOM     18  C   UNL     1      16.897  10.499  33.672  0.00  0.00    +0.000 A 
ATOM     19  C   UNL     1      17.373  10.231  34.931  0.00  0.00    +0.000 A 
ENDBRANCH  12  14
ENDBRANCH   1  11
TORSDOF 3
ENDMDL
MODEL 10
REMARK VINA RESULT:      -6.1     27.467     30.914
REMARK  Name = 
REMARK  3 active torsions:
REMARK  status: ('A' for Active; 'I' for Inactive)
REMARK    1  A    between atoms: C_4  and  N_5
REMARK    2  A    between atoms: N_5  and  N_6
REMARK    3  A    between atoms: C_7  and  C_9
REMARK                            x       y       z     vdW  Elec       q    Type
REMARK                         _______ _______ _______ _____ _____    ______ ____
ROOT
ATOM      1  N   UNL     1      31.102  20.824   9.498  0.00  0.00    +0.000 NA
ENDROOT
BRANCH   1   5
ATOM      2  C   UNL     1      30.006  19.670   6.467  0.00  0.00    +0.000 C 
ATOM      3  C   UNL     1      31.369  19.784   7.284  0.00  0.00    +0.000 C 
ATOM      4  C   UNL     1      31.236  21.510   7.662  0.00  0.00    +0.000 C 
ATOM      5  C   UNL     1      31.283  21.219   8.149  0.00  0.00    +0.000 C 
ATOM      6  C   UNL     1      31.963  20.806   7.104  0.00  0.00    +0.000 C 
ATOM      7  C   UNL     1      32.845  19.986   6.337  0.00  0.00    +0.000 C 
ATOM      8  C   UNL     1      34.294  20.526   6.435  0.00  0.00    +0.000 C 
ATOM      9  C   UNL     1      32.938  18.478   6.438  0.00  0.00    +0.000 C 
ATOM     10  C   UNL     1      32.204  20.388   5.946  0.00  0.00    +0.000 C 
ENDBRANCH   1   5
BRANCH   1  11
ATOM     11  N   UNL     1      30.085  21.291  10.270  0.00  0.00    +0.000 NA
ATOM     12  C   UNL     1      30.294  22.224  11.278  0.00  0.00    +0.000 C 
ATOM     13  O   UNL     1      31.471  22.636  11.482  0.00  0.00    +0.000 OA
BRANCH  12  14
ATOM     14  C   UNL     1      29.189  22.727  12.087  0.00  0.00    +0.000 A 
ATOM     15  C   UNL     1      27.889  22.641  11.640  0.00  0.00    +0.000 A 
ATOM     16  C   UNL     1      26.834  23.124  12.389  0.00  0.00    +0.000 A 
ATOM     17  C   UNL     1      27.068  23.710  13.614  0.00  0.00    +0.000 A 
ATOM     18  C   UNL     1      28.392  23.792  14.056  0.00  0.00    +0.000 A 
ATOM     19  C   UNL     1      29.426  23.304  13.296  0.00  0.00    +0.000 A 
ENDBRANCH  12  14
ENDBRANCH   1  11
TORSDOF 3
ENDMDL
