MODEL 1
REMARK VINA RESULT:      -7.3      0.000      0.000
REMARK  Name = 
REMARK  4 active torsions:
REMARK  status: ('A' for Active; 'I' for Inactive)
REMARK    1  A    between atoms: C_7  and  N_8
REMARK    2  A    between atoms: N_8  and  C_9
REMARK    3  A    between atoms: C_9  and  C_10
REMARK    4  A    between atoms: C_15  and  N_16
REMARK                            x       y       z     vdW  Elec       q    Type
REMARK                         _______ _______ _______ _____ _____    ______ ____
ROOT
ATOM      1  C   UNL     1      16.728  10.584  35.410  0.00  0.00    +0.000 A 
ATOM      2  C   UNL     1      16.890  10.085  34.135  0.00  0.00    +0.000 A 
ATOM      3  C   UNL     1      16.225  10.618  33.048  0.00  0.00    +0.000 A 
ATOM      4  C   UNL     1      15.381  11.681  33.282  0.00  0.00    +0.000 A 
ATOM      5  C   UNL     1      15.218  12.181  34.561  0.00  0.00    +0.000 A 
ATOM      6  C   UNL     1      15.882  11.649  35.647  0.00  0.00    +0.000 A 
ATOM      7  O   UNL     1      14.866  11.994  32.020  0.00  0.00    +0.000 OA
ATOM      8  C   UNL     1      15.681  11.411  31.023  0.00  0.00    +0.000 C 
ATOM      9  O   UNL     1      16.217  10.302  31.687  0.00  0.00    +0.000 OA
ENDROOT
BRANCH   6  10
ATOM     10  N   UNL     1      15.722  12.159  36.973  0.00  0.00    +0.000 N 
ATOM     11  O   UNL     1      16.488  13.048  37.361  0.00  0.00    +0.000 OA
ATOM     12  O   UNL     1      14.731  11.657  37.782  0.00  0.00    +0.000 OA
ENDBRANCH   6  10
BRANCH   1  13
ATOM     13  C   UNL     1      17.439  10.017  36.578  0.00  0.00    +0.000 C 
BRANCH  13  14
ATOM     14  N   UNL     1      18.716   9.456  36.220  0.00  0.00    +0.000 NA
BRANCH  14  21
ATOM     15  C   UNL     1      23.664   9.853  36.384  0.00  0.00    +0.000 C 
ATOM     16  C   UNL     1      22.296  10.249  36.848  0.00  0.00    +0.000 A 
ATOM     17  C   UNL     1      22.158  11.217  37.829  0.00  0.00    +0.000 A 
ATOM     18  C   UNL     1      20.923  11.617  38.291  0.00  0.00    +0.000 A 
ATOM     19  C   UNL     1      20.789  12.668  39.356  0.00  0.00    +0.000 C 
ATOM     20  C   UNL     1      19.819  11.011  37.732  0.00  0.00    +0.000 A 
ATOM     21  C   UNL     1      19.897  10.041  36.753  0.00  0.00    +0.000 A 
ATOM     22  C   UNL     1      21.156   9.680  36.330  0.00  0.00    +0.000 A 
ENDBRANCH  14  21
ENDBRANCH  13  14
ENDBRANCH   1  13
TORSDOF 4
ENDMDL
MODEL 2
REMARK VINA RESULT:      -6.9     28.473     30.798
REMARK  Name = 
REMARK  4 active torsions:
REMARK  status: ('A' for Active; 'I' for Inactive)
REMARK    1  A    between atoms: C_7  and  N_8
REMARK    2  A    between atoms: N_8  and  C_9
REMARK    3  A    between atoms: C_9  and  C_10
REMARK    4  A    between atoms: C_15  and  N_16
REMARK                            x       y       z     vdW  Elec       q    Type
REMARK                         _______ _______ _______ _____ _____    ______ ____
ROOT
ATOM      1  C   UNL     1      31.983  21.295   9.685  0.00  0.00    +0.000 A 
ATOM      2  C   UNL     1      30.964  21.203   8.761  0.00  0.00    +0.000 A 
ATOM      3  C   UNL     1      31.059  20.400   7.641  0.00  0.00    +0.000 A 
ATOM      4  C   UNL     1      32.223  19.683   7.474  0.00  0.00    +0.000 A 
ATOM      5  C   UNL     1      33.245  19.776   8.400  0.00  0.00    +0.000 A 
ATOM      6  C   UNL     1      33.150  20.578   9.519  0.00  0.00    +0.000 A 
ATOM      7  O   UNL     1      32.025  18.981   6.280  0.00  0.00    +0.000 OA
ATOM      8  C   UNL     1      30.647  18.965   5.969  0.00  0.00    +0.000 C 
ATOM      9  O   UNL     1      30.189  20.137   6.580  0.00  0.00    +0.000 OA
ENDROOT
BRANCH   6  10
ATOM     10  N   UNL     1      34.200  20.680  10.483  0.00  0.00    +0.000 N 
ATOM     11  O   UNL     1      34.336  19.771  11.309  0.00  0.00    +0.000 OA
ATOM     12  O   UNL     1      35.031  21.776  10.475  0.00  0.00    +0.000 OA
ENDBRANCH   6  10
BRANCH   1  13
ATOM     13  C   UNL     1      31.886  22.153  10.888  0.00  0.00    +0.000 C 
BRANCH  13  14
ATOM     14  N   UNL     1      31.003  21.600  11.881  0.00  0.00    +0.000 NA
BRANCH  14  21
ATOM     15  C   UNL     1      28.592  24.960  14.633  0.00  0.00    +0.000 C 
ATOM     16  C   UNL     1      28.629  23.935  13.541  0.00  0.00    +0.000 A 
ATOM     17  C   UNL     1      27.477  23.656  12.823  0.00  0.00    +0.000 A 
ATOM     18  C   UNL     1      27.458  22.723  11.809  0.00  0.00    +0.000 A 
ATOM     19  C   UNL     1      26.201  22.430  11.040  0.00  0.00    +0.000 C 
ATOM     20  C   UNL     1      28.641  22.072  11.535  0.00  0.00    +0.000 A 
ATOM     21  C   UNL     1      29.817  22.310  12.217  0.00  0.00    +0.000 A 
ATOM     22  C   UNL     1      29.779  23.251  13.220  0.00  0.00    +0.000 A 
ENDBRANCH  14  21
ENDBRANCH  13  14
ENDBRANCH   1  13
TORSDOF 4
ENDMDL
MODEL 3
REMARK VINA RESULT:      -6.6      3.288      6.760
REMARK  Name = 
REMARK  4 active torsions:
REMARK  status: ('A' for Active; 'I' for Inactive)
REMARK    1  A    between atoms: C_7  and  N_8
REMARK    2  A    between atoms: N_8  and  C_9
REMARK    3  A    between atoms: C_9  and  C_10
REMARK    4  A    between atoms: C_15  and  N_16
REMARK                            x       y       z     vdW  Elec       q    Type
REMARK                         _______ _______ _______ _____ _____    ______ ____
ROOT
ATOM      1  C   UNL     1      19.737   9.635  37.340  0.00  0.00    +0.000 A 
ATOM      2  C   UNL     1      20.757   9.942  36.465  0.00  0.00    +0.000 A 
ATOM      3  C   UNL     1      22.079   9.974  36.861  0.00  0.00    +0.000 A 
ATOM      4  C   UNL     1      22.353   9.684  38.179  0.00  0.00    +0.000 A 
ATOM      5  C   UNL     1      21.330   9.376  39.058  0.00  0.00    +0.000 A 
ATOM      6  C   UNL     1      20.008   9.345  38.663  0.00  0.00    +0.000 A 
ATOM      7  O   UNL     1      23.744   9.793  38.274  0.00  0.00    +0.000 OA
ATOM      8  C   UNL     1      24.307   9.746  36.978  0.00  0.00    +0.000 C 
ATOM      9  O   UNL     1      23.270  10.250  36.184  0.00  0.00    +0.000 OA
ENDROOT
BRANCH   6  10
ATOM     10  N   UNL     1      18.944   9.026  39.562  0.00  0.00    +0.000 N 
ATOM     11  O   UNL     1      18.634   7.840  39.716  0.00  0.00    +0.000 OA
ATOM     12  O   UNL     1      18.291  10.034  40.231  0.00  0.00    +0.000 OA
ENDBRANCH   6  10
BRANCH   1  13
ATOM     13  C   UNL     1      18.317   9.598  36.922  0.00  0.00    +0.000 C 
BRANCH  13  14
ATOM     14  N   UNL     1      18.173   9.488  35.494  0.00  0.00    +0.000 NA
BRANCH  14  21
ATOM     15  C   UNL     1      15.994  11.144  31.349  0.00  0.00    +0.000 C 
ATOM     16  C   UNL     1      16.117  11.093  32.841  0.00  0.00    +0.000 A 
ATOM     17  C   UNL     1      15.248  11.833  33.627  0.00  0.00    +0.000 A 
ATOM     18  C   UNL     1      15.319  11.821  35.003  0.00  0.00    +0.000 A 
ATOM     19  C   UNL     1      14.370  12.630  35.841  0.00  0.00    +0.000 C 
ATOM     20  C   UNL     1      16.296  11.035  35.572  0.00  0.00    +0.000 A 
ATOM     21  C   UNL     1      17.187  10.277  34.840  0.00  0.00    +0.000 A 
ATOM     22  C   UNL     1      17.072  10.328  33.469  0.00  0.00    +0.000 A 
ENDBRANCH  14  21
ENDBRANCH  13  14
ENDBRANCH   1  13
TORSDOF 4
ENDMDL
MODEL 4
REMARK VINA RESULT:      -6.5     20.678     22.167
REMARK  Name = 
REMARK  4 active torsions:
REMARK  status: ('A' for Active; 'I' for Inactive)
REMARK    1  A    between atoms: C_7  and  N_8
REMARK    2  A    between atoms: N_8  and  C_9
REMARK    3  A    between atoms: C_9  and  C_10
REMARK    4  A    between atoms: C_15  and  N_16
REMARK                            x       y       z     vdW  Elec       q    Type
REMARK                         _______ _______ _______ _____ _____    ______ ____
ROOT
ATOM      1  C   UNL     1      28.304  23.368  23.326  0.00  0.00    +0.000 A 
ATOM      2  C   UNL     1      29.551  23.151  23.870  0.00  0.00    +0.000 A 
ATOM      3  C   UNL     1      29.722  22.784  25.190  0.00  0.00    +0.000 A 
ATOM      4  C   UNL     1      28.589  22.640  25.959  0.00  0.00    +0.000 A 
ATOM      5  C   UNL     1      27.337  22.859  25.413  0.00  0.00    +0.000 A 
ATOM      6  C   UNL     1      27.166  23.225  24.094  0.00  0.00    +0.000 A 
ATOM      7  O   UNL     1      29.073  22.271  27.219  0.00  0.00    +0.000 OA
ATOM      8  C   UNL     1      30.405  21.816  27.094  0.00  0.00    +0.000 C 
ATOM      9  O   UNL     1      30.853  22.510  25.965  0.00  0.00    +0.000 OA
ENDROOT
BRANCH   6  10
ATOM     10  N   UNL     1      25.877  23.452  23.520  0.00  0.00    +0.000 N 
ATOM     11  O   UNL     1      25.166  24.345  23.995  0.00  0.00    +0.000 OA
ATOM     12  O   UNL     1      25.456  22.683  22.461  0.00  0.00    +0.000 OA
ENDBRANCH   6  10
BRANCH   1  13
ATOM     13  C   UNL     1      28.114  23.760  21.911  0.00  0.00    +0.000 C 
BRANCH  13  14
ATOM     14  N   UNL     1      29.307  24.330  21.339  0.00  0.00    +0.000 NA
BRANCH  14  21
ATOM     15  C   UNL     1      28.782  29.009  22.919  0.00  0.00    +0.000 C 
ATOM     16  C   UNL     1      29.105  28.009  21.852  0.00  0.00    +0.000 A 
ATOM     17  C   UNL     1      29.465  28.447  20.587  0.00  0.00    +0.000 A 
ATOM     18  C   UNL     1      29.771  27.568  19.571  0.00  0.00    +0.000 A 
ATOM     19  C   UNL     1      30.159  28.058  18.205  0.00  0.00    +0.000 C 
ATOM     20  C   UNL     1      29.706  26.224  19.865  0.00  0.00    +0.000 A 
ATOM     21  C   UNL     1      29.354  25.732  21.105  0.00  0.00    +0.000 A 
ATOM     22  C   UNL     1      29.057  26.654  22.083  0.00  0.00    +0.000 A 
ENDBRANCH  14  21
ENDBRANCH  13  14
ENDBRANCH   1  13
TORSDOF 4
ENDMDL
MODEL 5
REMARK VINA RESULT:      -6.5      3.659      7.004
REMARK  Name = 
REMARK  4 active torsions:
REMARK  status: ('A' for Active; 'I' for Inactive)
REMARK    1  A    between atoms: C_7  and  N_8
REMARK    2  A    between atoms: N_8  and  C_9
REMARK    3  A    between atoms: C_9  and  C_10
REMARK    4  A    between atoms: C_15  and  N_16
REMARK                            x       y       z     vdW  Elec       q    Type
REMARK                         _______ _______ _______ _____ _____    ______ ____
ROOT
ATOM      1  C   UNL     1      19.163   9.698  37.845  0.00  0.00    +0.000 A 
ATOM      2  C   UNL     1      20.043   9.961  36.817  0.00  0.00    +0.000 A 
ATOM      3  C   UNL     1      21.408   9.822  36.965  0.00  0.00    +0.000 A 
ATOM      4  C   UNL     1      21.872   9.406  38.194  0.00  0.00    +0.000 A 
ATOM      5  C   UNL     1      20.990   9.143  39.226  0.00  0.00    +0.000 A 
ATOM      6  C   UNL     1      19.625   9.281  39.078  0.00  0.00    +0.000 A 
ATOM      7  O   UNL     1      23.262   9.360  38.039  0.00  0.00    +0.000 OA
ATOM      8  C   UNL     1      23.579   9.351  36.662  0.00  0.00    +0.000 C 
ATOM      9  O   UNL     1      22.487  10.020  36.099  0.00  0.00    +0.000 OA
ENDROOT
BRANCH   6  10
ATOM     10  N   UNL     1      18.705   9.010  40.137  0.00  0.00    +0.000 N 
ATOM     11  O   UNL     1      18.476   9.900  40.964  0.00  0.00    +0.000 OA
ATOM     12  O   UNL     1      18.098   7.780  40.216  0.00  0.00    +0.000 OA
ENDBRANCH   6  10
BRANCH   1  13
ATOM     13  C   UNL     1      17.698   9.844  37.691  0.00  0.00    +0.000 C 
BRANCH  13  14
ATOM     14  N   UNL     1      17.292  11.223  37.620  0.00  0.00    +0.000 NA
BRANCH  14  21
ATOM     15  C   UNL     1      13.897  13.590  34.874  0.00  0.00    +0.000 C 
ATOM     16  C   UNL     1      14.275  12.665  35.990  0.00  0.00    +0.000 A 
ATOM     17  C   UNL     1      13.283  12.074  36.757  0.00  0.00    +0.000 A 
ATOM     18  C   UNL     1      13.577  11.216  37.794  0.00  0.00    +0.000 A 
ATOM     19  C   UNL     1      12.491  10.584  38.617  0.00  0.00    +0.000 C 
ATOM     20  C   UNL     1      14.909  10.966  38.040  0.00  0.00    +0.000 A 
ATOM     21  C   UNL     1      15.938  11.525  37.310  0.00  0.00    +0.000 A 
ATOM     22  C   UNL     1      15.587  12.376  36.286  0.00  0.00    +0.000 A 
ENDBRANCH  14  21
ENDBRANCH  13  14
ENDBRANCH   1  13
TORSDOF 4
ENDMDL
MODEL 6
REMARK VINA RESULT:      -6.4     18.361     19.305
REMARK  Name = 
REMARK  4 active torsions:
REMARK  status: ('A' for Active; 'I' for Inactive)
REMARK    1  A    between atoms: C_7  and  N_8
REMARK    2  A    between atoms: N_8  and  C_9
REMARK    3  A    between atoms: C_9  and  C_10
REMARK    4  A    between atoms: C_15  and  N_16
REMARK                            x       y       z     vdW  Elec       q    Type
REMARK                         _______ _______ _______ _____ _____    ______ ____
ROOT
ATOM      1  C   UNL     1      28.270  23.487  24.499  0.00  0.00    +0.000 A 
ATOM      2  C   UNL     1      29.073  23.371  23.384  0.00  0.00    +0.000 A 
ATOM      3  C   UNL     1      28.968  24.232  22.310  0.00  0.00    +0.000 A 
ATOM      4  C   UNL     1      28.020  25.229  22.389  0.00  0.00    +0.000 A 
ATOM      5  C   UNL     1      27.214  25.345  23.506  0.00  0.00    +0.000 A 
ATOM      6  C   UNL     1      27.318  24.484  24.579  0.00  0.00    +0.000 A 
ATOM      7  O   UNL     1      28.151  25.923  21.181  0.00  0.00    +0.000 OA
ATOM      8  C   UNL     1      29.397  25.608  20.592  0.00  0.00    +0.000 C 
ATOM      9  O   UNL     1      29.648  24.326  21.093  0.00  0.00    +0.000 OA
ENDROOT
BRANCH   6  10
ATOM     10  N   UNL     1      26.491  24.597  25.739  0.00  0.00    +0.000 N 
ATOM     11  O   UNL     1      25.437  23.954  25.779  0.00  0.00    +0.000 OA
ATOM     12  O   UNL     1      26.880  25.408  26.778  0.00  0.00    +0.000 OA
ENDBRANCH   6  10
BRANCH   1  13
ATOM     13  C   UNL     1      28.379  22.567  25.653  0.00  0.00    +0.000 C 
BRANCH  13  14
ATOM     14  N   UNL     1      29.444  22.937  26.547  0.00  0.00    +0.000 NA
BRANCH  14  21
ATOM     15  C   UNL     1      31.141  23.136  31.211  0.00  0.00    +0.000 C 
ATOM     16  C   UNL     1      30.044  22.897  30.218  0.00  0.00    +0.000 A 
ATOM     17  C   UNL     1      28.783  22.536  30.663  0.00  0.00    +0.000 A 
ATOM     18  C   UNL     1      27.740  22.305  29.792  0.00  0.00    +0.000 A 
ATOM     19  C   UNL     1      26.378  21.913  30.289  0.00  0.00    +0.000 C 
ATOM     20  C   UNL     1      28.005  22.449  28.448  0.00  0.00    +0.000 A 
ATOM     21  C   UNL     1      29.241  22.807  27.949  0.00  0.00    +0.000 A 
ATOM     22  C   UNL     1      30.246  23.024  28.864  0.00  0.00    +0.000 A 
ENDBRANCH  14  21
ENDBRANCH  13  14
ENDBRANCH   1  13
TORSDOF 4
ENDMDL
MODEL 7
REMARK VINA RESULT:      -6.4     17.153     18.784
REMARK  Name = 
REMARK  4 active torsions:
REMARK  status: ('A' for Active; 'I' for Inactive)
REMARK    1  A    between atoms: C_7  and  N_8
REMARK    2  A    between atoms: N_8  and  C_9
REMARK    3  A    between atoms: C_9  and  C_10
REMARK    4  A    between atoms: C_15  and  N_16
REMARK                            x       y       z     vdW  Elec       q    Type
REMARK                         _______ _______ _______ _____ _____    ______ ____
ROOT
ATOM      1  C   UNL     1      28.475  22.852  29.147  0.00  0.00    +0.000 A 
ATOM      2  C   UNL     1      29.835  22.816  28.923  0.00  0.00    +0.000 A 
ATOM      3  C   UNL     1      30.738  22.547  29.932  0.00  0.00    +0.000 A 
ATOM      4  C   UNL     1      30.230  22.311  31.190  0.00  0.00    +0.000 A 
ATOM      5  C   UNL     1      28.866  22.348  31.416  0.00  0.00    +0.000 A 
ATOM      6  C   UNL     1      27.963  22.617  30.408  0.00  0.00    +0.000 A 
ATOM      7  O   UNL     1      31.361  22.074  31.979  0.00  0.00    +0.000 OA
ATOM      8  C   UNL     1      32.461  21.776  31.143  0.00  0.00    +0.000 C 
ATOM      9  O   UNL     1      32.132  22.454  29.964  0.00  0.00    +0.000 OA
ENDROOT
BRANCH   6  10
ATOM     10  N   UNL     1      26.552  22.656  30.629  0.00  0.00    +0.000 N 
ATOM     11  O   UNL     1      26.010  23.753  30.804  0.00  0.00    +0.000 OA
ATOM     12  O   UNL     1      25.830  21.486  30.643  0.00  0.00    +0.000 OA
ENDBRANCH   6  10
BRANCH   1  13
ATOM     13  C   UNL     1      27.502  23.139  28.069  0.00  0.00    +0.000 C 
BRANCH  13  14
ATOM     14  N   UNL     1      27.623  22.221  26.967  0.00  0.00    +0.000 NA
BRANCH  14  21
ATOM     15  C   UNL     1      27.244  23.908  22.310  0.00  0.00    +0.000 C 
ATOM     16  C   UNL     1      28.058  23.493  23.498  0.00  0.00    +0.000 A 
ATOM     17  C   UNL     1      29.441  23.547  23.434  0.00  0.00    +0.000 A 
ATOM     18  C   UNL     1      30.236  23.177  24.498  0.00  0.00    +0.000 A 
ATOM     19  C   UNL     1      31.734  23.240  24.413  0.00  0.00    +0.000 C 
ATOM     20  C   UNL     1      29.593  22.748  25.639  0.00  0.00    +0.000 A 
ATOM     21  C   UNL     1      28.220  22.675  25.758  0.00  0.00    +0.000 A 
ATOM     22  C   UNL     1      27.476  23.055  24.665  0.00  0.00    +0.000 A 
ENDBRANCH  14  21
ENDBRANCH  13  14
ENDBRANCH   1  13
TORSDOF 4
ENDMDL
MODEL 8
REMARK VINA RESULT:      -6.2     20.722     22.496
REMARK  Name = 
REMARK  4 active torsions:
REMARK  status: ('A' for Active; 'I' for Inactive)
REMARK    1  A    between atoms: C_7  and  N_8
REMARK    2  A    between atoms: N_8  and  C_9
REMARK    3  A    between atoms: C_9  and  C_10
REMARK    4  A    between atoms: C_15  and  N_16
REMARK                            x       y       z     vdW  Elec       q    Type
REMARK                         _______ _______ _______ _____ _____    ______ ____
ROOT
ATOM      1  C   UNL     1      16.372  -9.760  25.602  0.00  0.00    +0.000 A 
ATOM      2  C   UNL     1      15.274  -9.200  26.219  0.00  0.00    +0.000 A 
ATOM      3  C   UNL     1      14.215  -8.680  25.502  0.00  0.00    +0.000 A 
ATOM      4  C   UNL     1      14.292  -8.738  24.128  0.00  0.00    +0.000 A 
ATOM      5  C   UNL     1      15.394  -9.299  23.509  0.00  0.00    +0.000 A 
ATOM      6  C   UNL     1      16.452  -9.819  24.225  0.00  0.00    +0.000 A 
ATOM      7  O   UNL     1      13.100  -8.148  23.692  0.00  0.00    +0.000 OA
ATOM      8  C   UNL     1      12.176  -8.115  24.760  0.00  0.00    +0.000 C 
ATOM      9  O   UNL     1      13.014  -8.073  25.880  0.00  0.00    +0.000 OA
ENDROOT
BRANCH   6  10
ATOM     10  N   UNL     1      17.595 -10.402  23.595  0.00  0.00    +0.000 N 
ATOM     11  O   UNL     1      18.523  -9.662  23.252  0.00  0.00    +0.000 OA
ATOM     12  O   UNL     1      17.641 -11.760  23.386  0.00  0.00    +0.000 OA
ENDBRANCH   6  10
BRANCH   1  13
ATOM     13  C   UNL     1      17.510 -10.320  26.366  0.00  0.00    +0.000 C 
BRANCH  13  14
ATOM     14  N   UNL     1      18.081  -9.361  27.275  0.00  0.00    +0.000 NA
BRANCH  14  21
ATOM     15  C   UNL     1      18.771  -4.506  26.483  0.00  0.00    +0.000 C 
ATOM     16  C   UNL     1      19.200  -5.936  26.351  0.00  0.00    +0.000 A 
ATOM     17  C   UNL     1      20.383  -6.239  25.696  0.00  0.00    +0.000 A 
ATOM     18  C   UNL     1      20.823  -7.536  25.547  0.00  0.00    +0.000 A 
ATOM     19  C   UNL     1      22.107  -7.849  24.833  0.00  0.00    +0.000 C 
ATOM     20  C   UNL     1      20.033  -8.530  26.084  0.00  0.00    +0.000 A 
ATOM     21  C   UNL     1      18.848  -8.286  26.746  0.00  0.00    +0.000 A 
ATOM     22  C   UNL     1      18.456  -6.972  26.864  0.00  0.00    +0.000 A 
ENDBRANCH  14  21
ENDBRANCH  13  14
ENDBRANCH   1  13
TORSDOF 4
ENDMDL
MODEL 9
REMARK VINA RESULT:      -6.2     19.233     20.289
REMARK  Name = 
REMARK  4 active torsions:
REMARK  status: ('A' for Active; 'I' for Inactive)
REMARK    1  A    between atoms: C_7  and  N_8
REMARK    2  A    between atoms: N_8  and  C_9
REMARK    3  A    between atoms: C_9  and  C_10
REMARK    4  A    between atoms: C_15  and  N_16
REMARK                            x       y       z     vdW  Elec       q    Type
REMARK                         _______ _______ _______ _____ _____    ______ ____
ROOT
ATOM      1  C   UNL     1      28.475  23.566  24.514  0.00  0.00    +0.000 A 
ATOM      2  C   UNL     1      29.264  23.491  23.385  0.00  0.00    +0.000 A 
ATOM      3  C   UNL     1      29.064  24.312  22.294  0.00  0.00    +0.000 A 
ATOM      4  C   UNL     1      28.035  25.225  22.369  0.00  0.00    +0.000 A 
ATOM      5  C   UNL     1      27.243  25.300  23.500  0.00  0.00    +0.000 A 
ATOM      6  C   UNL     1      27.442  24.479  24.591  0.00  0.00    +0.000 A 
ATOM      7  O   UNL     1      28.082  25.897  21.143  0.00  0.00    +0.000 OA
ATOM      8  C   UNL     1      29.338  25.676  20.535  0.00  0.00    +0.000 C 
ATOM      9  O   UNL     1      29.709  24.433  21.060  0.00  0.00    +0.000 OA
ENDROOT
BRANCH   6  10
ATOM     10  N   UNL     1      26.631  24.549  25.765  0.00  0.00    +0.000 N 
ATOM     11  O   UNL     1      26.911  25.388  26.629  0.00  0.00    +0.000 OA
ATOM     12  O   UNL     1      25.566  23.692  25.912  0.00  0.00    +0.000 OA
ENDBRANCH   6  10
BRANCH   1  13
ATOM     13  C   UNL     1      28.686  22.688  25.687  0.00  0.00    +0.000 C 
BRANCH  13  14
ATOM     14  N   UNL     1      30.001  22.104  25.702  0.00  0.00    +0.000 NA
BRANCH  14  21
ATOM     15  C   UNL     1      33.447  25.414  27.060  0.00  0.00    +0.000 C 
ATOM     16  C   UNL     1      32.632  24.183  27.314  0.00  0.00    +0.000 A 
ATOM     17  C   UNL     1      32.802  23.479  28.495  0.00  0.00    +0.000 A 
ATOM     18  C   UNL     1      32.078  22.341  28.778  0.00  0.00    +0.000 A 
ATOM     19  C   UNL     1      32.274  21.589  30.063  0.00  0.00    +0.000 C 
ATOM     20  C   UNL     1      31.168  21.927  27.830  0.00  0.00    +0.000 A 
ATOM     21  C   UNL     1      30.957  22.588  26.637  0.00  0.00    +0.000 A 
ATOM     22  C   UNL     1      31.709  23.718  26.406  0.00  0.00    +0.000 A 
ENDBRANCH  14  21
ENDBRANCH  13  14
ENDBRANCH   1  13
TORSDOF 4
ENDMDL
MODEL 10
REMARK VINA RESULT:      -6.2     18.441     20.027
REMARK  Name = 
REMARK  4 active torsions:
REMARK  status: ('A' for Active; 'I' for Inactive)
REMARK    1  A    between atoms: C_7  and  N_8
REMARK    2  A    between atoms: N_8  and  C_9
REMARK    3  A    between atoms: C_9  and  C_10
REMARK    4  A    between atoms: C_15  and  N_16
REMARK                            x       y       z     vdW  Elec       q    Type
REMARK                         _______ _______ _______ _____ _____    ______ ____
ROOT
ATOM      1  C   UNL     1      26.789  23.762  24.386  0.00  0.00    +0.000 A 
ATOM      2  C   UNL     1      27.395  23.411  25.574  0.00  0.00    +0.000 A 
ATOM      3  C   UNL     1      28.684  22.921  25.625  0.00  0.00    +0.000 A 
ATOM      4  C   UNL     1      29.359  22.790  24.431  0.00  0.00    +0.000 A 
ATOM      5  C   UNL     1      28.752  23.141  23.239  0.00  0.00    +0.000 A 
ATOM      6  C   UNL     1      27.463  23.631  23.188  0.00  0.00    +0.000 A 
ATOM      7  O   UNL     1      30.610  22.283  24.797  0.00  0.00    +0.000 OA
ATOM      8  C   UNL     1      30.814  22.491  26.180  0.00  0.00    +0.000 C 
ATOM      9  O   UNL     1      29.506  22.504  26.676  0.00  0.00    +0.000 OA
ENDROOT
BRANCH   6  10
ATOM     10  N   UNL     1      26.827  23.998  21.962  0.00  0.00    +0.000 N 
ATOM     11  O   UNL     1      27.163  25.053  21.413  0.00  0.00    +0.000 OA
ATOM     12  O   UNL     1      25.864  23.180  21.421  0.00  0.00    +0.000 OA
ENDBRANCH   6  10
BRANCH   1  13
ATOM     13  C   UNL     1      25.407  24.289  24.326  0.00  0.00    +0.000 C 
BRANCH  13  14
ATOM     14  N   UNL     1      25.326  25.656  24.771  0.00  0.00    +0.000 NA
BRANCH  14  21
ATOM     15  C   UNL     1      20.701  27.124  25.834  0.00  0.00    +0.000 C 
ATOM     16  C   UNL     1      22.084  26.725  26.250  0.00  0.00    +0.000 A 
ATOM     17  C   UNL     1      22.414  26.696  27.595  0.00  0.00    +0.000 A 
ATOM     18  C   UNL     1      23.671  26.337  28.031  0.00  0.00    +0.000 A 
ATOM     19  C   UNL     1      24.013  26.311  29.493  0.00  0.00    +0.000 C 
ATOM     20  C   UNL     1      24.595  26.002  27.066  0.00  0.00    +0.000 A 
ATOM     21  C   UNL     1      24.322  26.012  25.713  0.00  0.00    +0.000 A 
ATOM     22  C   UNL     1      23.051  26.381  25.335  0.00  0.00    +0.000 A 
ENDBRANCH  14  21
ENDBRANCH  13  14
ENDBRANCH   1  13
TORSDOF 4
ENDMDL
