MODEL 1
REMARK VINA RESULT:      -6.6      0.000      0.000
REMARK  Name = 
REMARK  8 active torsions:
REMARK  status: ('A' for Active; 'I' for Inactive)
REMARK    1  A    between atoms: N_2  and  C_3
REMARK    2  A    between atoms: N_2  and  C_28
REMARK    3  A    between atoms: C_3  and  C_4
REMARK    4  A    between atoms: C_4  and  C_5
REMARK    5  A    between atoms: C_5  and  N_6
REMARK    6  A    between atoms: C_7  and  C_9
REMARK    7  A    between atoms: C_10  and  C_11
REMARK    8  A    between atoms: C_17  and  C_18
REMARK                            x       y       z     vdW  Elec       q    Type
REMARK                         _______ _______ _______ _____ _____    ______ ____
ROOT
ATOM      1  C   UNL     1      24.724  19.447  33.494  0.00  0.00    +0.000 A 
ATOM      2  C   UNL     1      23.781  20.275  32.832  0.00  0.00    +0.000 A 
ATOM      3  N   UNL     1      22.878  19.420  32.357  0.00  0.00    +0.000 NA
ATOM      4  O   UNL     1      23.184  18.213  32.663  0.00  0.00    +0.000 OA
ATOM      5  C   UNL     1      24.333  18.163  33.373  0.00  0.00    +0.000 A 
ENDROOT
BRANCH   5   6
ATOM      6  C   UNL     1      24.924  16.942  33.858  0.00  0.00    +0.000 A 
ATOM      7  C   UNL     1      25.294  16.010  32.860  0.00  0.00    +0.000 A 
ATOM      8  C   UNL     1      25.910  14.837  33.100  0.00  0.00    +0.000 A 
ATOM      9  C   UNL     1      26.201  14.527  34.405  0.00  0.00    +0.000 A 
ATOM     10  C   UNL     1      25.873  15.388  35.438  0.00  0.00    +0.000 A 
ATOM     11  C   UNL     1      26.182  15.097  36.732  0.00  0.00    +0.000 A 
ATOM     12  C   UNL     1      25.884  15.965  37.776  0.00  0.00    +0.000 A 
ATOM     13  C   UNL     1      25.261  17.144  37.447  0.00  0.00    +0.000 A 
ATOM     14  C   UNL     1      24.961  17.413  36.159  0.00  0.00    +0.000 A 
ATOM     15  C   UNL     1      25.239  16.582  35.133  0.00  0.00    +0.000 A 
ENDBRANCH   5   6
BRANCH   2  16
ATOM     16  C   UNL     1      23.846  21.747  32.720  0.00  0.00    +0.000 C 
ATOM     17  C   UNL     1      23.905  22.450  34.030  0.00  0.00    +0.000 C 
ATOM     18  C   UNL     1      22.594  22.286  32.002  0.00  0.00    +0.000 C 
ATOM     19  C   UNL     1      25.034  22.157  31.869  0.00  0.00    +0.000 C 
ENDBRANCH   2  16
BRANCH   1  21
ATOM     20  N   UNL     1      25.848  20.593  35.438  0.00  0.00    +0.000 NA
ATOM     21  C   UNL     1      25.860  20.067  34.164  0.00  0.00    +0.000 C 
ATOM     22  O   UNL     1      26.952  20.131  33.525  0.00  0.00    +0.000 OA
BRANCH  20  23
ATOM     23  C   UNL     1      26.748  21.206  36.285  0.00  0.00    +0.000 C 
BRANCH  23  24
ATOM     24  C   UNL     1      27.198  20.498  37.512  0.00  0.00    +0.000 C 
BRANCH  24  25
ATOM     25  C   UNL     1      28.667  20.061  37.274  0.00  0.00    +0.000 C 
BRANCH  25  27
ATOM     26  C   UNL     1      28.472  18.401  39.101  0.00  0.00    +0.000 C 
ATOM     27  N   UNL     1      28.765  18.647  37.683  0.00  0.00    +0.000 N 
BRANCH  27  28
ATOM     28  C   UNL     1      29.064  17.600  36.796  0.00  0.00    +0.000 A 
ATOM     29  C   UNL     1      29.596  16.391  37.084  0.00  0.00    +0.000 A 
ATOM     30  C   UNL     1      29.847  15.427  36.146  0.00  0.00    +0.000 A 
ATOM     31  C   UNL     1      29.534  15.707  34.812  0.00  0.00    +0.000 A 
ATOM     32  C   UNL     1      29.001  16.917  34.511  0.00  0.00    +0.000 A 
ATOM     33  C   UNL     1      28.756  17.863  35.441  0.00  0.00    +0.000 A 
ENDBRANCH  27  28
ENDBRANCH  25  27
ENDBRANCH  24  25
ENDBRANCH  23  24
ENDBRANCH  20  23
ENDBRANCH   1  21
TORSDOF 8
ENDMDL
MODEL 2
REMARK VINA RESULT:      -6.5     24.113     26.855
REMARK  Name = 
REMARK  8 active torsions:
REMARK  status: ('A' for Active; 'I' for Inactive)
REMARK    1  A    between atoms: N_2  and  C_3
REMARK    2  A    between atoms: N_2  and  C_28
REMARK    3  A    between atoms: C_3  and  C_4
REMARK    4  A    between atoms: C_4  and  C_5
REMARK    5  A    between atoms: C_5  and  N_6
REMARK    6  A    between atoms: C_7  and  C_9
REMARK    7  A    between atoms: C_10  and  C_11
REMARK    8  A    between atoms: C_17  and  C_18
REMARK                            x       y       z     vdW  Elec       q    Type
REMARK                         _______ _______ _______ _____ _____    ______ ____
ROOT
ATOM      1  C   UNL     1      37.795   5.305  15.651  0.00  0.00    +0.000 A 
ATOM      2  C   UNL     1      37.227   5.640  14.395  0.00  0.00    +0.000 A 
ATOM      3  N   UNL     1      37.482   6.939  14.261  0.00  0.00    +0.000 NA
ATOM      4  O   UNL     1      38.121   7.389  15.277  0.00  0.00    +0.000 OA
ATOM      5  C   UNL     1      38.345   6.413  16.186  0.00  0.00    +0.000 A 
ENDROOT
BRANCH   5   6
ATOM      6  C   UNL     1      39.043   6.620  17.429  0.00  0.00    +0.000 A 
ATOM      7  C   UNL     1      40.335   6.050  17.500  0.00  0.00    +0.000 A 
ATOM      8  C   UNL     1      41.170   6.177  18.549  0.00  0.00    +0.000 A 
ATOM      9  C   UNL     1      40.735   6.912  19.623  0.00  0.00    +0.000 A 
ATOM     10  C   UNL     1      39.483   7.503  19.629  0.00  0.00    +0.000 A 
ATOM     11  C   UNL     1      39.056   8.254  20.682  0.00  0.00    +0.000 A 
ATOM     12  C   UNL     1      37.813   8.876  20.689  0.00  0.00    +0.000 A 
ATOM     13  C   UNL     1      37.023   8.704  19.578  0.00  0.00    +0.000 A 
ATOM     14  C   UNL     1      37.464   7.954  18.546  0.00  0.00    +0.000 A 
ATOM     15  C   UNL     1      38.665   7.339  18.523  0.00  0.00    +0.000 A 
ENDBRANCH   5   6
BRANCH   2  16
ATOM     16  C   UNL     1      36.517   4.713  13.489  0.00  0.00    +0.000 C 
ATOM     17  C   UNL     1      37.335   3.549  13.053  0.00  0.00    +0.000 C 
ATOM     18  C   UNL     1      36.093   5.443  12.200  0.00  0.00    +0.000 C 
ATOM     19  C   UNL     1      35.237   4.221  14.139  0.00  0.00    +0.000 C 
ENDBRANCH   2  16
BRANCH   1  21
ATOM     20  N   UNL     1      36.635   3.349  16.738  0.00  0.00    +0.000 NA
ATOM     21  C   UNL     1      37.720   3.926  16.115  0.00  0.00    +0.000 C 
ATOM     22  O   UNL     1      38.737   3.192  15.934  0.00  0.00    +0.000 OA
BRANCH  20  23
ATOM     23  C   UNL     1      36.307   2.111  17.251  0.00  0.00    +0.000 C 
BRANCH  23  24
ATOM     24  C   UNL     1      35.249   1.301  16.590  0.00  0.00    +0.000 C 
BRANCH  24  25
ATOM     25  C   UNL     1      35.905   0.599  15.373  0.00  0.00    +0.000 C 
BRANCH  25  27
ATOM     26  C   UNL     1      35.516  -1.504  16.624  0.00  0.00    +0.000 C 
ATOM     27  N   UNL     1      36.463  -0.676  15.864  0.00  0.00    +0.000 N 
BRANCH  27  28
ATOM     28  C   UNL     1      37.773  -1.104  15.598  0.00  0.00    +0.000 A 
ATOM     29  C   UNL     1      38.770  -0.413  15.000  0.00  0.00    +0.000 A 
ATOM     30  C   UNL     1      40.025  -0.915  14.789  0.00  0.00    +0.000 A 
ATOM     31  C   UNL     1      40.293  -2.220  15.216  0.00  0.00    +0.000 A 
ATOM     32  C   UNL     1      39.302  -2.923  15.816  0.00  0.00    +0.000 A 
ATOM     33  C   UNL     1      38.066  -2.421  16.022  0.00  0.00    +0.000 A 
ENDBRANCH  27  28
ENDBRANCH  25  27
ENDBRANCH  24  25
ENDBRANCH  23  24
ENDBRANCH  20  23
ENDBRANCH   1  21
TORSDOF 8
ENDMDL
MODEL 3
REMARK VINA RESULT:      -6.5     27.382     30.361
REMARK  Name = 
REMARK  8 active torsions:
REMARK  status: ('A' for Active; 'I' for Inactive)
REMARK    1  A    between atoms: N_2  and  C_3
REMARK    2  A    between atoms: N_2  and  C_28
REMARK    3  A    between atoms: C_3  and  C_4
REMARK    4  A    between atoms: C_4  and  C_5
REMARK    5  A    between atoms: C_5  and  N_6
REMARK    6  A    between atoms: C_7  and  C_9
REMARK    7  A    between atoms: C_10  and  C_11
REMARK    8  A    between atoms: C_17  and  C_18
REMARK                            x       y       z     vdW  Elec       q    Type
REMARK                         _______ _______ _______ _____ _____    ______ ____
ROOT
ATOM      1  C   UNL     1      39.801  -1.558  14.978  0.00  0.00    +0.000 A 
ATOM      2  C   UNL     1      41.037  -2.150  14.610  0.00  0.00    +0.000 A 
ATOM      3  N   UNL     1      41.078  -3.278  15.316  0.00  0.00    +0.000 NA
ATOM      4  O   UNL     1      40.027  -3.406  16.039  0.00  0.00    +0.000 OA
ATOM      5  C   UNL     1      39.189  -2.358  15.874  0.00  0.00    +0.000 A 
ENDROOT
BRANCH   5   6
ATOM      6  C   UNL     1      37.926  -2.226  16.555  0.00  0.00    +0.000 A 
ATOM      7  C   UNL     1      37.954  -1.451  17.737  0.00  0.00    +0.000 A 
ATOM      8  C   UNL     1      36.873  -1.161  18.487  0.00  0.00    +0.000 A 
ATOM      9  C   UNL     1      35.661  -1.652  18.072  0.00  0.00    +0.000 A 
ATOM     10  C   UNL     1      35.551  -2.417  16.924  0.00  0.00    +0.000 A 
ATOM     11  C   UNL     1      34.347  -2.886  16.494  0.00  0.00    +0.000 A 
ATOM     12  C   UNL     1      34.219  -3.632  15.328  0.00  0.00    +0.000 A 
ATOM     13  C   UNL     1      35.368  -3.879  14.616  0.00  0.00    +0.000 A 
ATOM     14  C   UNL     1      36.552  -3.407  15.060  0.00  0.00    +0.000 A 
ATOM     15  C   UNL     1      36.697  -2.686  16.191  0.00  0.00    +0.000 A 
ENDBRANCH   5   6
BRANCH   2  16
ATOM     16  C   UNL     1      42.019  -1.589  13.659  0.00  0.00    +0.000 C 
ATOM     17  C   UNL     1      41.432  -1.185  12.353  0.00  0.00    +0.000 C 
ATOM     18  C   UNL     1      43.106  -2.630  13.334  0.00  0.00    +0.000 C 
ATOM     19  C   UNL     1      42.737  -0.405  14.283  0.00  0.00    +0.000 C 
ENDBRANCH   2  16
BRANCH   1  21
ATOM     20  N   UNL     1      38.647  -0.163  13.226  0.00  0.00    +0.000 NA
ATOM     21  C   UNL     1      39.412  -0.297  14.364  0.00  0.00    +0.000 C 
ATOM     22  O   UNL     1      39.811   0.771  14.917  0.00  0.00    +0.000 OA
BRANCH  20  23
ATOM     23  C   UNL     1      38.143   0.872  12.464  0.00  0.00    +0.000 C 
BRANCH  23  24
ATOM     24  C   UNL     1      38.936   2.120  12.307  0.00  0.00    +0.000 C 
BRANCH  24  25
ATOM     25  C   UNL     1      37.962   3.308  12.519  0.00  0.00    +0.000 C 
BRANCH  25  27
ATOM     26  C   UNL     1      38.968   4.203  14.598  0.00  0.00    +0.000 C 
ATOM     27  N   UNL     1      37.835   3.504  13.976  0.00  0.00    +0.000 N 
BRANCH  27  28
ATOM     28  C   UNL     1      36.712   3.107  14.718  0.00  0.00    +0.000 A 
ATOM     29  C   UNL     1      35.429   3.506  14.565  0.00  0.00    +0.000 A 
ATOM     30  C   UNL     1      34.394   3.055  15.338  0.00  0.00    +0.000 A 
ATOM     31  C   UNL     1      34.679   2.128  16.345  0.00  0.00    +0.000 A 
ATOM     32  C   UNL     1      35.961   1.721  16.510  0.00  0.00    +0.000 A 
ATOM     33  C   UNL     1      36.977   2.170  15.743  0.00  0.00    +0.000 A 
ENDBRANCH  27  28
ENDBRANCH  25  27
ENDBRANCH  24  25
ENDBRANCH  23  24
ENDBRANCH  20  23
ENDBRANCH   1  21
TORSDOF 8
ENDMDL
MODEL 4
REMARK VINA RESULT:      -6.5     26.632     29.462
REMARK  Name = 
REMARK  8 active torsions:
REMARK  status: ('A' for Active; 'I' for Inactive)
REMARK    1  A    between atoms: N_2  and  C_3
REMARK    2  A    between atoms: N_2  and  C_28
REMARK    3  A    between atoms: C_3  and  C_4
REMARK    4  A    between atoms: C_4  and  C_5
REMARK    5  A    between atoms: C_5  and  N_6
REMARK    6  A    between atoms: C_7  and  C_9
REMARK    7  A    between atoms: C_10  and  C_11
REMARK    8  A    between atoms: C_17  and  C_18
REMARK                            x       y       z     vdW  Elec       q    Type
REMARK                         _______ _______ _______ _____ _____    ______ ____
ROOT
ATOM      1  C   UNL     1      39.206  -1.430  15.065  0.00  0.00    +0.000 A 
ATOM      2  C   UNL     1      40.505  -1.970  14.884  0.00  0.00    +0.000 A 
ATOM      3  N   UNL     1      40.507  -3.066  15.640  0.00  0.00    +0.000 NA
ATOM      4  O   UNL     1      39.378  -3.220  16.228  0.00  0.00    +0.000 OA
ATOM      5  C   UNL     1      38.520  -2.224  15.911  0.00  0.00    +0.000 A 
ENDROOT
BRANCH   5   6
ATOM      6  C   UNL     1      37.176  -2.132  16.419  0.00  0.00    +0.000 A 
ATOM      7  C   UNL     1      36.979  -1.177  17.443  0.00  0.00    +0.000 A 
ATOM      8  C   UNL     1      35.791  -0.897  18.011  0.00  0.00    +0.000 A 
ATOM      9  C   UNL     1      34.693  -1.587  17.561  0.00  0.00    +0.000 A 
ATOM     10  C   UNL     1      34.803  -2.537  16.559  0.00  0.00    +0.000 A 
ATOM     11  C   UNL     1      33.714  -3.206  16.092  0.00  0.00    +0.000 A 
ATOM     12  C   UNL     1      33.805  -4.142  15.068  0.00  0.00    +0.000 A 
ATOM     13  C   UNL     1      35.053  -4.366  14.537  0.00  0.00    +0.000 A 
ATOM     14  C   UNL     1      36.120  -3.693  15.016  0.00  0.00    +0.000 A 
ATOM     15  C   UNL     1      36.052  -2.785  16.012  0.00  0.00    +0.000 A 
ENDBRANCH   5   6
BRANCH   2  16
ATOM     16  C   UNL     1      41.574  -1.396  14.042  0.00  0.00    +0.000 C 
ATOM     17  C   UNL     1      41.387  -1.632  12.584  0.00  0.00    +0.000 C 
ATOM     18  C   UNL     1      42.935  -2.020  14.403  0.00  0.00    +0.000 C 
ATOM     19  C   UNL     1      41.706   0.093  14.304  0.00  0.00    +0.000 C 
ENDBRANCH   2  16
BRANCH   1  21
ATOM     20  N   UNL     1      38.888   1.063  14.866  0.00  0.00    +0.000 NA
ATOM     21  C   UNL     1      38.841  -0.214  14.350  0.00  0.00    +0.000 C 
ATOM     22  O   UNL     1      38.445  -0.336  13.153  0.00  0.00    +0.000 OA
BRANCH  20  23
ATOM     23  C   UNL     1      38.618   2.341  14.422  0.00  0.00    +0.000 C 
BRANCH  23  24
ATOM     24  C   UNL     1      38.341   3.417  15.410  0.00  0.00    +0.000 C 
BRANCH  24  25
ATOM     25  C   UNL     1      39.487   4.454  15.288  0.00  0.00    +0.000 C 
BRANCH  25  27
ATOM     26  C   UNL     1      37.947   6.329  15.785  0.00  0.00    +0.000 C 
ATOM     27  N   UNL     1      39.145   5.577  16.182  0.00  0.00    +0.000 N 
BRANCH  27  28
ATOM     28  C   UNL     1      39.864   5.890  17.347  0.00  0.00    +0.000 A 
ATOM     29  C   UNL     1      39.422   5.881  18.625  0.00  0.00    +0.000 A 
ATOM     30  C   UNL     1      40.204   6.196  19.703  0.00  0.00    +0.000 A 
ATOM     31  C   UNL     1      41.537   6.548  19.470  0.00  0.00    +0.000 A 
ATOM     32  C   UNL     1      41.991   6.561  18.193  0.00  0.00    +0.000 A 
ATOM     33  C   UNL     1      41.214   6.248  17.134  0.00  0.00    +0.000 A 
ENDBRANCH  27  28
ENDBRANCH  25  27
ENDBRANCH  24  25
ENDBRANCH  23  24
ENDBRANCH  20  23
ENDBRANCH   1  21
TORSDOF 8
ENDMDL
MODEL 5
REMARK VINA RESULT:      -6.5     24.636     27.548
REMARK  Name = 
REMARK  8 active torsions:
REMARK  status: ('A' for Active; 'I' for Inactive)
REMARK    1  A    between atoms: N_2  and  C_3
REMARK    2  A    between atoms: N_2  and  C_28
REMARK    3  A    between atoms: C_3  and  C_4
REMARK    4  A    between atoms: C_4  and  C_5
REMARK    5  A    between atoms: C_5  and  N_6
REMARK    6  A    between atoms: C_7  and  C_9
REMARK    7  A    between atoms: C_10  and  C_11
REMARK    8  A    between atoms: C_17  and  C_18
REMARK                            x       y       z     vdW  Elec       q    Type
REMARK                         _______ _______ _______ _____ _____    ______ ____
ROOT
ATOM      1  C   UNL     1      37.919   5.367  15.691  0.00  0.00    +0.000 A 
ATOM      2  C   UNL     1      36.927   5.847  14.796  0.00  0.00    +0.000 A 
ATOM      3  N   UNL     1      36.971   7.169  14.945  0.00  0.00    +0.000 NA
ATOM      4  O   UNL     1      37.858   7.505  15.808  0.00  0.00    +0.000 OA
ATOM      5  C   UNL     1      38.485   6.419  16.315  0.00  0.00    +0.000 A 
ENDROOT
BRANCH   5   6
ATOM      6  C   UNL     1      39.530   6.486  17.303  0.00  0.00    +0.000 A 
ATOM      7  C   UNL     1      39.105   6.354  18.645  0.00  0.00    +0.000 A 
ATOM      8  C   UNL     1      39.928   6.332  19.710  0.00  0.00    +0.000 A 
ATOM      9  C   UNL     1      41.275   6.444  19.475  0.00  0.00    +0.000 A 
ATOM     10  C   UNL     1      41.771   6.574  18.189  0.00  0.00    +0.000 A 
ATOM     11  C   UNL     1      43.108   6.661  17.947  0.00  0.00    +0.000 A 
ATOM     12  C   UNL     1      43.621   6.764  16.659  0.00  0.00    +0.000 A 
ATOM     13  C   UNL     1      42.715   6.773  15.626  0.00  0.00    +0.000 A 
ATOM     14  C   UNL     1      41.394   6.688  15.887  0.00  0.00    +0.000 A 
ATOM     15  C   UNL     1      40.877   6.592  17.130  0.00  0.00    +0.000 A 
ENDBRANCH   5   6
BRANCH   2  16
ATOM     16  C   UNL     1      36.067   5.017  13.928  0.00  0.00    +0.000 C 
ATOM     17  C   UNL     1      35.385   3.903  14.642  0.00  0.00    +0.000 C 
ATOM     18  C   UNL     1      36.902   4.362  12.813  0.00  0.00    +0.000 C 
ATOM     19  C   UNL     1      35.033   5.884  13.232  0.00  0.00    +0.000 C 
ENDBRANCH   2  16
BRANCH   1  21
ATOM     20  N   UNL     1      38.852   3.186  14.840  0.00  0.00    +0.000 NA
ATOM     21  C   UNL     1      38.163   3.933  15.771  0.00  0.00    +0.000 C 
ATOM     22  O   UNL     1      37.703   3.316  16.778  0.00  0.00    +0.000 OA
BRANCH  20  23
ATOM     23  C   UNL     1      39.222   1.866  14.680  0.00  0.00    +0.000 C 
BRANCH  23  24
ATOM     24  C   UNL     1      38.883   1.158  13.418  0.00  0.00    +0.000 C 
BRANCH  24  25
ATOM     25  C   UNL     1      37.376   0.799  13.487  0.00  0.00    +0.000 C 
BRANCH  25  27
ATOM     26  C   UNL     1      38.278  -1.487  13.793  0.00  0.00    +0.000 C 
ATOM     27  N   UNL     1      37.274  -0.492  14.194  0.00  0.00    +0.000 N 
BRANCH  27  28
ATOM     28  C   UNL     1      36.336  -0.752  15.205  0.00  0.00    +0.000 A 
ATOM     29  C   UNL     1      35.798  -1.942  15.555  0.00  0.00    +0.000 A 
ATOM     30  C   UNL     1      34.889  -2.100  16.566  0.00  0.00    +0.000 A 
ATOM     31  C   UNL     1      34.492  -0.964  17.278  0.00  0.00    +0.000 A 
ATOM     32  C   UNL     1      35.023   0.236  16.935  0.00  0.00    +0.000 A 
ATOM     33  C   UNL     1      35.920   0.383  15.937  0.00  0.00    +0.000 A 
ENDBRANCH  27  28
ENDBRANCH  25  27
ENDBRANCH  24  25
ENDBRANCH  23  24
ENDBRANCH  20  23
ENDBRANCH   1  21
TORSDOF 8
ENDMDL
MODEL 6
REMARK VINA RESULT:      -6.5     24.777     27.590
REMARK  Name = 
REMARK  8 active torsions:
REMARK  status: ('A' for Active; 'I' for Inactive)
REMARK    1  A    between atoms: N_2  and  C_3
REMARK    2  A    between atoms: N_2  and  C_28
REMARK    3  A    between atoms: C_3  and  C_4
REMARK    4  A    between atoms: C_4  and  C_5
REMARK    5  A    between atoms: C_5  and  N_6
REMARK    6  A    between atoms: C_7  and  C_9
REMARK    7  A    between atoms: C_10  and  C_11
REMARK    8  A    between atoms: C_17  and  C_18
REMARK                            x       y       z     vdW  Elec       q    Type
REMARK                         _______ _______ _______ _____ _____    ______ ____
ROOT
ATOM      1  C   UNL     1      38.029   5.129  15.503  0.00  0.00    +0.000 A 
ATOM      2  C   UNL     1      37.336   5.517  14.327  0.00  0.00    +0.000 A 
ATOM      3  N   UNL     1      37.663   6.797  14.167  0.00  0.00    +0.000 NA
ATOM      4  O   UNL     1      38.450   7.190  15.099  0.00  0.00    +0.000 OA
ATOM      5  C   UNL     1      38.715   6.191  15.970  0.00  0.00    +0.000 A 
ENDROOT
BRANCH   5   6
ATOM      6  C   UNL     1      39.572   6.335  17.119  0.00  0.00    +0.000 A 
ATOM      7  C   UNL     1      38.927   6.229  18.373  0.00  0.00    +0.000 A 
ATOM      8  C   UNL     1      39.556   6.278  19.563  0.00  0.00    +0.000 A 
ATOM      9  C   UNL     1      40.918   6.441  19.556  0.00  0.00    +0.000 A 
ATOM     10  C   UNL     1      41.623   6.550  18.370  0.00  0.00    +0.000 A 
ATOM     11  C   UNL     1      42.977   6.686  18.357  0.00  0.00    +0.000 A 
ATOM     12  C   UNL     1      43.700   6.769  17.172  0.00  0.00    +0.000 A 
ATOM     13  C   UNL     1      42.985   6.705  16.000  0.00  0.00    +0.000 A 
ATOM     14  C   UNL     1      41.643   6.571  16.034  0.00  0.00    +0.000 A 
ATOM     15  C   UNL     1      40.924   6.494  17.174  0.00  0.00    +0.000 A 
ENDBRANCH   5   6
BRANCH   2  16
ATOM     16  C   UNL     1      36.459   4.652  13.511  0.00  0.00    +0.000 C 
ATOM     17  C   UNL     1      35.306   4.084  14.261  0.00  0.00    +0.000 C 
ATOM     18  C   UNL     1      37.249   3.447  12.967  0.00  0.00    +0.000 C 
ATOM     19  C   UNL     1      35.953   5.412  12.298  0.00  0.00    +0.000 C 
ENDBRANCH   2  16
BRANCH   1  21
ATOM     20  N   UNL     1      36.910   3.260  16.770  0.00  0.00    +0.000 NA
ATOM     21  C   UNL     1      37.916   3.754  15.968  0.00  0.00    +0.000 C 
ATOM     22  O   UNL     1      38.817   2.939  15.609  0.00  0.00    +0.000 OA
BRANCH  20  23
ATOM     23  C   UNL     1      36.569   2.045  17.328  0.00  0.00    +0.000 C 
BRANCH  23  24
ATOM     24  C   UNL     1      35.341   1.345  16.866  0.00  0.00    +0.000 C 
BRANCH  24  25
ATOM     25  C   UNL     1      35.760   0.407  15.705  0.00  0.00    +0.000 C 
BRANCH  25  27
ATOM     26  C   UNL     1      35.468  -1.483  17.279  0.00  0.00    +0.000 C 
ATOM     27  N   UNL     1      36.346  -0.800  16.320  0.00  0.00    +0.000 N 
BRANCH  27  28
ATOM     28  C   UNL     1      37.617  -1.300  15.993  0.00  0.00    +0.000 A 
ATOM     29  C   UNL     1      38.576  -0.711  15.244  0.00  0.00    +0.000 A 
ATOM     30  C   UNL     1      39.794  -1.277  14.984  0.00  0.00    +0.000 A 
ATOM     31  C   UNL     1      40.064  -2.538  15.524  0.00  0.00    +0.000 A 
ATOM     32  C   UNL     1      39.110  -3.139  16.276  0.00  0.00    +0.000 A 
ATOM     33  C   UNL     1      37.910  -2.575  16.529  0.00  0.00    +0.000 A 
ENDBRANCH  27  28
ENDBRANCH  25  27
ENDBRANCH  24  25
ENDBRANCH  23  24
ENDBRANCH  20  23
ENDBRANCH   1  21
TORSDOF 8
ENDMDL
MODEL 7
REMARK VINA RESULT:      -6.3     24.917     27.783
REMARK  Name = 
REMARK  8 active torsions:
REMARK  status: ('A' for Active; 'I' for Inactive)
REMARK    1  A    between atoms: N_2  and  C_3
REMARK    2  A    between atoms: N_2  and  C_28
REMARK    3  A    between atoms: C_3  and  C_4
REMARK    4  A    between atoms: C_4  and  C_5
REMARK    5  A    between atoms: C_5  and  N_6
REMARK    6  A    between atoms: C_7  and  C_9
REMARK    7  A    between atoms: C_10  and  C_11
REMARK    8  A    between atoms: C_17  and  C_18
REMARK                            x       y       z     vdW  Elec       q    Type
REMARK                         _______ _______ _______ _____ _____    ______ ____
ROOT
ATOM      1  C   UNL     1      38.699   5.261  15.131  0.00  0.00    +0.000 A 
ATOM      2  C   UNL     1      37.562   5.734  14.426  0.00  0.00    +0.000 A 
ATOM      3  N   UNL     1      37.725   7.055  14.400  0.00  0.00    +0.000 NA
ATOM      4  O   UNL     1      38.806   7.397  14.998  0.00  0.00    +0.000 OA
ATOM      5  C   UNL     1      39.460   6.317  15.482  0.00  0.00    +0.000 A 
ENDROOT
BRANCH   5   6
ATOM      6  C   UNL     1      40.707   6.390  16.200  0.00  0.00    +0.000 A 
ATOM      7  C   UNL     1      41.861   6.535  15.396  0.00  0.00    +0.000 A 
ATOM      8  C   UNL     1      43.112   6.677  15.873  0.00  0.00    +0.000 A 
ATOM      9  C   UNL     1      43.277   6.684  17.235  0.00  0.00    +0.000 A 
ATOM     10  C   UNL     1      42.196   6.550  18.090  0.00  0.00    +0.000 A 
ATOM     11  C   UNL     1      42.350   6.581  19.442  0.00  0.00    +0.000 A 
ATOM     12  C   UNL     1      41.270   6.476  20.312  0.00  0.00    +0.000 A 
ATOM     13  C   UNL     1      40.025   6.339  19.746  0.00  0.00    +0.000 A 
ATOM     14  C   UNL     1      39.894   6.309  18.403  0.00  0.00    +0.000 A 
ATOM     15  C   UNL     1      40.930   6.405  17.544  0.00  0.00    +0.000 A 
ENDBRANCH   5   6
BRANCH   2  16
ATOM     16  C   UNL     1      36.473   4.900  13.877  0.00  0.00    +0.000 C 
ATOM     17  C   UNL     1      35.886   3.950  14.859  0.00  0.00    +0.000 C 
ATOM     18  C   UNL     1      36.992   4.041  12.709  0.00  0.00    +0.000 C 
ATOM     19  C   UNL     1      35.377   5.780  13.303  0.00  0.00    +0.000 C 
ENDBRANCH   2  16
BRANCH   1  21
ATOM     20  N   UNL     1      39.465   2.961  14.443  0.00  0.00    +0.000 NA
ATOM     21  C   UNL     1      38.862   3.827  15.328  0.00  0.00    +0.000 C 
ATOM     22  O   UNL     1      38.410   3.329  16.402  0.00  0.00    +0.000 OA
BRANCH  20  23
ATOM     23  C   UNL     1      39.750   1.612  14.386  0.00  0.00    +0.000 C 
BRANCH  23  24
ATOM     24  C   UNL     1      38.663   0.646  14.076  0.00  0.00    +0.000 C 
BRANCH  24  25
ATOM     25  C   UNL     1      38.824  -0.549  15.051  0.00  0.00    +0.000 C 
BRANCH  25  27
ATOM     26  C   UNL     1      37.673  -2.363  13.817  0.00  0.00    +0.000 C 
ATOM     27  N   UNL     1      37.614  -1.383  14.910  0.00  0.00    +0.000 N 
BRANCH  27  28
ATOM     28  C   UNL     1      36.507  -1.296  15.768  0.00  0.00    +0.000 A 
ATOM     29  C   UNL     1      36.164  -0.275  16.585  0.00  0.00    +0.000 A 
ATOM     30  C   UNL     1      35.054  -0.279  17.386  0.00  0.00    +0.000 A 
ATOM     31  C   UNL     1      34.226  -1.405  17.357  0.00  0.00    +0.000 A 
ATOM     32  C   UNL     1      34.559  -2.436  16.542  0.00  0.00    +0.000 A 
ATOM     33  C   UNL     1      35.655  -2.425  15.755  0.00  0.00    +0.000 A 
ENDBRANCH  27  28
ENDBRANCH  25  27
ENDBRANCH  24  25
ENDBRANCH  23  24
ENDBRANCH  20  23
ENDBRANCH   1  21
TORSDOF 8
ENDMDL
MODEL 8
REMARK VINA RESULT:      -6.3     27.255     30.194
REMARK  Name = 
REMARK  8 active torsions:
REMARK  status: ('A' for Active; 'I' for Inactive)
REMARK    1  A    between atoms: N_2  and  C_3
REMARK    2  A    between atoms: N_2  and  C_28
REMARK    3  A    between atoms: C_3  and  C_4
REMARK    4  A    between atoms: C_4  and  C_5
REMARK    5  A    between atoms: C_5  and  N_6
REMARK    6  A    between atoms: C_7  and  C_9
REMARK    7  A    between atoms: C_10  and  C_11
REMARK    8  A    between atoms: C_17  and  C_18
REMARK                            x       y       z     vdW  Elec       q    Type
REMARK                         _______ _______ _______ _____ _____    ______ ____
ROOT
ATOM      1  C   UNL     1      39.420  -1.636  14.726  0.00  0.00    +0.000 A 
ATOM      2  C   UNL     1      40.756  -2.116  14.720  0.00  0.00    +0.000 A 
ATOM      3  N   UNL     1      40.720  -3.178  15.521  0.00  0.00    +0.000 NA
ATOM      4  O   UNL     1      39.539  -3.367  15.983  0.00  0.00    +0.000 OA
ATOM      5  C   UNL     1      38.678  -2.430  15.524  0.00  0.00    +0.000 A 
ENDROOT
BRANCH   5   6
ATOM      6  C   UNL     1      37.281  -2.387  15.869  0.00  0.00    +0.000 A 
ATOM      7  C   UNL     1      36.421  -3.106  15.008  0.00  0.00    +0.000 A 
ATOM      8  C   UNL     1      35.093  -3.237  15.187  0.00  0.00    +0.000 A 
ATOM      9  C   UNL     1      34.537  -2.631  16.285  0.00  0.00    +0.000 A 
ATOM     10  C   UNL     1      35.312  -1.910  17.177  0.00  0.00    +0.000 A 
ATOM     11  C   UNL     1      34.769  -1.327  18.281  0.00  0.00    +0.000 A 
ATOM     12  C   UNL     1      35.541  -0.624  19.200  0.00  0.00    +0.000 A 
ATOM     13  C   UNL     1      36.889  -0.542  18.948  0.00  0.00    +0.000 A 
ATOM     14  C   UNL     1      37.407  -1.125  17.847  0.00  0.00    +0.000 A 
ATOM     15  C   UNL     1      36.674  -1.807  16.942  0.00  0.00    +0.000 A 
ENDBRANCH   5   6
BRANCH   2  16
ATOM     16  C   UNL     1      41.888  -1.522  13.980  0.00  0.00    +0.000 C 
ATOM     17  C   UNL     1      43.223  -1.983  14.448  0.00  0.00    +0.000 C 
ATOM     18  C   UNL     1      41.886   0.010  14.136  0.00  0.00    +0.000 C 
ATOM     19  C   UNL     1      41.746  -1.799  12.494  0.00  0.00    +0.000 C 
ENDBRANCH   2  16
BRANCH   1  21
ATOM     20  N   UNL     1      38.682  -0.501  12.600  0.00  0.00    +0.000 NA
ATOM     21  C   UNL     1      39.085  -0.472  13.918  0.00  0.00    +0.000 C 
ATOM     22  O   UNL     1      39.172   0.667  14.468  0.00  0.00    +0.000 OA
BRANCH  20  23
ATOM     23  C   UNL     1      38.308   0.416  11.639  0.00  0.00    +0.000 C 
BRANCH  23  24
ATOM     24  C   UNL     1      38.759   1.828  11.759  0.00  0.00    +0.000 C 
BRANCH  24  25
ATOM     25  C   UNL     1      37.485   2.712  11.790  0.00  0.00    +0.000 C 
BRANCH  25  27
ATOM     26  C   UNL     1      38.126   4.657  13.183  0.00  0.00    +0.000 C 
ATOM     27  N   UNL     1      37.445   3.358  13.117  0.00  0.00    +0.000 N 
BRANCH  27  28
ATOM     28  C   UNL     1      36.774   2.816  14.225  0.00  0.00    +0.000 A 
ATOM     29  C   UNL     1      35.915   1.772  14.249  0.00  0.00    +0.000 A 
ATOM     30  C   UNL     1      35.312   1.309  15.387  0.00  0.00    +0.000 A 
ATOM     31  C   UNL     1      35.600   1.952  16.595  0.00  0.00    +0.000 A 
ATOM     32  C   UNL     1      36.460   3.000  16.582  0.00  0.00    +0.000 A 
ATOM     33  C   UNL     1      37.051   3.452  15.457  0.00  0.00    +0.000 A 
ENDBRANCH  27  28
ENDBRANCH  25  27
ENDBRANCH  24  25
ENDBRANCH  23  24
ENDBRANCH  20  23
ENDBRANCH   1  21
TORSDOF 8
ENDMDL
MODEL 9
REMARK VINA RESULT:      -6.3     25.903     28.842
REMARK  Name = 
REMARK  8 active torsions:
REMARK  status: ('A' for Active; 'I' for Inactive)
REMARK    1  A    between atoms: N_2  and  C_3
REMARK    2  A    between atoms: N_2  and  C_28
REMARK    3  A    between atoms: C_3  and  C_4
REMARK    4  A    between atoms: C_4  and  C_5
REMARK    5  A    between atoms: C_5  and  N_6
REMARK    6  A    between atoms: C_7  and  C_9
REMARK    7  A    between atoms: C_10  and  C_11
REMARK    8  A    between atoms: C_17  and  C_18
REMARK                            x       y       z     vdW  Elec       q    Type
REMARK                         _______ _______ _______ _____ _____    ______ ____
ROOT
ATOM      1  C   UNL     1      36.268   0.917  15.668  0.00  0.00    +0.000 A 
ATOM      2  C   UNL     1      35.433   0.054  16.425  0.00  0.00    +0.000 A 
ATOM      3  N   UNL     1      34.574   0.877  17.021  0.00  0.00    +0.000 NA
ATOM      4  O   UNL     1      34.809   2.096  16.703  0.00  0.00    +0.000 OA
ATOM      5  C   UNL     1      35.862   2.189  15.860  0.00  0.00    +0.000 A 
ENDROOT
BRANCH   5   6
ATOM      6  C   UNL     1      36.358   3.433  15.330  0.00  0.00    +0.000 A 
ATOM      7  C   UNL     1      35.803   3.828  14.092  0.00  0.00    +0.000 A 
ATOM      8  C   UNL     1      36.090   4.981  13.458  0.00  0.00    +0.000 A 
ATOM      9  C   UNL     1      36.984   5.831  14.058  0.00  0.00    +0.000 A 
ATOM     10  C   UNL     1      37.570   5.516  15.272  0.00  0.00    +0.000 A 
ATOM     11  C   UNL     1      38.438   6.368  15.885  0.00  0.00    +0.000 A 
ATOM     12  C   UNL     1      39.012   6.077  17.117  0.00  0.00    +0.000 A 
ATOM     13  C   UNL     1      38.662   4.883  17.702  0.00  0.00    +0.000 A 
ATOM     14  C   UNL     1      37.801   4.053  17.077  0.00  0.00    +0.000 A 
ATOM     15  C   UNL     1      37.238   4.316  15.879  0.00  0.00    +0.000 A 
ENDBRANCH   5   6
BRANCH   2  16
ATOM     16  C   UNL     1      35.548  -1.417  16.500  0.00  0.00    +0.000 C 
ATOM     17  C   UNL     1      35.770  -2.074  15.184  0.00  0.00    +0.000 C 
ATOM     18  C   UNL     1      34.254  -2.027  17.070  0.00  0.00    +0.000 C 
ATOM     19  C   UNL     1      36.660  -1.808  17.458  0.00  0.00    +0.000 C 
ENDBRANCH   2  16
BRANCH   1  21
ATOM     20  N   UNL     1      37.223   0.007  13.521  0.00  0.00    +0.000 NA
ATOM     21  C   UNL     1      37.328   0.340  14.854  0.00  0.00    +0.000 C 
ATOM     22  O   UNL     1      38.443   0.121  15.415  0.00  0.00    +0.000 OA
BRANCH  20  23
ATOM     23  C   UNL     1      38.042  -0.525  12.546  0.00  0.00    +0.000 C 
BRANCH  23  24
ATOM     24  C   UNL     1      38.331   0.266  11.321  0.00  0.00    +0.000 C 
BRANCH  24  25
ATOM     25  C   UNL     1      37.382   1.492  11.335  0.00  0.00    +0.000 C 
BRANCH  25  27
ATOM     26  C   UNL     1      38.058   3.165   9.638  0.00  0.00    +0.000 C 
ATOM     27  N   UNL     1      38.205   2.675  11.015  0.00  0.00    +0.000 N 
BRANCH  27  28
ATOM     28  C   UNL     1      39.030   3.322  11.949  0.00  0.00    +0.000 A 
ATOM     29  C   UNL     1      39.417   2.880  13.166  0.00  0.00    +0.000 A 
ATOM     30  C   UNL     1      40.234   3.584  14.008  0.00  0.00    +0.000 A 
ATOM     31  C   UNL     1      40.696   4.834  13.585  0.00  0.00    +0.000 A 
ATOM     32  C   UNL     1      40.314   5.289  12.367  0.00  0.00    +0.000 A 
ATOM     33  C   UNL     1      39.509   4.588  11.541  0.00  0.00    +0.000 A 
ENDBRANCH  27  28
ENDBRANCH  25  27
ENDBRANCH  24  25
ENDBRANCH  23  24
ENDBRANCH  20  23
ENDBRANCH   1  21
TORSDOF 8
ENDMDL
MODEL 10
REMARK VINA RESULT:      -6.3     26.948     29.775
REMARK  Name = 
REMARK  8 active torsions:
REMARK  status: ('A' for Active; 'I' for Inactive)
REMARK    1  A    between atoms: N_2  and  C_3
REMARK    2  A    between atoms: N_2  and  C_28
REMARK    3  A    between atoms: C_3  and  C_4
REMARK    4  A    between atoms: C_4  and  C_5
REMARK    5  A    between atoms: C_5  and  N_6
REMARK    6  A    between atoms: C_7  and  C_9
REMARK    7  A    between atoms: C_10  and  C_11
REMARK    8  A    between atoms: C_17  and  C_18
REMARK                            x       y       z     vdW  Elec       q    Type
REMARK                         _______ _______ _______ _____ _____    ______ ____
ROOT
ATOM      1  C   UNL     1      39.304  -1.766  14.452  0.00  0.00    +0.000 A 
ATOM      2  C   UNL     1      40.688  -2.040  14.603  0.00  0.00    +0.000 A 
ATOM      3  N   UNL     1      40.723  -3.070  15.445  0.00  0.00    +0.000 NA
ATOM      4  O   UNL     1      39.540  -3.419  15.794  0.00  0.00    +0.000 OA
ATOM      5  C   UNL     1      38.606  -2.637  15.207  0.00  0.00    +0.000 A 
ENDROOT
BRANCH   5   6
ATOM      6  C   UNL     1      37.188  -2.793  15.408  0.00  0.00    +0.000 A 
ATOM      7  C   UNL     1      36.584  -3.840  14.674  0.00  0.00    +0.000 A 
ATOM      8  C   UNL     1      35.285  -4.185  14.763  0.00  0.00    +0.000 A 
ATOM      9  C   UNL     1      34.495  -3.472  15.628  0.00  0.00    +0.000 A 
ATOM     10  C   UNL     1      35.012  -2.434  16.383  0.00  0.00    +0.000 A 
ATOM     11  C   UNL     1      34.239  -1.739  17.262  0.00  0.00    +0.000 A 
ATOM     12  C   UNL     1      34.752  -0.712  18.047  0.00  0.00    +0.000 A 
ATOM     13  C   UNL     1      36.088  -0.425  17.902  0.00  0.00    +0.000 A 
ATOM     14  C   UNL     1      36.837  -1.125  17.025  0.00  0.00    +0.000 A 
ATOM     15  C   UNL     1      36.356  -2.120  16.251  0.00  0.00    +0.000 A 
ENDBRANCH   5   6
BRANCH   2  16
ATOM     16  C   UNL     1      41.794  -1.307  13.954  0.00  0.00    +0.000 C 
ATOM     17  C   UNL     1      41.659   0.173  14.022  0.00  0.00    +0.000 C 
ATOM     18  C   UNL     1      41.867  -1.661  12.457  0.00  0.00    +0.000 C 
ATOM     19  C   UNL     1      43.125  -1.725  14.554  0.00  0.00    +0.000 C 
ENDBRANCH   2  16
BRANCH   1  21
ATOM     20  N   UNL     1      38.624   0.606  13.942  0.00  0.00    +0.000 NA
ATOM     21  C   UNL     1      38.891  -0.691  13.561  0.00  0.00    +0.000 C 
ATOM     22  O   UNL     1      38.763  -0.967  12.331  0.00  0.00    +0.000 OA
BRANCH  20  23
ATOM     23  C   UNL     1      38.239   1.780  13.326  0.00  0.00    +0.000 C 
BRANCH  23  24
ATOM     24  C   UNL     1      37.083   2.544  13.864  0.00  0.00    +0.000 C 
BRANCH  24  25
ATOM     25  C   UNL     1      37.442   2.952  15.317  0.00  0.00    +0.000 C 
BRANCH  25  27
ATOM     26  C   UNL     1      37.434   5.120  14.119  0.00  0.00    +0.000 C 
ATOM     27  N   UNL     1      37.931   4.343  15.263  0.00  0.00    +0.000 N 
BRANCH  27  28
ATOM     28  C   UNL     1      38.762   4.913  16.240  0.00  0.00    +0.000 A 
ATOM     29  C   UNL     1      39.889   5.638  16.054  0.00  0.00    +0.000 A 
ATOM     30  C   UNL     1      40.634   6.161  17.076  0.00  0.00    +0.000 A 
ATOM     31  C   UNL     1      40.207   5.934  18.387  0.00  0.00    +0.000 A 
ATOM     32  C   UNL     1      39.079   5.208  18.586  0.00  0.00    +0.000 A 
ATOM     33  C   UNL     1      38.348   4.696  17.574  0.00  0.00    +0.000 A 
ENDBRANCH  27  28
ENDBRANCH  25  27
ENDBRANCH  24  25
ENDBRANCH  23  24
ENDBRANCH  20  23
ENDBRANCH   1  21
TORSDOF 8
ENDMDL
