MODEL 1
REMARK VINA RESULT:      -6.9      0.000      0.000
REMARK  Name = 
REMARK  4 active torsions:
REMARK  status: ('A' for Active; 'I' for Inactive)
REMARK    1  A    between atoms: C_2  and  N_3
REMARK    2  A    between atoms: C_7  and  C_8
REMARK    3  A    between atoms: N_13  and  C_14
REMARK    4  A    between atoms: C_14  and  C_15
REMARK                            x       y       z     vdW  Elec       q    Type
REMARK                         _______ _______ _______ _____ _____    ______ ____
ROOT
ATOM      1  C   UNL     1      17.160  10.078  35.744  0.00  0.00    +0.000 C 
ATOM      2  O   UNL     1      17.260   8.813  35.417  0.00  0.00    +0.000 OA
ATOM      3  N   UNL     1      17.802  10.370  36.949  0.00  0.00    +0.000 N 
ATOM      4  C   UNL     1      17.894  11.636  37.626  0.00  0.00    +0.000 C 
ATOM      5  C   UNL     1      19.319  12.095  37.705  0.00  0.00    +0.000 C 
ATOM      6  N   UNL     1      20.191  10.958  37.900  0.00  0.00    +0.000 NA
ATOM      7  C   UNL     1      19.492   9.959  38.655  0.00  0.00    +0.000 C 
ATOM      8  C   UNL     1      18.501   9.287  37.697  0.00  0.00    +0.000 C 
ENDROOT
BRANCH   1  13
ATOM      9  N   UNL     1      15.509  11.859  34.973  0.00  0.00    +0.000 N 
ATOM     10  N   UNL     1      15.098  12.331  33.779  0.00  0.00    +0.000 NA
ATOM     11  C   UNL     1      15.763  11.698  32.818  0.00  0.00    +0.000 A 
ATOM     12  C   UNL     1      16.598  10.819  33.448  0.00  0.00    +0.000 A 
ATOM     13  C   UNL     1      16.435  10.920  34.847  0.00  0.00    +0.000 A 
BRANCH   9  15
ATOM     14  C   UNL     1      13.727  11.587  36.591  0.00  0.00    +0.000 C 
ATOM     15  C   UNL     1      15.016  12.366  36.259  0.00  0.00    +0.000 C 
ENDBRANCH   9  15
ENDBRANCH   1  13
BRANCH   6  16
ATOM     16  C   UNL     1      21.449  11.337  38.510  0.00  0.00    +0.000 C 
BRANCH  16  17
ATOM     17  C   UNL     1      22.587  10.970  37.654  0.00  0.00    +0.000 A 
ATOM     18  C   UNL     1      22.521   9.812  36.882  0.00  0.00    +0.000 A 
ATOM     19  C   UNL     1      23.598   9.490  36.088  0.00  0.00    +0.000 A 
ATOM     20  C   UNL     1      24.721  10.301  36.060  0.00  0.00    +0.000 A 
ATOM     21  C   UNL     1      24.752  11.420  36.826  0.00  0.00    +0.000 A 
ATOM     22  C   UNL     1      23.702  11.781  37.631  0.00  0.00    +0.000 A 
ATOM     23  I   UNL     1      23.728  13.503  38.818  0.00  0.00    +0.000 I 
ENDBRANCH  16  17
ENDBRANCH   6  16
TORSDOF 4
ENDMDL
MODEL 2
REMARK VINA RESULT:      -6.4     21.612     22.816
REMARK  Name = 
REMARK  4 active torsions:
REMARK  status: ('A' for Active; 'I' for Inactive)
REMARK    1  A    between atoms: C_2  and  N_3
REMARK    2  A    between atoms: C_7  and  C_8
REMARK    3  A    between atoms: N_13  and  C_14
REMARK    4  A    between atoms: C_14  and  C_15
REMARK                            x       y       z     vdW  Elec       q    Type
REMARK                         _______ _______ _______ _____ _____    ______ ____
ROOT
ATOM      1  C   UNL     1      12.700  -8.794  25.702  0.00  0.00    +0.000 C 
ATOM      2  O   UNL     1      12.480  -7.683  25.043  0.00  0.00    +0.000 OA
ATOM      3  N   UNL     1      13.988  -9.291  25.495  0.00  0.00    +0.000 N 
ATOM      4  C   UNL     1      14.580 -10.484  26.038  0.00  0.00    +0.000 C 
ATOM      5  C   UNL     1      15.742 -10.146  26.924  0.00  0.00    +0.000 C 
ATOM      6  N   UNL     1      16.454  -9.008  26.387  0.00  0.00    +0.000 NA
ATOM      7  C   UNL     1      16.349  -9.026  24.957  0.00  0.00    +0.000 C 
ATOM      8  C   UNL     1      14.932  -8.555  24.607  0.00  0.00    +0.000 C 
ENDROOT
BRANCH   1  13
ATOM      9  N   UNL     1      10.347  -9.578  26.284  0.00  0.00    +0.000 N 
ATOM     10  N   UNL     1       9.726  -9.992  27.406  0.00  0.00    +0.000 NA
ATOM     11  C   UNL     1      10.604  -9.993  28.404  0.00  0.00    +0.000 A 
ATOM     12  C   UNL     1      11.788  -9.569  27.871  0.00  0.00    +0.000 A 
ATOM     13  C   UNL     1      11.624  -9.297  26.494  0.00  0.00    +0.000 A 
BRANCH   9  15
ATOM     14  C   UNL     1       8.190  -9.782  25.202  0.00  0.00    +0.000 C 
ATOM     15  C   UNL     1       9.688  -9.497  24.975  0.00  0.00    +0.000 C 
ENDBRANCH   9  15
ENDBRANCH   1  13
BRANCH   6  16
ATOM     16  C   UNL     1      17.829  -8.963  26.843  0.00  0.00    +0.000 C 
BRANCH  16  17
ATOM     17  C   UNL     1      18.423  -7.639  26.608  0.00  0.00    +0.000 A 
ATOM     18  C   UNL     1      17.793  -6.503  27.113  0.00  0.00    +0.000 A 
ATOM     19  C   UNL     1      18.369  -5.275  26.880  0.00  0.00    +0.000 A 
ATOM     20  C   UNL     1      19.548  -5.174  26.159  0.00  0.00    +0.000 A 
ATOM     21  C   UNL     1      20.133  -6.300  25.681  0.00  0.00    +0.000 A 
ATOM     22  C   UNL     1      19.596  -7.545  25.889  0.00  0.00    +0.000 A 
ATOM     23  I   UNL     1      20.483  -9.294  25.161  0.00  0.00    +0.000 I 
ENDBRANCH  16  17
ENDBRANCH   6  16
TORSDOF 4
ENDMDL
MODEL 3
REMARK VINA RESULT:      -6.4     16.471     18.154
REMARK  Name = 
REMARK  4 active torsions:
REMARK  status: ('A' for Active; 'I' for Inactive)
REMARK    1  A    between atoms: C_2  and  N_3
REMARK    2  A    between atoms: C_7  and  C_8
REMARK    3  A    between atoms: N_13  and  C_14
REMARK    4  A    between atoms: C_14  and  C_15
REMARK                            x       y       z     vdW  Elec       q    Type
REMARK                         _______ _______ _______ _____ _____    ______ ____
ROOT
ATOM      1  C   UNL     1      26.545  23.708  30.355  0.00  0.00    +0.000 C 
ATOM      2  O   UNL     1      26.013  22.546  30.647  0.00  0.00    +0.000 OA
ATOM      3  N   UNL     1      27.933  23.711  30.495  0.00  0.00    +0.000 N 
ATOM      4  C   UNL     1      28.849  24.798  30.276  0.00  0.00    +0.000 C 
ATOM      5  C   UNL     1      29.787  24.486  29.150  0.00  0.00    +0.000 C 
ATOM      6  N   UNL     1      30.121  23.079  29.164  0.00  0.00    +0.000 NA
ATOM      7  C   UNL     1      30.107  22.611  30.519  0.00  0.00    +0.000 C 
ATOM      8  C   UNL     1      28.636  22.470  30.928  0.00  0.00    +0.000 C 
ENDROOT
BRANCH   1  13
ATOM      9  N   UNL     1      25.146  25.172  28.809  0.00  0.00    +0.000 N 
ATOM     10  N   UNL     1      24.357  26.253  28.968  0.00  0.00    +0.000 NA
ATOM     11  C   UNL     1      24.319  26.567  30.259  0.00  0.00    +0.000 A 
ATOM     12  C   UNL     1      25.107  25.652  30.897  0.00  0.00    +0.000 A 
ATOM     13  C   UNL     1      25.647  24.745  29.958  0.00  0.00    +0.000 A 
BRANCH   9  15
ATOM     14  C   UNL     1      26.696  25.095  26.949  0.00  0.00    +0.000 C 
ATOM     15  C   UNL     1      25.380  24.523  27.513  0.00  0.00    +0.000 C 
ENDBRANCH   9  15
ENDBRANCH   1  13
BRANCH   6  16
ATOM     16  C   UNL     1      31.379  22.812  28.497  0.00  0.00    +0.000 C 
BRANCH  16  17
ATOM     17  C   UNL     1      31.254  22.975  27.041  0.00  0.00    +0.000 A 
ATOM     18  C   UNL     1      30.297  22.238  26.346  0.00  0.00    +0.000 A 
ATOM     19  C   UNL     1      30.199  22.408  24.984  0.00  0.00    +0.000 A 
ATOM     20  C   UNL     1      31.034  23.293  24.322  0.00  0.00    +0.000 A 
ATOM     21  C   UNL     1      31.955  23.993  25.029  0.00  0.00    +0.000 A 
ATOM     22  C   UNL     1      32.088  23.857  26.387  0.00  0.00    +0.000 A 
ATOM     23  I   UNL     1      33.501  24.929  27.498  0.00  0.00    +0.000 I 
ENDBRANCH  16  17
ENDBRANCH   6  16
TORSDOF 4
ENDMDL
MODEL 4
REMARK VINA RESULT:      -6.3     23.930     25.453
REMARK  Name = 
REMARK  4 active torsions:
REMARK  status: ('A' for Active; 'I' for Inactive)
REMARK    1  A    between atoms: C_2  and  N_3
REMARK    2  A    between atoms: C_7  and  C_8
REMARK    3  A    between atoms: N_13  and  C_14
REMARK    4  A    between atoms: C_14  and  C_15
REMARK                            x       y       z     vdW  Elec       q    Type
REMARK                         _______ _______ _______ _____ _____    ______ ____
ROOT
ATOM      1  C   UNL     1      28.840  25.158  21.301  0.00  0.00    +0.000 C 
ATOM      2  O   UNL     1      29.793  24.461  20.734  0.00  0.00    +0.000 OA
ATOM      3  N   UNL     1      28.876  26.506  20.940  0.00  0.00    +0.000 N 
ATOM      4  C   UNL     1      28.005  27.567  21.369  0.00  0.00    +0.000 C 
ATOM      5  C   UNL     1      27.236  28.126  20.210  0.00  0.00    +0.000 C 
ATOM      6  N   UNL     1      28.066  28.129  19.025  0.00  0.00    +0.000 NA
ATOM      7  C   UNL     1      29.432  28.322  19.415  0.00  0.00    +0.000 C 
ATOM      8  C   UNL     1      29.923  26.991  19.997  0.00  0.00    +0.000 C 
ENDROOT
BRANCH   1  13
ATOM      9  N   UNL     1      28.024  23.958  23.395  0.00  0.00    +0.000 N 
ATOM     10  N   UNL     1      26.896  23.310  23.750  0.00  0.00    +0.000 NA
ATOM     11  C   UNL     1      26.036  23.365  22.738  0.00  0.00    +0.000 A 
ATOM     12  C   UNL     1      26.661  24.064  21.744  0.00  0.00    +0.000 A 
ATOM     13  C   UNL     1      27.953  24.449  22.168  0.00  0.00    +0.000 A 
BRANCH   9  15
ATOM     14  C   UNL     1      29.920  22.784  24.342  0.00  0.00    +0.000 C 
ATOM     15  C   UNL     1      29.174  24.132  24.291  0.00  0.00    +0.000 C 
ENDBRANCH   9  15
ENDBRANCH   1  13
BRANCH   6  16
ATOM     16  C   UNL     1      27.622  29.107  18.053  0.00  0.00    +0.000 C 
BRANCH  16  17
ATOM     17  C   UNL     1      28.433  29.045  16.828  0.00  0.00    +0.000 A 
ATOM     18  C   UNL     1      28.642  27.817  16.203  0.00  0.00    +0.000 A 
ATOM     19  C   UNL     1      29.404  27.784  15.058  0.00  0.00    +0.000 A 
ATOM     20  C   UNL     1      29.951  28.948  14.542  0.00  0.00    +0.000 A 
ATOM     21  C   UNL     1      29.729  30.126  15.177  0.00  0.00    +0.000 A 
ATOM     22  C   UNL     1      28.975  30.206  16.319  0.00  0.00    +0.000 A 
ATOM     23  I   UNL     1      28.619  32.012  17.314  0.00  0.00    +0.000 I 
ENDBRANCH  16  17
ENDBRANCH   6  16
TORSDOF 4
ENDMDL
MODEL 5
REMARK VINA RESULT:      -6.2     21.648     23.535
REMARK  Name = 
REMARK  4 active torsions:
REMARK  status: ('A' for Active; 'I' for Inactive)
REMARK    1  A    between atoms: C_2  and  N_3
REMARK    2  A    between atoms: C_7  and  C_8
REMARK    3  A    between atoms: N_13  and  C_14
REMARK    4  A    between atoms: C_14  and  C_15
REMARK                            x       y       z     vdW  Elec       q    Type
REMARK                         _______ _______ _______ _____ _____    ______ ____
ROOT
ATOM      1  C   UNL     1      18.297  -8.295  27.174  0.00  0.00    +0.000 C 
ATOM      2  O   UNL     1      18.452  -8.512  28.457  0.00  0.00    +0.000 OA
ATOM      3  N   UNL     1      17.660  -9.355  26.527  0.00  0.00    +0.000 N 
ATOM      4  C   UNL     1      17.332  -9.479  25.132  0.00  0.00    +0.000 C 
ATOM      5  C   UNL     1      15.847  -9.549  24.938  0.00  0.00    +0.000 C 
ATOM      6  N   UNL     1      15.244 -10.287  26.026  0.00  0.00    +0.000 NA
ATOM      7  C   UNL     1      16.170 -11.282  26.483  0.00  0.00    +0.000 C 
ATOM      8  C   UNL     1      17.238 -10.553  27.307  0.00  0.00    +0.000 C 
ENDROOT
BRANCH   1  13
ATOM      9  N   UNL     1      19.799  -6.683  25.896  0.00  0.00    +0.000 N 
ATOM     10  N   UNL     1      19.863  -5.344  25.751  0.00  0.00    +0.000 NA
ATOM     11  C   UNL     1      18.869  -4.792  26.439  0.00  0.00    +0.000 A 
ATOM     12  C   UNL     1      18.186  -5.825  27.017  0.00  0.00    +0.000 A 
ATOM     13  C   UNL     1      18.789  -7.054  26.667  0.00  0.00    +0.000 A 
BRANCH   9  15
ATOM     14  C   UNL     1      22.015  -6.836  24.930  0.00  0.00    +0.000 C 
ATOM     15  C   UNL     1      20.720  -7.615  25.234  0.00  0.00    +0.000 C 
ENDBRANCH   9  15
ENDBRANCH   1  13
BRANCH   6  16
ATOM     16  C   UNL     1      13.962 -10.850  25.655  0.00  0.00    +0.000 C 
BRANCH  16  17
ATOM     17  C   UNL     1      12.930 -10.523  26.650  0.00  0.00    +0.000 A 
ATOM     18  C   UNL     1      12.941 -11.163  27.888  0.00  0.00    +0.000 A 
ATOM     19  C   UNL     1      11.965 -10.839  28.803  0.00  0.00    +0.000 A 
ATOM     20  C   UNL     1      10.995  -9.900  28.496  0.00  0.00    +0.000 A 
ATOM     21  C   UNL     1      11.013  -9.297  27.281  0.00  0.00    +0.000 A 
ATOM     22  C   UNL     1      11.967  -9.587  26.339  0.00  0.00    +0.000 A 
ATOM     23  I   UNL     1      12.014  -8.669  24.459  0.00  0.00    +0.000 I 
ENDBRANCH  16  17
ENDBRANCH   6  16
TORSDOF 4
ENDMDL
MODEL 6
REMARK VINA RESULT:      -6.0     18.053     19.514
REMARK  Name = 
REMARK  4 active torsions:
REMARK  status: ('A' for Active; 'I' for Inactive)
REMARK    1  A    between atoms: C_2  and  N_3
REMARK    2  A    between atoms: C_7  and  C_8
REMARK    3  A    between atoms: N_13  and  C_14
REMARK    4  A    between atoms: C_14  and  C_15
REMARK                            x       y       z     vdW  Elec       q    Type
REMARK                         _______ _______ _______ _____ _____    ______ ____
ROOT
ATOM      1  C   UNL     1      25.987  25.585  24.735  0.00  0.00    +0.000 C 
ATOM      2  O   UNL     1      26.414  26.541  23.947  0.00  0.00    +0.000 OA
ATOM      3  N   UNL     1      26.645  24.375  24.511  0.00  0.00    +0.000 N 
ATOM      4  C   UNL     1      26.440  23.113  25.171  0.00  0.00    +0.000 C 
ATOM      5  C   UNL     1      27.669  22.697  25.921  0.00  0.00    +0.000 C 
ATOM      6  N   UNL     1      28.850  23.093  25.186  0.00  0.00    +0.000 NA
ATOM      7  C   UNL     1      28.559  23.055  23.783  0.00  0.00    +0.000 C 
ATOM      8  C   UNL     1      27.707  24.291  23.469  0.00  0.00    +0.000 C 
ENDROOT
BRANCH   1  13
ATOM      9  N   UNL     1      24.848  25.982  26.979  0.00  0.00    +0.000 N 
ATOM     10  N   UNL     1      23.606  26.323  27.375  0.00  0.00    +0.000 NA
ATOM     11  C   UNL     1      22.849  26.506  26.298  0.00  0.00    +0.000 A 
ATOM     12  C   UNL     1      23.656  26.269  25.221  0.00  0.00    +0.000 A 
ATOM     13  C   UNL     1      24.954  25.926  25.661  0.00  0.00    +0.000 A 
BRANCH   9  15
ATOM     14  C   UNL     1      25.681  24.407  28.621  0.00  0.00    +0.000 C 
ATOM     15  C   UNL     1      25.959  25.746  27.909  0.00  0.00    +0.000 C 
ENDBRANCH   9  15
ENDBRANCH   1  13
BRANCH   6  16
ATOM     16  C   UNL     1      30.003  22.290  25.537  0.00  0.00    +0.000 C 
BRANCH  16  17
ATOM     17  C   UNL     1      31.209  23.120  25.667  0.00  0.00    +0.000 A 
ATOM     18  C   UNL     1      31.912  23.496  24.524  0.00  0.00    +0.000 A 
ATOM     19  C   UNL     1      33.038  24.273  24.673  0.00  0.00    +0.000 A 
ATOM     20  C   UNL     1      33.461  24.670  25.931  0.00  0.00    +0.000 A 
ATOM     21  C   UNL     1      32.754  24.285  27.022  0.00  0.00    +0.000 A 
ATOM     22  C   UNL     1      31.625  23.511  26.923  0.00  0.00    +0.000 A 
ATOM     23  I   UNL     1      30.519  22.906  28.592  0.00  0.00    +0.000 I 
ENDBRANCH  16  17
ENDBRANCH   6  16
TORSDOF 4
ENDMDL
MODEL 7
REMARK VINA RESULT:      -6.0     17.534     19.031
REMARK  Name = 
REMARK  4 active torsions:
REMARK  status: ('A' for Active; 'I' for Inactive)
REMARK    1  A    between atoms: C_2  and  N_3
REMARK    2  A    between atoms: C_7  and  C_8
REMARK    3  A    between atoms: N_13  and  C_14
REMARK    4  A    between atoms: C_14  and  C_15
REMARK                            x       y       z     vdW  Elec       q    Type
REMARK                         _______ _______ _______ _____ _____    ______ ____
ROOT
ATOM      1  C   UNL     1      25.728  26.731  28.467  0.00  0.00    +0.000 C 
ATOM      2  O   UNL     1      26.418  27.838  28.347  0.00  0.00    +0.000 OA
ATOM      3  N   UNL     1      25.498  26.108  27.239  0.00  0.00    +0.000 N 
ATOM      4  C   UNL     1      24.774  24.893  26.978  0.00  0.00    +0.000 C 
ATOM      5  C   UNL     1      25.681  23.845  26.407  0.00  0.00    +0.000 C 
ATOM      6  N   UNL     1      26.656  24.462  25.535  0.00  0.00    +0.000 NA
ATOM      7  C   UNL     1      26.068  25.617  24.923  0.00  0.00    +0.000 C 
ATOM      8  C   UNL     1      26.031  26.719  25.989  0.00  0.00    +0.000 C 
ENDROOT
BRANCH   1  13
ATOM      9  N   UNL     1      25.728  25.448  30.668  0.00  0.00    +0.000 N 
ATOM     10  N   UNL     1      24.979  25.468  31.789  0.00  0.00    +0.000 NA
ATOM     11  C   UNL     1      24.056  26.418  31.668  0.00  0.00    +0.000 A 
ATOM     12  C   UNL     1      24.252  26.986  30.441  0.00  0.00    +0.000 A 
ATOM     13  C   UNL     1      25.336  26.357  29.789  0.00  0.00    +0.000 A 
BRANCH   9  15
ATOM     14  C   UNL     1      26.308  23.184  30.031  0.00  0.00    +0.000 C 
ATOM     15  C   UNL     1      26.872  24.549  30.475  0.00  0.00    +0.000 C 
ENDBRANCH   9  15
ENDBRANCH   1  13
BRANCH   6  16
ATOM     16  C   UNL     1      27.185  23.527  24.564  0.00  0.00    +0.000 C 
BRANCH  16  17
ATOM     17  C   UNL     1      28.622  23.296  24.776  0.00  0.00    +0.000 A 
ATOM     18  C   UNL     1      29.051  22.640  25.928  0.00  0.00    +0.000 A 
ATOM     19  C   UNL     1      30.401  22.437  26.103  0.00  0.00    +0.000 A 
ATOM     20  C   UNL     1      31.310  22.876  25.154  0.00  0.00    +0.000 A 
ATOM     21  C   UNL     1      30.858  23.512  24.045  0.00  0.00    +0.000 A 
ATOM     22  C   UNL     1      29.522  23.736  23.827  0.00  0.00    +0.000 A 
ATOM     23  I   UNL     1      28.803  24.714  22.123  0.00  0.00    +0.000 I 
ENDBRANCH  16  17
ENDBRANCH   6  16
TORSDOF 4
ENDMDL
MODEL 8
REMARK VINA RESULT:      -5.9      3.696      5.192
REMARK  Name = 
REMARK  4 active torsions:
REMARK  status: ('A' for Active; 'I' for Inactive)
REMARK    1  A    between atoms: C_2  and  N_3
REMARK    2  A    between atoms: C_7  and  C_8
REMARK    3  A    between atoms: N_13  and  C_14
REMARK    4  A    between atoms: C_14  and  C_15
REMARK                            x       y       z     vdW  Elec       q    Type
REMARK                         _______ _______ _______ _____ _____    ______ ____
ROOT
ATOM      1  C   UNL     1      18.911   7.068  40.496  0.00  0.00    +0.000 C 
ATOM      2  O   UNL     1      18.740   5.907  39.912  0.00  0.00    +0.000 OA
ATOM      3  N   UNL     1      20.229   7.268  40.910  0.00  0.00    +0.000 N 
ATOM      4  C   UNL     1      20.786   8.406  41.590  0.00  0.00    +0.000 C 
ATOM      5  C   UNL     1      21.819   9.082  40.740  0.00  0.00    +0.000 C 
ATOM      6  N   UNL     1      22.557   8.094  39.985  0.00  0.00    +0.000 NA
ATOM      7  C   UNL     1      22.629   6.883  40.750  0.00  0.00    +0.000 C 
ATOM      8  C   UNL     1      21.252   6.214  40.659  0.00  0.00    +0.000 C 
ENDROOT
BRANCH   1  13
ATOM      9  N   UNL     1      17.427   9.115  40.183  0.00  0.00    +0.000 N 
ATOM     10  N   UNL     1      16.207   9.489  40.617  0.00  0.00    +0.000 NA
ATOM     11  C   UNL     1      15.698   8.508  41.356  0.00  0.00    +0.000 A 
ATOM     12  C   UNL     1      16.636   7.515  41.370  0.00  0.00    +0.000 A 
ATOM     13  C   UNL     1      17.761   7.907  40.610  0.00  0.00    +0.000 A 
BRANCH   9  15
ATOM     14  C   UNL     1      17.445  10.209  38.022  0.00  0.00    +0.000 C 
ATOM     15  C   UNL     1      18.262   9.940  39.302  0.00  0.00    +0.000 C 
ENDBRANCH   9  15
ENDBRANCH   1  13
BRANCH   6  16
ATOM     16  C   UNL     1      23.863   8.578  39.587  0.00  0.00    +0.000 C 
BRANCH  16  17
ATOM     17  C   UNL     1      23.824   9.167  38.241  0.00  0.00    +0.000 A 
ATOM     18  C   UNL     1      22.602   9.300  37.584  0.00  0.00    +0.000 A 
ATOM     19  C   UNL     1      22.591   9.854  36.324  0.00  0.00    +0.000 A 
ATOM     20  C   UNL     1      23.769  10.269  35.726  0.00  0.00    +0.000 A 
ATOM     21  C   UNL     1      24.941  10.124  36.393  0.00  0.00    +0.000 A 
ATOM     22  C   UNL     1      25.000   9.578  37.650  0.00  0.00    +0.000 A 
ATOM     23  I   UNL     1      26.796   9.345  38.698  0.00  0.00    +0.000 I 
ENDBRANCH  16  17
ENDBRANCH   6  16
TORSDOF 4
ENDMDL
MODEL 9
REMARK VINA RESULT:      -5.9     19.045     21.981
REMARK  Name = 
REMARK  4 active torsions:
REMARK  status: ('A' for Active; 'I' for Inactive)
REMARK    1  A    between atoms: C_2  and  N_3
REMARK    2  A    between atoms: C_7  and  C_8
REMARK    3  A    between atoms: N_13  and  C_14
REMARK    4  A    between atoms: C_14  and  C_15
REMARK                            x       y       z     vdW  Elec       q    Type
REMARK                         _______ _______ _______ _____ _____    ______ ____
ROOT
ATOM      1  C   UNL     1      34.832  -6.151  31.689  0.00  0.00    +0.000 C 
ATOM      2  O   UNL     1      36.134  -6.276  31.613  0.00  0.00    +0.000 OA
ATOM      3  N   UNL     1      34.401  -5.820  32.975  0.00  0.00    +0.000 N 
ATOM      4  C   UNL     1      33.055  -5.614  33.438  0.00  0.00    +0.000 C 
ATOM      5  C   UNL     1      32.860  -4.201  33.899  0.00  0.00    +0.000 C 
ATOM      6  N   UNL     1      34.065  -3.723  34.539  0.00  0.00    +0.000 NA
ATOM      7  C   UNL     1      34.724  -4.826  35.175  0.00  0.00    +0.000 C 
ATOM      8  C   UNL     1      35.399  -5.643  34.067  0.00  0.00    +0.000 C 
ENDROOT
BRANCH   1  13
ATOM      9  N   UNL     1      33.212  -7.265  30.069  0.00  0.00    +0.000 N 
ATOM     10  N   UNL     1      32.838  -7.053  28.791  0.00  0.00    +0.000 NA
ATOM     11  C   UNL     1      33.479  -5.984  28.331  0.00  0.00    +0.000 A 
ATOM     12  C   UNL     1      34.263  -5.538  29.357  0.00  0.00    +0.000 A 
ATOM     13  C   UNL     1      34.092  -6.369  30.487  0.00  0.00    +0.000 A 
BRANCH   9  15
ATOM     14  C   UNL     1      33.635  -9.535  30.801  0.00  0.00    +0.000 C 
ATOM     15  C   UNL     1      32.666  -8.340  30.905  0.00  0.00    +0.000 C 
ENDBRANCH   9  15
ENDBRANCH   1  13
BRANCH   6  16
ATOM     16  C   UNL     1      33.798  -2.632  35.455  0.00  0.00    +0.000 C 
BRANCH  16  17
ATOM     17  C   UNL     1      33.801  -1.339  34.755  0.00  0.00    +0.000 A 
ATOM     18  C   UNL     1      33.897  -1.308  33.366  0.00  0.00    +0.000 A 
ATOM     19  C   UNL     1      33.898  -0.085  32.734  0.00  0.00    +0.000 A 
ATOM     20  C   UNL     1      33.806   1.087  33.467  0.00  0.00    +0.000 A 
ATOM     21  C   UNL     1      33.716   1.020  34.818  0.00  0.00    +0.000 A 
ATOM     22  C   UNL     1      33.710  -0.175  35.490  0.00  0.00    +0.000 A 
ATOM     23  I   UNL     1      33.570  -0.300  37.574  0.00  0.00    +0.000 I 
ENDBRANCH  16  17
ENDBRANCH   6  16
TORSDOF 4
ENDMDL
MODEL 10
REMARK VINA RESULT:      -5.9     20.963     22.548
REMARK  Name = 
REMARK  4 active torsions:
REMARK  status: ('A' for Active; 'I' for Inactive)
REMARK    1  A    between atoms: C_2  and  N_3
REMARK    2  A    between atoms: C_7  and  C_8
REMARK    3  A    between atoms: N_13  and  C_14
REMARK    4  A    between atoms: C_14  and  C_15
REMARK                            x       y       z     vdW  Elec       q    Type
REMARK                         _______ _______ _______ _____ _____    ______ ____
ROOT
ATOM      1  C   UNL     1      26.894  23.749  23.812  0.00  0.00    +0.000 C 
ATOM      2  O   UNL     1      26.140  23.052  22.998  0.00  0.00    +0.000 OA
ATOM      3  N   UNL     1      28.050  24.226  23.193  0.00  0.00    +0.000 N 
ATOM      4  C   UNL     1      29.109  25.012  23.767  0.00  0.00    +0.000 C 
ATOM      5  C   UNL     1      29.192  26.357  23.110  0.00  0.00    +0.000 C 
ATOM      6  N   UNL     1      28.887  26.235  21.702  0.00  0.00    +0.000 NA
ATOM      7  C   UNL     1      29.319  24.947  21.242  0.00  0.00    +0.000 C 
ATOM      8  C   UNL     1      28.298  23.924  21.755  0.00  0.00    +0.000 C 
ENDROOT
BRANCH   1  13
ATOM      9  N   UNL     1      26.720  23.351  26.323  0.00  0.00    +0.000 N 
ATOM     10  N   UNL     1      25.931  23.814  27.313  0.00  0.00    +0.000 NA
ATOM     11  C   UNL     1      25.082  24.700  26.804  0.00  0.00    +0.000 A 
ATOM     12  C   UNL     1      25.364  24.775  25.469  0.00  0.00    +0.000 A 
ATOM     13  C   UNL     1      26.427  23.899  25.154  0.00  0.00    +0.000 A 
BRANCH   9  15
ATOM     14  C   UNL     1      28.055  22.309  28.054  0.00  0.00    +0.000 C 
ATOM     15  C   UNL     1      27.806  22.387  26.535  0.00  0.00    +0.000 C 
ENDBRANCH   9  15
ENDBRANCH   1  13
BRANCH   6  16
ATOM     16  C   UNL     1      29.454  27.320  20.927  0.00  0.00    +0.000 C 
BRANCH  16  17
ATOM     17  C   UNL     1      28.468  27.874  19.988  0.00  0.00    +0.000 A 
ATOM     18  C   UNL     1      27.140  28.013  20.388  0.00  0.00    +0.000 A 
ATOM     19  C   UNL     1      26.235  28.534  19.491  0.00  0.00    +0.000 A 
ATOM     20  C   UNL     1      26.639  28.911  18.221  0.00  0.00    +0.000 A 
ATOM     21  C   UNL     1      27.939  28.762  17.864  0.00  0.00    +0.000 A 
ATOM     22  C   UNL     1      28.876  28.248  18.725  0.00  0.00    +0.000 A 
ATOM     23  I   UNL     1      30.886  28.009  18.196  0.00  0.00    +0.000 I 
ENDBRANCH  16  17
ENDBRANCH   6  16
TORSDOF 4
ENDMDL
