MODEL 1
REMARK VINA RESULT:      -8.1      0.000      0.000
REMARK  Name = 
REMARK  7 active torsions:
REMARK  status: ('A' for Active; 'I' for Inactive)
REMARK    1  A    between atoms: C_2  and  C_5
REMARK    2  A    between atoms: C_8  and  O_9
REMARK    3  A    between atoms: O_9  and  C_10
REMARK    4  A    between atoms: C_10  and  C_11
REMARK    5  A    between atoms: C_14  and  C_15
REMARK    6  A    between atoms: N_17  and  N_18
REMARK    7  A    between atoms: C_19  and  C_21
REMARK                            x       y       z     vdW  Elec       q    Type
REMARK                         _______ _______ _______ _____ _____    ______ ____
ROOT
ATOM      1  C   UNL     1      38.809   4.668  16.210  0.00  0.00    +0.000 A 
ATOM      2  C   UNL     1      38.268   4.404  17.475  0.00  0.00    +0.000 A 
ATOM      3  C   UNL     1      38.795   4.961  18.605  0.00  0.00    +0.000 A 
ATOM      4  C   UNL     1      39.883   5.795  18.503  0.00  0.00    +0.000 A 
ATOM      5  C   UNL     1      40.412   6.048  17.255  0.00  0.00    +0.000 A 
ATOM      6  C   UNL     1      39.898   5.503  16.104  0.00  0.00    +0.000 A 
ENDROOT
BRANCH   4   7
ATOM      7  C   UNL     1      40.493   6.450  19.648  0.00  0.00    +0.000 C 
ATOM      8  O   UNL     1      39.768   7.022  20.481  0.00  0.00    +0.000 OA
ATOM      9  N   UNL     1      41.928   6.446  19.820  0.00  0.00    +0.000 NA
BRANCH   9  10
ATOM     10  N   UNL     1      42.387   7.122  20.986  0.00  0.00    +0.000 NA
ATOM     11  C   UNL     1      43.356   6.459  21.785  0.00  0.00    +0.000 C 
ATOM     12  O   UNL     1      43.735   5.300  21.368  0.00  0.00    +0.000 OA
BRANCH  11  13
ATOM     13  C   UNL     1      43.938   6.980  23.017  0.00  0.00    +0.000 A 
ATOM     14  C   UNL     1      44.202   6.241  24.140  0.00  0.00    +0.000 A 
ATOM     15  C   UNL     1      44.763   6.765  25.298  0.00  0.00    +0.000 A 
ATOM     16  C   UNL     1      45.087   8.119  25.357  0.00  0.00    +0.000 A 
ATOM     17  C   UNL     1      44.834   8.884  24.239  0.00  0.00    +0.000 A 
ATOM     18  C   UNL     1      44.282   8.342  23.112  0.00  0.00    +0.000 A 
ENDBRANCH  11  13
ENDBRANCH   9  10
ENDBRANCH   4   7
BRANCH   1  19
ATOM     19  C   UNL     1      38.108   4.007  15.098  0.00  0.00    +0.000 C 
BRANCH  19  20
ATOM     20  O   UNL     1      36.749   3.773  15.308  0.00  0.00    +0.000 OA
BRANCH  20  24
ATOM     21  C   UNL     1      35.570  -0.163  16.340  0.00  0.00    +0.000 A 
ATOM     22  C   UNL     1      36.578   0.083  15.433  0.00  0.00    +0.000 A 
ATOM     23  C   UNL     1      36.990   1.355  15.072  0.00  0.00    +0.000 A 
ATOM     24  C   UNL     1      36.388   2.459  15.627  0.00  0.00    +0.000 A 
ATOM     25  C   UNL     1      35.367   2.218  16.546  0.00  0.00    +0.000 A 
ATOM     26  C   UNL     1      34.964   0.952  16.898  0.00  0.00    +0.000 A 
BRANCH  21  28
ATOM     27  C   UNL     1      33.798  -1.564  17.346  0.00  0.00    +0.000 C 
ATOM     28  C   UNL     1      35.178  -1.548  16.714  0.00  0.00    +0.000 C 
ATOM     29  C   UNL     1      35.338  -2.545  15.593  0.00  0.00    +0.000 C 
ATOM     30  C   UNL     1      36.156  -1.960  17.847  0.00  0.00    +0.000 C 
ENDBRANCH  21  28
ENDBRANCH  20  24
ENDBRANCH  19  20
ENDBRANCH   1  19
TORSDOF 7
ENDMDL
MODEL 2
REMARK VINA RESULT:      -8.1     23.201     28.435
REMARK  Name = 
REMARK  7 active torsions:
REMARK  status: ('A' for Active; 'I' for Inactive)
REMARK    1  A    between atoms: C_2  and  C_5
REMARK    2  A    between atoms: C_8  and  O_9
REMARK    3  A    between atoms: O_9  and  C_10
REMARK    4  A    between atoms: C_10  and  C_11
REMARK    5  A    between atoms: C_14  and  C_15
REMARK    6  A    between atoms: N_17  and  N_18
REMARK    7  A    between atoms: C_19  and  C_21
REMARK                            x       y       z     vdW  Elec       q    Type
REMARK                         _______ _______ _______ _____ _____    ______ ____
ROOT
ATOM      1  C   UNL     1      15.778   0.051  27.407  0.00  0.00    +0.000 A 
ATOM      2  C   UNL     1      15.436  -0.415  26.131  0.00  0.00    +0.000 A 
ATOM      3  C   UNL     1      14.133  -0.539  25.744  0.00  0.00    +0.000 A 
ATOM      4  C   UNL     1      13.132  -0.203  26.624  0.00  0.00    +0.000 A 
ATOM      5  C   UNL     1      13.476   0.253  27.880  0.00  0.00    +0.000 A 
ATOM      6  C   UNL     1      14.779   0.388  28.291  0.00  0.00    +0.000 A 
ENDROOT
BRANCH   4   7
ATOM      7  C   UNL     1      11.719  -0.280  26.289  0.00  0.00    +0.000 C 
ATOM      8  O   UNL     1      11.292  -1.273  25.675  0.00  0.00    +0.000 OA
ATOM      9  N   UNL     1      10.817   0.787  26.657  0.00  0.00    +0.000 NA
BRANCH   9  10
ATOM     10  N   UNL     1       9.463   0.578  26.269  0.00  0.00    +0.000 NA
ATOM     11  C   UNL     1       8.876   1.541  25.405  0.00  0.00    +0.000 C 
ATOM     12  O   UNL     1       9.637   2.516  25.046  0.00  0.00    +0.000 OA
BRANCH  11  13
ATOM     13  C   UNL     1       7.505   1.508  24.909  0.00  0.00    +0.000 A 
ATOM     14  C   UNL     1       7.004   0.581  24.032  0.00  0.00    +0.000 A 
ATOM     15  C   UNL     1       5.689   0.572  23.582  0.00  0.00    +0.000 A 
ATOM     16  C   UNL     1       4.801   1.549  24.025  0.00  0.00    +0.000 A 
ATOM     17  C   UNL     1       5.278   2.491  24.909  0.00  0.00    +0.000 A 
ATOM     18  C   UNL     1       6.577   2.477  25.337  0.00  0.00    +0.000 A 
ENDBRANCH  11  13
ENDBRANCH   9  10
ENDBRANCH   4   7
BRANCH   1  19
ATOM     19  C   UNL     1      17.225   0.145  27.654  0.00  0.00    +0.000 C 
BRANCH  19  20
ATOM     20  O   UNL     1      17.983  -0.916  27.158  0.00  0.00    +0.000 OA
BRANCH  20  24
ATOM     21  C   UNL     1      19.814  -0.202  23.406  0.00  0.00    +0.000 A 
ATOM     22  C   UNL     1      19.566  -1.477  23.866  0.00  0.00    +0.000 A 
ATOM     23  C   UNL     1      18.969  -1.748  25.086  0.00  0.00    +0.000 A 
ATOM     24  C   UNL     1      18.587  -0.718  25.912  0.00  0.00    +0.000 A 
ATOM     25  C   UNL     1      18.835   0.575  25.452  0.00  0.00    +0.000 A 
ATOM     26  C   UNL     1      19.429   0.836  24.240  0.00  0.00    +0.000 A 
BRANCH  21  28
ATOM     27  C   UNL     1      20.788  -1.275  21.402  0.00  0.00    +0.000 C 
ATOM     28  C   UNL     1      20.437   0.039  22.077  0.00  0.00    +0.000 C 
ATOM     29  C   UNL     1      19.643   0.973  21.198  0.00  0.00    +0.000 C 
ATOM     30  C   UNL     1      21.797   0.725  22.378  0.00  0.00    +0.000 C 
ENDBRANCH  21  28
ENDBRANCH  20  24
ENDBRANCH  19  20
ENDBRANCH   1  19
TORSDOF 7
ENDMDL
MODEL 3
REMARK VINA RESULT:      -8.0      2.770     10.771
REMARK  Name = 
REMARK  7 active torsions:
REMARK  status: ('A' for Active; 'I' for Inactive)
REMARK    1  A    between atoms: C_2  and  C_5
REMARK    2  A    between atoms: C_8  and  O_9
REMARK    3  A    between atoms: O_9  and  C_10
REMARK    4  A    between atoms: C_10  and  C_11
REMARK    5  A    between atoms: C_14  and  C_15
REMARK    6  A    between atoms: N_17  and  N_18
REMARK    7  A    between atoms: C_19  and  C_21
REMARK                            x       y       z     vdW  Elec       q    Type
REMARK                         _______ _______ _______ _____ _____    ______ ____
ROOT
ATOM      1  C   UNL     1      40.178   6.635  17.870  0.00  0.00    +0.000 A 
ATOM      2  C   UNL     1      40.177   6.346  16.498  0.00  0.00    +0.000 A 
ATOM      3  C   UNL     1      39.472   5.291  15.994  0.00  0.00    +0.000 A 
ATOM      4  C   UNL     1      38.749   4.491  16.846  0.00  0.00    +0.000 A 
ATOM      5  C   UNL     1      38.757   4.780  18.195  0.00  0.00    +0.000 A 
ATOM      6  C   UNL     1      39.456   5.836  18.726  0.00  0.00    +0.000 A 
ENDROOT
BRANCH   4   7
ATOM      7  C   UNL     1      37.951   3.364  16.394  0.00  0.00    +0.000 C 
ATOM      8  O   UNL     1      38.346   2.685  15.430  0.00  0.00    +0.000 OA
ATOM      9  N   UNL     1      36.706   3.034  17.050  0.00  0.00    +0.000 NA
BRANCH   9  10
ATOM     10  N   UNL     1      36.031   1.905  16.505  0.00  0.00    +0.000 NA
ATOM     11  C   UNL     1      36.106   0.686  17.231  0.00  0.00    +0.000 C 
ATOM     12  O   UNL     1      36.780   0.724  18.329  0.00  0.00    +0.000 OA
BRANCH  11  13
ATOM     13  C   UNL     1      35.493  -0.576  16.833  0.00  0.00    +0.000 A 
ATOM     14  C   UNL     1      34.370  -1.122  17.398  0.00  0.00    +0.000 A 
ATOM     15  C   UNL     1      33.805  -2.325  16.991  0.00  0.00    +0.000 A 
ATOM     16  C   UNL     1      34.390  -3.046  15.953  0.00  0.00    +0.000 A 
ATOM     17  C   UNL     1      35.519  -2.518  15.365  0.00  0.00    +0.000 A 
ATOM     18  C   UNL     1      36.053  -1.331  15.785  0.00  0.00    +0.000 A 
ENDBRANCH  11  13
ENDBRANCH   9  10
ENDBRANCH   4   7
BRANCH   1  19
ATOM     19  C   UNL     1      40.970   7.817  18.242  0.00  0.00    +0.000 C 
BRANCH  19  20
ATOM     20  O   UNL     1      41.315   7.900  19.591  0.00  0.00    +0.000 OA
BRANCH  20  24
ATOM     21  C   UNL     1      44.904   6.003  20.803  0.00  0.00    +0.000 A 
ATOM     22  C   UNL     1      44.826   6.748  19.646  0.00  0.00    +0.000 A 
ATOM     23  C   UNL     1      43.671   7.382  19.219  0.00  0.00    +0.000 A 
ATOM     24  C   UNL     1      42.519   7.290  19.962  0.00  0.00    +0.000 A 
ATOM     25  C   UNL     1      42.590   6.538  21.134  0.00  0.00    +0.000 A 
ATOM     26  C   UNL     1      43.740   5.911  21.551  0.00  0.00    +0.000 A 
BRANCH  21  28
ATOM     27  C   UNL     1      46.927   6.254  22.201  0.00  0.00    +0.000 C 
ATOM     28  C   UNL     1      46.174   5.360  21.232  0.00  0.00    +0.000 C 
ATOM     29  C   UNL     1      45.999   3.947  21.730  0.00  0.00    +0.000 C 
ATOM     30  C   UNL     1      47.056   5.299  19.956  0.00  0.00    +0.000 C 
ENDBRANCH  21  28
ENDBRANCH  20  24
ENDBRANCH  19  20
ENDBRANCH   1  19
TORSDOF 7
ENDMDL
MODEL 4
REMARK VINA RESULT:      -7.9      3.520     11.429
REMARK  Name = 
REMARK  7 active torsions:
REMARK  status: ('A' for Active; 'I' for Inactive)
REMARK    1  A    between atoms: C_2  and  C_5
REMARK    2  A    between atoms: C_8  and  O_9
REMARK    3  A    between atoms: O_9  and  C_10
REMARK    4  A    between atoms: C_10  and  C_11
REMARK    5  A    between atoms: C_14  and  C_15
REMARK    6  A    between atoms: N_17  and  N_18
REMARK    7  A    between atoms: C_19  and  C_21
REMARK                            x       y       z     vdW  Elec       q    Type
REMARK                         _______ _______ _______ _____ _____    ______ ____
ROOT
ATOM      1  C   UNL     1      38.141   4.382  16.043  0.00  0.00    +0.000 A 
ATOM      2  C   UNL     1      38.955   3.723  15.112  0.00  0.00    +0.000 A 
ATOM      3  C   UNL     1      38.723   2.425  14.757  0.00  0.00    +0.000 A 
ATOM      4  C   UNL     1      37.672   1.746  15.327  0.00  0.00    +0.000 A 
ATOM      5  C   UNL     1      36.877   2.400  16.244  0.00  0.00    +0.000 A 
ATOM      6  C   UNL     1      37.088   3.706  16.615  0.00  0.00    +0.000 A 
ENDROOT
BRANCH   4   7
ATOM      7  C   UNL     1      37.337   0.372  14.991  0.00  0.00    +0.000 C 
ATOM      8  O   UNL     1      36.928   0.107  13.847  0.00  0.00    +0.000 OA
ATOM      9  N   UNL     1      37.470  -0.679  15.974  0.00  0.00    +0.000 NA
BRANCH   9  10
ATOM     10  N   UNL     1      37.111  -1.975  15.508  0.00  0.00    +0.000 NA
ATOM     11  C   UNL     1      35.924  -2.552  16.033  0.00  0.00    +0.000 C 
ATOM     12  O   UNL     1      35.276  -1.834  16.885  0.00  0.00    +0.000 OA
BRANCH  11  13
ATOM     13  C   UNL     1      35.398  -3.869  15.690  0.00  0.00    +0.000 A 
ATOM     14  C   UNL     1      35.839  -5.056  16.213  0.00  0.00    +0.000 A 
ATOM     15  C   UNL     1      35.314  -6.296  15.871  0.00  0.00    +0.000 A 
ATOM     16  C   UNL     1      34.279  -6.375  14.943  0.00  0.00    +0.000 A 
ATOM     17  C   UNL     1      33.815  -5.195  14.403  0.00  0.00    +0.000 A 
ATOM     18  C   UNL     1      34.350  -3.988  14.758  0.00  0.00    +0.000 A 
ENDBRANCH  11  13
ENDBRANCH   9  10
ENDBRANCH   4   7
BRANCH   1  19
ATOM     19  C   UNL     1      38.515   5.782  16.294  0.00  0.00    +0.000 C 
BRANCH  19  20
ATOM     20  O   UNL     1      38.414   6.196  17.622  0.00  0.00    +0.000 OA
BRANCH  20  24
ATOM     21  C   UNL     1      42.117   6.628  19.635  0.00  0.00    +0.000 A 
ATOM     22  C   UNL     1      40.916   6.601  20.312  0.00  0.00    +0.000 A 
ATOM     23  C   UNL     1      39.688   6.460  19.688  0.00  0.00    +0.000 A 
ATOM     24  C   UNL     1      39.619   6.337  18.321  0.00  0.00    +0.000 A 
ATOM     25  C   UNL     1      40.829   6.363  17.629  0.00  0.00    +0.000 A 
ATOM     26  C   UNL     1      42.045   6.504  18.256  0.00  0.00    +0.000 A 
BRANCH  21  28
ATOM     27  C   UNL     1      43.490   5.771  21.504  0.00  0.00    +0.000 C 
ATOM     28  C   UNL     1      43.413   6.757  20.352  0.00  0.00    +0.000 C 
ATOM     29  C   UNL     1      44.614   6.712  19.442  0.00  0.00    +0.000 C 
ATOM     30  C   UNL     1      43.380   8.161  21.013  0.00  0.00    +0.000 C 
ENDBRANCH  21  28
ENDBRANCH  20  24
ENDBRANCH  19  20
ENDBRANCH   1  19
TORSDOF 7
ENDMDL
MODEL 5
REMARK VINA RESULT:      -7.8      4.921     12.736
REMARK  Name = 
REMARK  7 active torsions:
REMARK  status: ('A' for Active; 'I' for Inactive)
REMARK    1  A    between atoms: C_2  and  C_5
REMARK    2  A    between atoms: C_8  and  O_9
REMARK    3  A    between atoms: O_9  and  C_10
REMARK    4  A    between atoms: C_10  and  C_11
REMARK    5  A    between atoms: C_14  and  C_15
REMARK    6  A    between atoms: N_17  and  N_18
REMARK    7  A    between atoms: C_19  and  C_21
REMARK                            x       y       z     vdW  Elec       q    Type
REMARK                         _______ _______ _______ _____ _____    ______ ____
ROOT
ATOM      1  C   UNL     1      37.208   1.542  14.700  0.00  0.00    +0.000 A 
ATOM      2  C   UNL     1      36.295   0.965  15.594  0.00  0.00    +0.000 A 
ATOM      3  C   UNL     1      36.060  -0.380  15.601  0.00  0.00    +0.000 A 
ATOM      4  C   UNL     1      36.727  -1.188  14.711  0.00  0.00    +0.000 A 
ATOM      5  C   UNL     1      37.622  -0.613  13.833  0.00  0.00    +0.000 A 
ATOM      6  C   UNL     1      37.878   0.736  13.809  0.00  0.00    +0.000 A 
ENDROOT
BRANCH   4   7
ATOM      7  C   UNL     1      36.557  -2.631  14.665  0.00  0.00    +0.000 C 
ATOM      8  O   UNL     1      37.277  -3.305  13.909  0.00  0.00    +0.000 OA
ATOM      9  N   UNL     1      35.558  -3.280  15.481  0.00  0.00    +0.000 NA
BRANCH   9  10
ATOM     10  N   UNL     1      35.503  -4.696  15.338  0.00  0.00    +0.000 NA
ATOM     11  C   UNL     1      34.342  -5.246  14.731  0.00  0.00    +0.000 C 
ATOM     12  O   UNL     1      33.444  -4.400  14.360  0.00  0.00    +0.000 OA
BRANCH  11  13
ATOM     13  C   UNL     1      34.096  -6.666  14.508  0.00  0.00    +0.000 A 
ATOM     14  C   UNL     1      33.840  -7.241  13.290  0.00  0.00    +0.000 A 
ATOM     15  C   UNL     1      33.615  -8.600  13.108  0.00  0.00    +0.000 A 
ATOM     16  C   UNL     1      33.644  -9.459  14.205  0.00  0.00    +0.000 A 
ATOM     17  C   UNL     1      33.903  -8.906  15.440  0.00  0.00    +0.000 A 
ATOM     18  C   UNL     1      34.120  -7.565  15.592  0.00  0.00    +0.000 A 
ENDBRANCH  11  13
ENDBRANCH   9  10
ENDBRANCH   4   7
BRANCH   1  19
ATOM     19  C   UNL     1      37.360   2.998  14.841  0.00  0.00    +0.000 C 
BRANCH  19  20
ATOM     20  O   UNL     1      37.128   3.499  16.122  0.00  0.00    +0.000 OA
BRANCH  20  24
ATOM     21  C   UNL     1      40.166   5.859  17.897  0.00  0.00    +0.000 A 
ATOM     22  C   UNL     1      40.127   5.618  16.541  0.00  0.00    +0.000 A 
ATOM     23  C   UNL     1      39.149   4.853  15.926  0.00  0.00    +0.000 A 
ATOM     24  C   UNL     1      38.145   4.286  16.673  0.00  0.00    +0.000 A 
ATOM     25  C   UNL     1      38.178   4.526  18.047  0.00  0.00    +0.000 A 
ATOM     26  C   UNL     1      39.152   5.286  18.649  0.00  0.00    +0.000 A 
BRANCH  21  28
ATOM     27  C   UNL     1      41.353   6.417  19.992  0.00  0.00    +0.000 C 
ATOM     28  C   UNL     1      41.223   6.707  18.508  0.00  0.00    +0.000 C 
ATOM     29  C   UNL     1      42.537   6.663  17.769  0.00  0.00    +0.000 C 
ATOM     30  C   UNL     1      40.686   8.162  18.418  0.00  0.00    +0.000 C 
ENDBRANCH  21  28
ENDBRANCH  20  24
ENDBRANCH  19  20
ENDBRANCH   1  19
TORSDOF 7
ENDMDL
MODEL 6
REMARK VINA RESULT:      -7.7      1.881      2.514
REMARK  Name = 
REMARK  7 active torsions:
REMARK  status: ('A' for Active; 'I' for Inactive)
REMARK    1  A    between atoms: C_2  and  C_5
REMARK    2  A    between atoms: C_8  and  O_9
REMARK    3  A    between atoms: O_9  and  C_10
REMARK    4  A    between atoms: C_10  and  C_11
REMARK    5  A    between atoms: C_14  and  C_15
REMARK    6  A    between atoms: N_17  and  N_18
REMARK    7  A    between atoms: C_19  and  C_21
REMARK                            x       y       z     vdW  Elec       q    Type
REMARK                         _______ _______ _______ _____ _____    ______ ____
ROOT
ATOM      1  C   UNL     1      38.853   4.645  16.146  0.00  0.00    +0.000 A 
ATOM      2  C   UNL     1      39.942   5.519  16.031  0.00  0.00    +0.000 A 
ATOM      3  C   UNL     1      40.498   6.112  17.128  0.00  0.00    +0.000 A 
ATOM      4  C   UNL     1      39.978   5.851  18.374  0.00  0.00    +0.000 A 
ATOM      5  C   UNL     1      38.905   4.991  18.479  0.00  0.00    +0.000 A 
ATOM      6  C   UNL     1      38.330   4.381  17.391  0.00  0.00    +0.000 A 
ENDROOT
BRANCH   4   7
ATOM      7  C   UNL     1      40.521   6.417  19.598  0.00  0.00    +0.000 C 
ATOM      8  O   UNL     1      39.753   6.957  20.412  0.00  0.00    +0.000 OA
ATOM      9  N   UNL     1      41.940   6.363  19.867  0.00  0.00    +0.000 NA
BRANCH   9  10
ATOM     10  N   UNL     1      42.331   6.953  21.102  0.00  0.00    +0.000 NA
ATOM     11  C   UNL     1      43.419   6.357  21.795  0.00  0.00    +0.000 C 
ATOM     12  O   UNL     1      43.955   5.332  21.228  0.00  0.00    +0.000 OA
BRANCH  11  13
ATOM     13  C   UNL     1      43.957   6.807  23.074  0.00  0.00    +0.000 A 
ATOM     14  C   UNL     1      44.239   5.996  24.142  0.00  0.00    +0.000 A 
ATOM     15  C   UNL     1      44.757   6.454  25.347  0.00  0.00    +0.000 A 
ATOM     16  C   UNL     1      45.017   7.812  25.515  0.00  0.00    +0.000 A 
ATOM     17  C   UNL     1      44.744   8.650  24.455  0.00  0.00    +0.000 A 
ATOM     18  C   UNL     1      44.234   8.172  23.280  0.00  0.00    +0.000 A 
ENDBRANCH  11  13
ENDBRANCH   9  10
ENDBRANCH   4   7
BRANCH   1  19
ATOM     19  C   UNL     1      38.391   4.077  14.871  0.00  0.00    +0.000 C 
BRANCH  19  20
ATOM     20  O   UNL     1      39.329   3.297  14.193  0.00  0.00    +0.000 OA
BRANCH  20  24
ATOM     21  C   UNL     1      39.126  -0.855  15.006  0.00  0.00    +0.000 A 
ATOM     22  C   UNL     1      40.301  -0.242  14.627  0.00  0.00    +0.000 A 
ATOM     23  C   UNL     1      40.404   1.112  14.354  0.00  0.00    +0.000 A 
ATOM     24  C   UNL     1      39.300   1.923  14.457  0.00  0.00    +0.000 A 
ATOM     25  C   UNL     1      38.108   1.310  14.840  0.00  0.00    +0.000 A 
ATOM     26  C   UNL     1      38.013  -0.035  15.109  0.00  0.00    +0.000 A 
BRANCH  21  28
ATOM     27  C   UNL     1      38.841  -2.538  16.795  0.00  0.00    +0.000 C 
ATOM     28  C   UNL     1      39.070  -2.309  15.312  0.00  0.00    +0.000 C 
ATOM     29  C   UNL     1      38.116  -3.076  14.431  0.00  0.00    +0.000 C 
ATOM     30  C   UNL     1      40.499  -2.845  15.028  0.00  0.00    +0.000 C 
ENDBRANCH  21  28
ENDBRANCH  20  24
ENDBRANCH  19  20
ENDBRANCH   1  19
TORSDOF 7
ENDMDL
MODEL 7
REMARK VINA RESULT:      -7.6      4.617     12.290
REMARK  Name = 
REMARK  7 active torsions:
REMARK  status: ('A' for Active; 'I' for Inactive)
REMARK    1  A    between atoms: C_2  and  C_5
REMARK    2  A    between atoms: C_8  and  O_9
REMARK    3  A    between atoms: O_9  and  C_10
REMARK    4  A    between atoms: C_10  and  C_11
REMARK    5  A    between atoms: C_14  and  C_15
REMARK    6  A    between atoms: N_17  and  N_18
REMARK    7  A    between atoms: C_19  and  C_21
REMARK                            x       y       z     vdW  Elec       q    Type
REMARK                         _______ _______ _______ _____ _____    ______ ____
ROOT
ATOM      1  C   UNL     1      36.572   1.982  15.798  0.00  0.00    +0.000 A 
ATOM      2  C   UNL     1      36.953   1.067  14.808  0.00  0.00    +0.000 A 
ATOM      3  C   UNL     1      36.764  -0.276  14.970  0.00  0.00    +0.000 A 
ATOM      4  C   UNL     1      36.192  -0.743  16.129  0.00  0.00    +0.000 A 
ATOM      5  C   UNL     1      35.822   0.164  17.100  0.00  0.00    +0.000 A 
ATOM      6  C   UNL     1      35.999   1.518  16.960  0.00  0.00    +0.000 A 
ENDROOT
BRANCH   4   7
ATOM      7  C   UNL     1      35.931  -2.152  16.376  0.00  0.00    +0.000 C 
ATOM      8  O   UNL     1      35.242  -2.481  17.357  0.00  0.00    +0.000 OA
ATOM      9  N   UNL     1      36.471  -3.164  15.498  0.00  0.00    +0.000 NA
BRANCH   9  10
ATOM     10  N   UNL     1      36.134  -4.501  15.857  0.00  0.00    +0.000 NA
ATOM     11  C   UNL     1      35.090  -5.129  15.128  0.00  0.00    +0.000 C 
ATOM     12  O   UNL     1      34.547  -4.423  14.196  0.00  0.00    +0.000 OA
BRANCH  11  13
ATOM     13  C   UNL     1      34.595  -6.483  15.353  0.00  0.00    +0.000 A 
ATOM     14  C   UNL     1      33.776  -7.177  14.501  0.00  0.00    +0.000 A 
ATOM     15  C   UNL     1      33.326  -8.470  14.741  0.00  0.00    +0.000 A 
ATOM     16  C   UNL     1      33.709  -9.129  15.907  0.00  0.00    +0.000 A 
ATOM     17  C   UNL     1      34.534  -8.454  16.780  0.00  0.00    +0.000 A 
ATOM     18  C   UNL     1      34.963  -7.182  16.519  0.00  0.00    +0.000 A 
ENDBRANCH  11  13
ENDBRANCH   9  10
ENDBRANCH   4   7
BRANCH   1  19
ATOM     19  C   UNL     1      36.825   3.390  15.455  0.00  0.00    +0.000 C 
BRANCH  19  20
ATOM     20  O   UNL     1      38.169   3.738  15.325  0.00  0.00    +0.000 OA
BRANCH  20  24
ATOM     21  C   UNL     1      39.847   6.218  18.322  0.00  0.00    +0.000 A 
ATOM     22  C   UNL     1      38.899   5.261  18.612  0.00  0.00    +0.000 A 
ATOM     23  C   UNL     1      38.330   4.433  17.659  0.00  0.00    +0.000 A 
ATOM     24  C   UNL     1      38.704   4.538  16.342  0.00  0.00    +0.000 A 
ATOM     25  C   UNL     1      39.663   5.505  16.040  0.00  0.00    +0.000 A 
ATOM     26  C   UNL     1      40.223   6.323  16.992  0.00  0.00    +0.000 A 
BRANCH  21  28
ATOM     27  C   UNL     1      41.312   8.157  18.775  0.00  0.00    +0.000 C 
ATOM     28  C   UNL     1      40.447   7.069  19.384  0.00  0.00    +0.000 C 
ATOM     29  C   UNL     1      39.443   7.587  20.383  0.00  0.00    +0.000 C 
ATOM     30  C   UNL     1      41.429   6.140  20.148  0.00  0.00    +0.000 C 
ENDBRANCH  21  28
ENDBRANCH  20  24
ENDBRANCH  19  20
ENDBRANCH   1  19
TORSDOF 7
ENDMDL
MODEL 8
REMARK VINA RESULT:      -7.3      4.346     10.104
REMARK  Name = 
REMARK  7 active torsions:
REMARK  status: ('A' for Active; 'I' for Inactive)
REMARK    1  A    between atoms: C_2  and  C_5
REMARK    2  A    between atoms: C_8  and  O_9
REMARK    3  A    between atoms: O_9  and  C_10
REMARK    4  A    between atoms: C_10  and  C_11
REMARK    5  A    between atoms: C_14  and  C_15
REMARK    6  A    between atoms: N_17  and  N_18
REMARK    7  A    between atoms: C_19  and  C_21
REMARK                            x       y       z     vdW  Elec       q    Type
REMARK                         _______ _______ _______ _____ _____    ______ ____
ROOT
ATOM      1  C   UNL     1      39.596   7.089  17.807  0.00  0.00    +0.000 A 
ATOM      2  C   UNL     1      39.022   6.108  18.627  0.00  0.00    +0.000 A 
ATOM      3  C   UNL     1      38.602   4.913  18.118  0.00  0.00    +0.000 A 
ATOM      4  C   UNL     1      38.739   4.665  16.773  0.00  0.00    +0.000 A 
ATOM      5  C   UNL     1      39.303   5.636  15.972  0.00  0.00    +0.000 A 
ATOM      6  C   UNL     1      39.736   6.844  16.460  0.00  0.00    +0.000 A 
ENDROOT
BRANCH   4   7
ATOM      7  C   UNL     1      38.342   3.412  16.150  0.00  0.00    +0.000 C 
ATOM      8  O   UNL     1      39.036   2.942  15.232  0.00  0.00    +0.000 OA
ATOM      9  N   UNL     1      37.152   2.720  16.586  0.00  0.00    +0.000 NA
BRANCH   9  10
ATOM     10  N   UNL     1      36.885   1.505  15.892  0.00  0.00    +0.000 NA
ATOM     11  C   UNL     1      36.414   0.405  16.657  0.00  0.00    +0.000 C 
ATOM     12  O   UNL     1      36.265   0.618  17.919  0.00  0.00    +0.000 OA
BRANCH  11  13
ATOM     13  C   UNL     1      36.098  -0.918  16.132  0.00  0.00    +0.000 A 
ATOM     14  C   UNL     1      35.116  -1.744  16.612  0.00  0.00    +0.000 A 
ATOM     15  C   UNL     1      34.833  -2.999  16.086  0.00  0.00    +0.000 A 
ATOM     16  C   UNL     1      35.573  -3.478  15.007  0.00  0.00    +0.000 A 
ATOM     17  C   UNL     1      36.565  -2.666  14.503  0.00  0.00    +0.000 A 
ATOM     18  C   UNL     1      36.822  -1.435  15.040  0.00  0.00    +0.000 A 
ENDBRANCH  11  13
ENDBRANCH   9  10
ENDBRANCH   4   7
BRANCH   1  19
ATOM     19  C   UNL     1      40.014   8.307  18.517  0.00  0.00    +0.000 C 
BRANCH  19  20
ATOM     20  O   UNL     1      39.543   9.503  17.976  0.00  0.00    +0.000 OA
BRANCH  20  24
ATOM     21  C   UNL     1      35.429   9.668  16.978  0.00  0.00    +0.000 A 
ATOM     22  C   UNL     1      35.859   9.469  18.272  0.00  0.00    +0.000 A 
ATOM     23  C   UNL     1      37.195   9.410  18.635  0.00  0.00    +0.000 A 
ATOM     24  C   UNL     1      38.175   9.555  17.684  0.00  0.00    +0.000 A 
ATOM     25  C   UNL     1      37.747   9.757  16.371  0.00  0.00    +0.000 A 
ATOM     26  C   UNL     1      36.420   9.814  16.020  0.00  0.00    +0.000 A 
BRANCH  21  28
ATOM     27  C   UNL     1      33.673   8.922  15.406  0.00  0.00    +0.000 C 
ATOM     28  C   UNL     1      33.983   9.748  16.641  0.00  0.00    +0.000 C 
ATOM     29  C   UNL     1      33.073   9.451  17.807  0.00  0.00    +0.000 C 
ATOM     30  C   UNL     1      33.739  11.223  16.223  0.00  0.00    +0.000 C 
ENDBRANCH  21  28
ENDBRANCH  20  24
ENDBRANCH  19  20
ENDBRANCH   1  19
TORSDOF 7
ENDMDL
MODEL 9
REMARK VINA RESULT:      -7.3      4.070      5.979
REMARK  Name = 
REMARK  7 active torsions:
REMARK  status: ('A' for Active; 'I' for Inactive)
REMARK    1  A    between atoms: C_2  and  C_5
REMARK    2  A    between atoms: C_8  and  O_9
REMARK    3  A    between atoms: O_9  and  C_10
REMARK    4  A    between atoms: C_10  and  C_11
REMARK    5  A    between atoms: C_14  and  C_15
REMARK    6  A    between atoms: N_17  and  N_18
REMARK    7  A    between atoms: C_19  and  C_21
REMARK                            x       y       z     vdW  Elec       q    Type
REMARK                         _______ _______ _______ _____ _____    ______ ____
ROOT
ATOM      1  C   UNL     1      38.918   0.837  12.555  0.00  0.00    +0.000 A 
ATOM      2  C   UNL     1      39.994   1.627  12.981  0.00  0.00    +0.000 A 
ATOM      3  C   UNL     1      39.799   2.756  13.723  0.00  0.00    +0.000 A 
ATOM      4  C   UNL     1      38.520   3.132  14.059  0.00  0.00    +0.000 A 
ATOM      5  C   UNL     1      37.465   2.351  13.635  0.00  0.00    +0.000 A 
ATOM      6  C   UNL     1      37.636   1.210  12.890  0.00  0.00    +0.000 A 
ENDROOT
BRANCH   4   7
ATOM      7  C   UNL     1      38.220   4.303  14.866  0.00  0.00    +0.000 C 
ATOM      8  O   UNL     1      37.036   4.647  15.025  0.00  0.00    +0.000 OA
ATOM      9  N   UNL     1      39.284   5.069  15.473  0.00  0.00    +0.000 NA
BRANCH   9  10
ATOM     10  N   UNL     1      38.847   6.188  16.237  0.00  0.00    +0.000 NA
ATOM     11  C   UNL     1      38.927   6.085  17.652  0.00  0.00    +0.000 C 
ATOM     12  O   UNL     1      39.401   4.978  18.111  0.00  0.00    +0.000 OA
BRANCH  11  13
ATOM     13  C   UNL     1      38.519   7.114  18.601  0.00  0.00    +0.000 A 
ATOM     14  C   UNL     1      37.493   8.003  18.409  0.00  0.00    +0.000 A 
ATOM     15  C   UNL     1      37.123   8.970  19.336  0.00  0.00    +0.000 A 
ATOM     16  C   UNL     1      37.815   9.072  20.541  0.00  0.00    +0.000 A 
ATOM     17  C   UNL     1      38.849   8.188  20.760  0.00  0.00    +0.000 A 
ATOM     18  C   UNL     1      39.192   7.246  19.831  0.00  0.00    +0.000 A 
ENDBRANCH  11  13
ENDBRANCH   9  10
ENDBRANCH   4   7
BRANCH   1  19
ATOM     19  C   UNL     1      39.304  -0.355  11.786  0.00  0.00    +0.000 C 
BRANCH  19  20
ATOM     20  O   UNL     1      40.077  -1.286  12.479  0.00  0.00    +0.000 OA
BRANCH  20  24
ATOM     21  C   UNL     1      38.234  -3.262  15.742  0.00  0.00    +0.000 A 
ATOM     22  C   UNL     1      37.754  -3.373  14.455  0.00  0.00    +0.000 A 
ATOM     23  C   UNL     1      38.330  -2.742  13.365  0.00  0.00    +0.000 A 
ATOM     24  C   UNL     1      39.444  -1.956  13.532  0.00  0.00    +0.000 A 
ATOM     25  C   UNL     1      39.937  -1.839  14.832  0.00  0.00    +0.000 A 
ATOM     26  C   UNL     1      39.358  -2.468  15.909  0.00  0.00    +0.000 A 
BRANCH  21  28
ATOM     27  C   UNL     1      36.667  -5.068  16.370  0.00  0.00    +0.000 C 
ATOM     28  C   UNL     1      37.595  -3.978  16.877  0.00  0.00    +0.000 C 
ATOM     29  C   UNL     1      38.575  -4.459  17.918  0.00  0.00    +0.000 C 
ATOM     30  C   UNL     1      36.670  -2.932  17.555  0.00  0.00    +0.000 C 
ENDBRANCH  21  28
ENDBRANCH  20  24
ENDBRANCH  19  20
ENDBRANCH   1  19
TORSDOF 7
ENDMDL
MODEL 10
REMARK VINA RESULT:      -7.3      7.497      9.933
REMARK  Name = 
REMARK  7 active torsions:
REMARK  status: ('A' for Active; 'I' for Inactive)
REMARK    1  A    between atoms: C_2  and  C_5
REMARK    2  A    between atoms: C_8  and  O_9
REMARK    3  A    between atoms: O_9  and  C_10
REMARK    4  A    between atoms: C_10  and  C_11
REMARK    5  A    between atoms: C_14  and  C_15
REMARK    6  A    between atoms: N_17  and  N_18
REMARK    7  A    between atoms: C_19  and  C_21
REMARK                            x       y       z     vdW  Elec       q    Type
REMARK                         _______ _______ _______ _____ _____    ______ ____
ROOT
ATOM      1  C   UNL     1      35.670   5.940  14.242  0.00  0.00    +0.000 A 
ATOM      2  C   UNL     1      36.579   7.005  14.193  0.00  0.00    +0.000 A 
ATOM      3  C   UNL     1      36.170   8.277  13.913  0.00  0.00    +0.000 A 
ATOM      4  C   UNL     1      34.839   8.521  13.670  0.00  0.00    +0.000 A 
ATOM      5  C   UNL     1      33.951   7.468  13.717  0.00  0.00    +0.000 A 
ATOM      6  C   UNL     1      34.337   6.180  13.999  0.00  0.00    +0.000 A 
ENDROOT
BRANCH   4   7
ATOM      7  C   UNL     1      34.312   9.846  13.388  0.00  0.00    +0.000 C 
ATOM      8  O   UNL     1      34.200  10.219  12.207  0.00  0.00    +0.000 OA
ATOM      9  N   UNL     1      33.926  10.729  14.465  0.00  0.00    +0.000 NA
BRANCH   9  10
ATOM     10  N   UNL     1      33.424  11.993  14.044  0.00  0.00    +0.000 NA
ATOM     11  C   UNL     1      33.268  12.997  15.037  0.00  0.00    +0.000 C 
ATOM     12  O   UNL     1      33.607  12.663  16.235  0.00  0.00    +0.000 OA
BRANCH  11  13
ATOM     13  C   UNL     1      32.760  14.344  14.806  0.00  0.00    +0.000 A 
ATOM     14  C   UNL     1      31.651  14.654  14.062  0.00  0.00    +0.000 A 
ATOM     15  C   UNL     1      31.187  15.949  13.865  0.00  0.00    +0.000 A 
ATOM     16  C   UNL     1      31.866  17.020  14.441  0.00  0.00    +0.000 A 
ATOM     17  C   UNL     1      32.983  16.736  15.196  0.00  0.00    +0.000 A 
ATOM     18  C   UNL     1      33.417  15.452  15.375  0.00  0.00    +0.000 A 
ENDBRANCH  11  13
ENDBRANCH   9  10
ENDBRANCH   4   7
BRANCH   1  19
ATOM     19  C   UNL     1      36.272   4.641  14.579  0.00  0.00    +0.000 C 
BRANCH  19  20
ATOM     20  O   UNL     1      35.616   3.527  14.055  0.00  0.00    +0.000 OA
BRANCH  20  24
ATOM     21  C   UNL     1      35.362   0.104  16.538  0.00  0.00    +0.000 A 
ATOM     22  C   UNL     1      34.793   1.308  16.894  0.00  0.00    +0.000 A 
ATOM     23  C   UNL     1      34.855   2.447  16.107  0.00  0.00    +0.000 A 
ATOM     24  C   UNL     1      35.509   2.416  14.899  0.00  0.00    +0.000 A 
ATOM     25  C   UNL     1      36.087   1.201  14.533  0.00  0.00    +0.000 A 
ATOM     26  C   UNL     1      36.021   0.076  15.319  0.00  0.00    +0.000 A 
BRANCH  21  28
ATOM     27  C   UNL     1      33.823  -1.622  17.412  0.00  0.00    +0.000 C 
ATOM     28  C   UNL     1      35.248  -1.098  17.405  0.00  0.00    +0.000 C 
ATOM     29  C   UNL     1      36.277  -2.159  17.107  0.00  0.00    +0.000 C 
ATOM     30  C   UNL     1      35.507  -0.590  18.849  0.00  0.00    +0.000 C 
ENDBRANCH  21  28
ENDBRANCH  20  24
ENDBRANCH  19  20
ENDBRANCH   1  19
TORSDOF 7
ENDMDL
