MODEL 1
REMARK VINA RESULT:      -7.8      0.000      0.000
REMARK  Name = 
REMARK  3 active torsions:
REMARK  status: ('A' for Active; 'I' for Inactive)
REMARK    1  A    between atoms: C_6  and  N_7
REMARK    2  A    between atoms: C_8  and  C_10
REMARK    3  A    between atoms: C_10  and  C_11
REMARK                            x       y       z     vdW  Elec       q    Type
REMARK                         _______ _______ _______ _____ _____    ______ ____
ROOT
ATOM      1  N   UNL     1      15.754  11.230  35.970  0.00  0.00    +0.000 NA
ATOM      2  C   UNL     1      16.916  11.711  36.656  0.00  0.00    +0.000 C 
ATOM      3  O   UNL     1      17.432  12.756  36.239  0.00  0.00    +0.000 OA
ENDROOT
BRANCH   1   9
ATOM      4  C   UNL     1      13.616  14.178  31.604  0.00  0.00    +0.000 C 
ATOM      5  C   UNL     1      14.165  13.402  32.716  0.00  0.00    +0.000 A 
ATOM      6  C   UNL     1      14.960  12.296  32.516  0.00  0.00    +0.000 A 
ATOM      7  C   UNL     1      15.498  11.565  33.563  0.00  0.00    +0.000 A 
ATOM      8  O   UNL     1      16.294  10.467  33.281  0.00  0.00    +0.000 OA
ATOM      9  C   UNL     1      15.234  11.947  34.847  0.00  0.00    +0.000 A 
ATOM     10  C   UNL     1      14.447  13.040  35.018  0.00  0.00    +0.000 A 
ATOM     11  C   UNL     1      13.884  13.805  34.028  0.00  0.00    +0.000 A 
ATOM     12  C   UNL     1      13.035  14.957  34.351  0.00  0.00    +0.000 C 
ENDBRANCH   1   9
BRANCH   2  13
ATOM     13  C   UNL     1      17.448  10.932  37.833  0.00  0.00    +0.000 C 
BRANCH  13  14
ATOM     14  C   UNL     1      18.915  10.736  37.639  0.00  0.00    +0.000 A 
ATOM     15  C   UNL     1      19.719  11.735  38.358  0.00  0.00    +0.000 A 
ATOM     16  C   UNL     1      21.072  11.630  38.153  0.00  0.00    +0.000 A 
ATOM     17  C   UNL     1      21.752  10.749  37.392  0.00  0.00    +0.000 A 
ATOM     18 CL   UNL     1      23.489  10.694  37.181  0.00  0.00    +0.000 Cl
ATOM     19  C   UNL     1      20.955   9.759  36.680  0.00  0.00    +0.000 A 
ATOM     20  C   UNL     1      19.605   9.906  36.918  0.00  0.00    +0.000 A 
ENDBRANCH  13  14
ENDBRANCH   2  13
TORSDOF 3
ENDMDL
MODEL 2
REMARK VINA RESULT:      -7.4      1.027      2.178
REMARK  Name = 
REMARK  3 active torsions:
REMARK  status: ('A' for Active; 'I' for Inactive)
REMARK    1  A    between atoms: C_6  and  N_7
REMARK    2  A    between atoms: C_8  and  C_10
REMARK    3  A    between atoms: C_10  and  C_11
REMARK                            x       y       z     vdW  Elec       q    Type
REMARK                         _______ _______ _______ _____ _____    ______ ____
ROOT
ATOM      1  N   UNL     1      15.965  11.049  35.816  0.00  0.00    +0.000 NA
ATOM      2  C   UNL     1      16.996  11.639  36.615  0.00  0.00    +0.000 C 
ATOM      3  O   UNL     1      17.359  12.786  36.321  0.00  0.00    +0.000 OA
ENDROOT
BRANCH   1   9
ATOM      4  C   UNL     1      13.799  13.865  31.376  0.00  0.00    +0.000 C 
ATOM      5  C   UNL     1      14.354  13.157  32.530  0.00  0.00    +0.000 A 
ATOM      6  C   UNL     1      13.911  13.388  33.814  0.00  0.00    +0.000 A 
ATOM      7  C   UNL     1      14.418  12.711  34.911  0.00  0.00    +0.000 A 
ATOM      8  O   UNL     1      13.917  12.996  36.170  0.00  0.00    +0.000 OA
ATOM      9  C   UNL     1      15.397  11.777  34.723  0.00  0.00    +0.000 A 
ATOM     10  C   UNL     1      15.816  11.567  33.449  0.00  0.00    +0.000 A 
ATOM     11  C   UNL     1      15.358  12.203  32.323  0.00  0.00    +0.000 A 
ATOM     12  C   UNL     1      15.912  11.893  31.001  0.00  0.00    +0.000 C 
ENDBRANCH   1   9
BRANCH   2  13
ATOM     13  C   UNL     1      17.583  10.848  37.757  0.00  0.00    +0.000 C 
BRANCH  13  14
ATOM     14  C   UNL     1      19.068  10.857  37.618  0.00  0.00    +0.000 A 
ATOM     15  C   UNL     1      19.557   9.814  36.704  0.00  0.00    +0.000 A 
ATOM     16  C   UNL     1      20.923   9.745  36.598  0.00  0.00    +0.000 A 
ATOM     17  C   UNL     1      21.863  10.492  37.212  0.00  0.00    +0.000 A 
ATOM     18 CL   UNL     1      23.596  10.327  37.023  0.00  0.00    +0.000 Cl
ATOM     19  C   UNL     1      21.379  11.526  38.118  0.00  0.00    +0.000 A 
ATOM     20  C   UNL     1      20.003  11.555  38.189  0.00  0.00    +0.000 A 
ENDBRANCH  13  14
ENDBRANCH   2  13
TORSDOF 3
ENDMDL
MODEL 3
REMARK VINA RESULT:      -7.2      3.042      7.224
REMARK  Name = 
REMARK  3 active torsions:
REMARK  status: ('A' for Active; 'I' for Inactive)
REMARK    1  A    between atoms: C_6  and  N_7
REMARK    2  A    between atoms: C_8  and  C_10
REMARK    3  A    between atoms: C_10  and  C_11
REMARK                            x       y       z     vdW  Elec       q    Type
REMARK                         _______ _______ _______ _____ _____    ______ ____
ROOT
ATOM      1  N   UNL     1      16.192  10.701  37.191  0.00  0.00    +0.000 NA
ATOM      2  C   UNL     1      15.870  12.072  36.927  0.00  0.00    +0.000 C 
ATOM      3  O   UNL     1      16.774  12.906  37.067  0.00  0.00    +0.000 OA
ENDROOT
BRANCH   1   9
ATOM      4  C   UNL     1      21.399   9.278  38.977  0.00  0.00    +0.000 C 
ATOM      5  C   UNL     1      20.068   9.653  38.501  0.00  0.00    +0.000 A 
ATOM      6  C   UNL     1      19.759   9.717  37.160  0.00  0.00    +0.000 A 
ATOM      7  C   UNL     1      18.497  10.054  36.700  0.00  0.00    +0.000 A 
ATOM      8  O   UNL     1      18.263  10.091  35.335  0.00  0.00    +0.000 OA
ATOM      9  C   UNL     1      17.513  10.340  37.603  0.00  0.00    +0.000 A 
ATOM     10  C   UNL     1      17.842  10.271  38.919  0.00  0.00    +0.000 A 
ATOM     11  C   UNL     1      19.069   9.944  39.439  0.00  0.00    +0.000 A 
ATOM     12  C   UNL     1      19.295   9.924  40.888  0.00  0.00    +0.000 C 
ENDBRANCH   1   9
BRANCH   2  13
ATOM     13  C   UNL     1      14.468  12.427  36.500  0.00  0.00    +0.000 C 
BRANCH  13  14
ATOM     14  C   UNL     1      14.480  12.696  35.033  0.00  0.00    +0.000 A 
ATOM     15  C   UNL     1      13.667  13.865  34.665  0.00  0.00    +0.000 A 
ATOM     16  C   UNL     1      13.599  14.108  33.316  0.00  0.00    +0.000 A 
ATOM     17  C   UNL     1      14.166  13.429  32.298  0.00  0.00    +0.000 A 
ATOM     18 CL   UNL     1      14.016  13.808  30.596  0.00  0.00    +0.000 Cl
ATOM     19  C   UNL     1      14.971  12.270  32.663  0.00  0.00    +0.000 A 
ATOM     20  C   UNL     1      15.009  12.069  34.026  0.00  0.00    +0.000 A 
ENDBRANCH  13  14
ENDBRANCH   2  13
TORSDOF 3
ENDMDL
MODEL 4
REMARK VINA RESULT:      -6.9     29.426     31.399
REMARK  Name = 
REMARK  3 active torsions:
REMARK  status: ('A' for Active; 'I' for Inactive)
REMARK    1  A    between atoms: C_6  and  N_7
REMARK    2  A    between atoms: C_8  and  C_10
REMARK    3  A    between atoms: C_10  and  C_11
REMARK                            x       y       z     vdW  Elec       q    Type
REMARK                         _______ _______ _______ _____ _____    ______ ____
ROOT
ATOM      1  N   UNL     1      30.992  20.936   9.589  0.00  0.00    +0.000 NA
ATOM      2  C   UNL     1      31.418  21.623   8.407  0.00  0.00    +0.000 C 
ATOM      3  O   UNL     1      31.102  22.816   8.296  0.00  0.00    +0.000 OA
ENDROOT
BRANCH   1   9
ATOM      4  C   UNL     1      27.822  23.622  13.471  0.00  0.00    +0.000 C 
ATOM      5  C   UNL     1      28.653  22.945  12.475  0.00  0.00    +0.000 A 
ATOM      6  C   UNL     1      30.027  22.933  12.551  0.00  0.00    +0.000 A 
ATOM      7  C   UNL     1      30.822  22.281  11.622  0.00  0.00    +0.000 A 
ATOM      8  O   UNL     1      32.198  22.310  11.771  0.00  0.00    +0.000 OA
ATOM      9  C   UNL     1      30.227  21.622  10.584  0.00  0.00    +0.000 A 
ATOM     10  C   UNL     1      28.870  21.649  10.530  0.00  0.00    +0.000 A 
ATOM     11  C   UNL     1      28.029  22.275  11.415  0.00  0.00    +0.000 A 
ATOM     12  C   UNL     1      26.574  22.240  11.229  0.00  0.00    +0.000 C 
ENDBRANCH   1   9
BRANCH   2  13
ATOM     13  C   UNL     1      32.218  20.875   7.371  0.00  0.00    +0.000 C 
BRANCH  13  14
ATOM     14  C   UNL     1      31.311  19.903   6.692  0.00  0.00    +0.000 A 
ATOM     15  C   UNL     1      31.990  18.646   6.343  0.00  0.00    +0.000 A 
ATOM     16  C   UNL     1      31.208  17.750   5.658  0.00  0.00    +0.000 A 
ATOM     17  C   UNL     1      29.923  17.866   5.267  0.00  0.00    +0.000 A 
ATOM     18 CL   UNL     1      29.003  16.667   4.384  0.00  0.00    +0.000 Cl
ATOM     19  C   UNL     1      29.251  19.111   5.614  0.00  0.00    +0.000 A 
ATOM     20  C   UNL     1      30.076  19.976   6.300  0.00  0.00    +0.000 A 
ENDBRANCH  13  14
ENDBRANCH   2  13
TORSDOF 3
ENDMDL
MODEL 5
REMARK VINA RESULT:      -6.9     28.572     30.067
REMARK  Name = 
REMARK  3 active torsions:
REMARK  status: ('A' for Active; 'I' for Inactive)
REMARK    1  A    between atoms: C_6  and  N_7
REMARK    2  A    between atoms: C_8  and  C_10
REMARK    3  A    between atoms: C_10  and  C_11
REMARK                            x       y       z     vdW  Elec       q    Type
REMARK                         _______ _______ _______ _____ _____    ______ ____
ROOT
ATOM      1  N   UNL     1      31.503  22.078  11.878  0.00  0.00    +0.000 NA
ATOM      2  C   UNL     1      31.957  20.840  12.436  0.00  0.00    +0.000 C 
ATOM      3  O   UNL     1      31.125  20.147  13.038  0.00  0.00    +0.000 OA
ENDROOT
BRANCH   1   9
ATOM      4  C   UNL     1      26.116  23.750  12.597  0.00  0.00    +0.000 C 
ATOM      5  C   UNL     1      27.495  23.301  12.405  0.00  0.00    +0.000 A 
ATOM      6  C   UNL     1      27.851  22.437  11.394  0.00  0.00    +0.000 A 
ATOM      7  C   UNL     1      29.157  22.019  11.194  0.00  0.00    +0.000 A 
ATOM      8  O   UNL     1      29.436  21.153  10.151  0.00  0.00    +0.000 OA
ATOM      9  C   UNL     1      30.138  22.476  12.028  0.00  0.00    +0.000 A 
ATOM     10  C   UNL     1      29.762  23.327  13.017  0.00  0.00    +0.000 A 
ATOM     11  C   UNL     1      28.490  23.777  13.269  0.00  0.00    +0.000 A 
ATOM     12  C   UNL     1      28.217  24.686  14.387  0.00  0.00    +0.000 C 
ENDBRANCH   1   9
BRANCH   2  13
ATOM     13  C   UNL     1      33.403  20.445  12.269  0.00  0.00    +0.000 C 
BRANCH  13  14
ATOM     14  C   UNL     1      33.765  20.597  10.829  0.00  0.00    +0.000 A 
ATOM     15  C   UNL     1      34.760  21.657  10.605  0.00  0.00    +0.000 A 
ATOM     16  C   UNL     1      35.072  21.873   9.286  0.00  0.00    +0.000 A 
ATOM     17  C   UNL     1      34.596  21.256   8.186  0.00  0.00    +0.000 A 
ATOM     18 CL   UNL     1      35.047  21.606   6.532  0.00  0.00    +0.000 Cl
ATOM     19  C   UNL     1      33.610  20.206   8.409  0.00  0.00    +0.000 A 
ATOM     20  C   UNL     1      33.331  20.027   9.746  0.00  0.00    +0.000 A 
ENDBRANCH  13  14
ENDBRANCH   2  13
TORSDOF 3
ENDMDL
MODEL 6
REMARK VINA RESULT:      -6.9     17.901     19.328
REMARK  Name = 
REMARK  3 active torsions:
REMARK  status: ('A' for Active; 'I' for Inactive)
REMARK    1  A    between atoms: C_6  and  N_7
REMARK    2  A    between atoms: C_8  and  C_10
REMARK    3  A    between atoms: C_10  and  C_11
REMARK                            x       y       z     vdW  Elec       q    Type
REMARK                         _______ _______ _______ _____ _____    ______ ____
ROOT
ATOM      1  N   UNL     1      34.512   4.150  34.691  0.00  0.00    +0.000 NA
ATOM      2  C   UNL     1      33.518   3.942  33.681  0.00  0.00    +0.000 C 
ATOM      3  O   UNL     1      32.487   4.624  33.748  0.00  0.00    +0.000 OA
ENDROOT
BRANCH   1   9
ATOM      4  C   UNL     1      33.680   8.080  38.715  0.00  0.00    +0.000 C 
ATOM      5  C   UNL     1      33.901   7.055  37.694  0.00  0.00    +0.000 A 
ATOM      6  C   UNL     1      33.720   5.714  37.950  0.00  0.00    +0.000 A 
ATOM      7  C   UNL     1      33.910   4.738  36.985  0.00  0.00    +0.000 A 
ATOM      8  O   UNL     1      33.702   3.410  37.319  0.00  0.00    +0.000 OA
ATOM      9  C   UNL     1      34.293   5.110  35.728  0.00  0.00    +0.000 A 
ATOM     10  C   UNL     1      34.465   6.437  35.501  0.00  0.00    +0.000 A 
ATOM     11  C   UNL     1      34.295   7.451  36.410  0.00  0.00    +0.000 A 
ATOM     12  C   UNL     1      34.532   8.850  36.037  0.00  0.00    +0.000 C 
ENDBRANCH   1   9
BRANCH   2  13
ATOM     13  C   UNL     1      33.770   2.919  32.602  0.00  0.00    +0.000 C 
BRANCH  13  14
ATOM     14  C   UNL     1      33.559   1.562  33.186  0.00  0.00    +0.000 A 
ATOM     15  C   UNL     1      34.416   0.540  32.565  0.00  0.00    +0.000 A 
ATOM     16  C   UNL     1      34.206  -0.734  33.028  0.00  0.00    +0.000 A 
ATOM     17  C   UNL     1      33.332  -1.170  33.959  0.00  0.00    +0.000 A 
ATOM     18 CL   UNL     1      33.126  -2.826  34.483  0.00  0.00    +0.000 Cl
ATOM     19  C   UNL     1      32.484  -0.157  34.573  0.00  0.00    +0.000 A 
ATOM     20  C   UNL     1      32.733   1.104  34.076  0.00  0.00    +0.000 A 
ENDBRANCH  13  14
ENDBRANCH   2  13
TORSDOF 3
ENDMDL
MODEL 7
REMARK VINA RESULT:      -6.8      3.237      4.261
REMARK  Name = 
REMARK  3 active torsions:
REMARK  status: ('A' for Active; 'I' for Inactive)
REMARK    1  A    between atoms: C_6  and  N_7
REMARK    2  A    between atoms: C_8  and  C_10
REMARK    3  A    between atoms: C_10  and  C_11
REMARK                            x       y       z     vdW  Elec       q    Type
REMARK                         _______ _______ _______ _____ _____    ______ ____
ROOT
ATOM      1  N   UNL     1      16.846  10.005  36.343  0.00  0.00    +0.000 NA
ATOM      2  C   UNL     1      17.942  10.455  37.147  0.00  0.00    +0.000 C 
ATOM      3  O   UNL     1      18.187  11.669  37.148  0.00  0.00    +0.000 OA
ENDROOT
BRANCH   1   9
ATOM      4  C   UNL     1      13.892  13.685  33.171  0.00  0.00    +0.000 C 
ATOM      5  C   UNL     1      14.651  12.752  34.004  0.00  0.00    +0.000 A 
ATOM      6  C   UNL     1      14.425  12.624  35.356  0.00  0.00    +0.000 A 
ATOM      7  C   UNL     1      15.127  11.731  36.149  0.00  0.00    +0.000 A 
ATOM      8  O   UNL     1      14.838  11.657  37.501  0.00  0.00    +0.000 OA
ATOM      9  C   UNL     1      16.084  10.942  35.577  0.00  0.00    +0.000 A 
ATOM     10  C   UNL     1      16.288  11.086  34.242  0.00  0.00    +0.000 A 
ATOM     11  C   UNL     1      15.630  11.950  33.403  0.00  0.00    +0.000 A 
ATOM     12  C   UNL     1      15.961  12.017  31.976  0.00  0.00    +0.000 C 
ENDBRANCH   1   9
BRANCH   2  13
ATOM     13  C   UNL     1      18.734   9.446  37.940  0.00  0.00    +0.000 C 
BRANCH  13  14
ATOM     14  C   UNL     1      17.967   9.116  39.176  0.00  0.00    +0.000 A 
ATOM     15  C   UNL     1      18.357   7.823  39.756  0.00  0.00    +0.000 A 
ATOM     16  C   UNL     1      17.629   7.451  40.858  0.00  0.00    +0.000 A 
ATOM     17  C   UNL     1      16.618   8.101  41.470  0.00  0.00    +0.000 A 
ATOM     18 CL   UNL     1      15.735   7.544  42.874  0.00  0.00    +0.000 Cl
ATOM     19  C   UNL     1      16.231   9.383  40.895  0.00  0.00    +0.000 A 
ATOM     20  C   UNL     1      16.991   9.711  39.793  0.00  0.00    +0.000 A 
ENDBRANCH  13  14
ENDBRANCH   2  13
TORSDOF 3
ENDMDL
MODEL 8
REMARK VINA RESULT:      -6.8      3.433      4.222
REMARK  Name = 
REMARK  3 active torsions:
REMARK  status: ('A' for Active; 'I' for Inactive)
REMARK    1  A    between atoms: C_6  and  N_7
REMARK    2  A    between atoms: C_8  and  C_10
REMARK    3  A    between atoms: C_10  and  C_11
REMARK                            x       y       z     vdW  Elec       q    Type
REMARK                         _______ _______ _______ _____ _____    ______ ____
ROOT
ATOM      1  N   UNL     1      17.110   9.852  36.844  0.00  0.00    +0.000 NA
ATOM      2  C   UNL     1      18.188  10.353  37.642  0.00  0.00    +0.000 C 
ATOM      3  O   UNL     1      18.433  11.565  37.574  0.00  0.00    +0.000 OA
ENDROOT
BRANCH   1   9
ATOM      4  C   UNL     1      14.053  13.408  33.627  0.00  0.00    +0.000 C 
ATOM      5  C   UNL     1      14.844  12.481  34.438  0.00  0.00    +0.000 A 
ATOM      6  C   UNL     1      15.933  11.809  33.931  0.00  0.00    +0.000 A 
ATOM      7  C   UNL     1      16.698  10.942  34.696  0.00  0.00    +0.000 A 
ATOM      8  O   UNL     1      17.782  10.307  34.115  0.00  0.00    +0.000 OA
ATOM      9  C   UNL     1      16.364  10.739  36.005  0.00  0.00    +0.000 A 
ATOM     10  C   UNL     1      15.286  11.413  36.481  0.00  0.00    +0.000 A 
ATOM     11  C   UNL     1      14.489  12.282  35.778  0.00  0.00    +0.000 A 
ATOM     12  C   UNL     1      13.339  12.934  36.412  0.00  0.00    +0.000 C 
ENDBRANCH   1   9
BRANCH   2  13
ATOM     13  C   UNL     1      18.962   9.396  38.514  0.00  0.00    +0.000 C 
BRANCH  13  14
ATOM     14  C   UNL     1      18.102   9.019  39.673  0.00  0.00    +0.000 A 
ATOM     15  C   UNL     1      18.298   7.623  40.093  0.00  0.00    +0.000 A 
ATOM     16  C   UNL     1      17.477   7.217  41.115  0.00  0.00    +0.000 A 
ATOM     17  C   UNL     1      16.530   7.913  41.775  0.00  0.00    +0.000 A 
ATOM     18 CL   UNL     1      15.519   7.307  43.068  0.00  0.00    +0.000 Cl
ATOM     19  C   UNL     1      16.336   9.297  41.359  0.00  0.00    +0.000 A 
ATOM     20  C   UNL     1      17.182   9.656  40.333  0.00  0.00    +0.000 A 
ENDBRANCH  13  14
ENDBRANCH   2  13
TORSDOF 3
ENDMDL
MODEL 9
REMARK VINA RESULT:      -6.5      3.198      7.773
REMARK  Name = 
REMARK  3 active torsions:
REMARK  status: ('A' for Active; 'I' for Inactive)
REMARK    1  A    between atoms: C_6  and  N_7
REMARK    2  A    between atoms: C_8  and  C_10
REMARK    3  A    between atoms: C_10  and  C_11
REMARK                            x       y       z     vdW  Elec       q    Type
REMARK                         _______ _______ _______ _____ _____    ______ ____
ROOT
ATOM      1  N   UNL     1      19.443   9.594  37.778  0.00  0.00    +0.000 NA
ATOM      2  C   UNL     1      18.498  10.654  37.593  0.00  0.00    +0.000 C 
ATOM      3  O   UNL     1      18.932  11.813  37.604  0.00  0.00    +0.000 OA
ENDROOT
BRANCH   1   9
ATOM      4  C   UNL     1      24.975  10.758  38.395  0.00  0.00    +0.000 C 
ATOM      5  C   UNL     1      23.551  10.450  38.256  0.00  0.00    +0.000 A 
ATOM      6  C   UNL     1      22.687  10.474  39.327  0.00  0.00    +0.000 A 
ATOM      7  C   UNL     1      21.334  10.201  39.202  0.00  0.00    +0.000 A 
ATOM      8  O   UNL     1      20.529  10.251  40.327  0.00  0.00    +0.000 OA
ATOM      9  C   UNL     1      20.829   9.893  37.971  0.00  0.00    +0.000 A 
ATOM     10  C   UNL     1      21.700   9.875  36.930  0.00  0.00    +0.000 A 
ATOM     11  C   UNL     1      23.047  10.135  36.987  0.00  0.00    +0.000 A 
ATOM     12  C   UNL     1      23.882  10.065  35.784  0.00  0.00    +0.000 C 
ENDBRANCH   1   9
BRANCH   2  13
ATOM     13  C   UNL     1      17.042  10.312  37.398  0.00  0.00    +0.000 C 
BRANCH  13  14
ATOM     14  C   UNL     1      16.666  10.651  35.994  0.00  0.00    +0.000 A 
ATOM     15  C   UNL     1      17.488   9.941  35.002  0.00  0.00    +0.000 A 
ATOM     16  C   UNL     1      17.218  10.274  33.698  0.00  0.00    +0.000 A 
ATOM     17  C   UNL     1      16.318  11.152  33.212  0.00  0.00    +0.000 A 
ATOM     18 CL   UNL     1      16.049  11.522  31.523  0.00  0.00    +0.000 Cl
ATOM     19  C   UNL     1      15.505  11.856  34.195  0.00  0.00    +0.000 A 
ATOM     20  C   UNL     1      15.812  11.487  35.487  0.00  0.00    +0.000 A 
ENDBRANCH  13  14
ENDBRANCH   2  13
TORSDOF 3
ENDMDL
MODEL 10
REMARK VINA RESULT:      -6.3     18.900     21.311
REMARK  Name = 
REMARK  3 active torsions:
REMARK  status: ('A' for Active; 'I' for Inactive)
REMARK    1  A    between atoms: C_6  and  N_7
REMARK    2  A    between atoms: C_8  and  C_10
REMARK    3  A    between atoms: C_10  and  C_11
REMARK                            x       y       z     vdW  Elec       q    Type
REMARK                         _______ _______ _______ _____ _____    ______ ____
ROOT
ATOM      1  N   UNL     1      34.113  -0.545  35.489  0.00  0.00    +0.000 NA
ATOM      2  C   UNL     1      32.973  -1.323  35.873  0.00  0.00    +0.000 C 
ATOM      3  O   UNL     1      31.872  -0.755  35.879  0.00  0.00    +0.000 OA
ENDROOT
BRANCH   1   9
ATOM      4  C   UNL     1      33.520   4.970  34.237  0.00  0.00    +0.000 C 
ATOM      5  C   UNL     1      33.659   3.546  34.544  0.00  0.00    +0.000 A 
ATOM      6  C   UNL     1      33.563   2.573  33.574  0.00  0.00    +0.000 A 
ATOM      7  C   UNL     1      33.710   1.224  33.852  0.00  0.00    +0.000 A 
ATOM      8  O   UNL     1      33.606   0.307  32.820  0.00  0.00    +0.000 OA
ATOM      9  C   UNL     1      33.958   0.832  35.137  0.00  0.00    +0.000 A 
ATOM     10  C   UNL     1      34.047   1.809  36.076  0.00  0.00    +0.000 A 
ATOM     11  C   UNL     1      33.911   3.159  35.867  0.00  0.00    +0.000 A 
ATOM     12  C   UNL     1      34.014   4.111  36.978  0.00  0.00    +0.000 C 
ENDBRANCH   1   9
BRANCH   2  13
ATOM     13  C   UNL     1      33.164  -2.772  36.246  0.00  0.00    +0.000 C 
BRANCH  13  14
ATOM     14  C   UNL     1      33.521  -3.529  35.011  0.00  0.00    +0.000 A 
ATOM     15  C   UNL     1      34.525  -4.575  35.259  0.00  0.00    +0.000 A 
ATOM     16  C   UNL     1      34.929  -5.252  34.136  0.00  0.00    +0.000 A 
ATOM     17  C   UNL     1      34.539  -5.088  32.856  0.00  0.00    +0.000 A 
ATOM     18 CL   UNL     1      35.119  -5.997  31.478  0.00  0.00    +0.000 Cl
ATOM     19  C   UNL     1      33.545  -4.052  32.610  0.00  0.00    +0.000 A 
ATOM     20  C   UNL     1      33.171  -3.403  33.767  0.00  0.00    +0.000 A 
ENDBRANCH  13  14
ENDBRANCH   2  13
TORSDOF 3
ENDMDL
