MODEL 1
REMARK VINA RESULT:      -7.4      0.000      0.000
REMARK  Name = 
REMARK  2 active torsions:
REMARK  status: ('A' for Active; 'I' for Inactive)
REMARK    1  A    between atoms: C_2  and  C_13
REMARK    2  A    between atoms: N_3  and  N_4
REMARK                            x       y       z     vdW  Elec       q    Type
REMARK                         _______ _______ _______ _____ _____    ______ ____
ROOT
ATOM      1  O   UNL     1      13.977  11.957  36.347  0.00  0.00    +0.000 OA
ATOM      2  C   UNL     1      14.801  12.025  35.400  0.00  0.00    +0.000 C 
ATOM      3  N   UNL     1      16.043  11.374  35.580  0.00  0.00    +0.000 NA
ENDROOT
BRANCH   3   4
ATOM      4  N   UNL     1      16.395  10.671  36.738  0.00  0.00    +0.000 NA
ATOM      5  C   UNL     1      17.218  11.115  37.611  0.00  0.00    +0.000 C 
ATOM      6  C   UNL     1      17.808  12.440  37.352  0.00  0.00    +0.000 C 
ATOM      7  C   UNL     1      19.225  12.445  37.886  0.00  0.00    +0.000 C 
ATOM      8  C   UNL     1      19.718  11.047  38.194  0.00  0.00    +0.000 C 
ATOM      9  C   UNL     1      19.901  10.248  36.909  0.00  0.00    +0.000 C 
ATOM     10  C   UNL     1      18.739   9.253  36.870  0.00  0.00    +0.000 C 
ATOM     11  C   UNL     1      18.217   8.978  38.266  0.00  0.00    +0.000 C 
ATOM     12  C   UNL     1      17.381  10.139  38.717  0.00  0.00    +0.000 C 
ENDBRANCH   3   4
BRANCH   2  13
ATOM     13  C   UNL     1      14.470  12.753  34.166  0.00  0.00    +0.000 A 
ATOM     14  C   UNL     1      13.730  13.909  34.264  0.00  0.00    +0.000 A 
ATOM     15  C   UNL     1      13.384  14.642  33.130  0.00  0.00    +0.000 A 
ATOM     16  C   UNL     1      13.803  14.187  31.882  0.00  0.00    +0.000 A 
ATOM     17  C   UNL     1      14.549  13.025  31.772  0.00  0.00    +0.000 A 
ATOM     18  O   UNL     1      14.943  12.612  30.517  0.00  0.00    +0.000 OA
ATOM     19  C   UNL     1      14.860  12.342  32.931  0.00  0.00    +0.000 A 
ENDBRANCH   2  13
TORSDOF 2
ENDMDL
MODEL 2
REMARK VINA RESULT:      -6.3     21.680     23.490
REMARK  Name = 
REMARK  2 active torsions:
REMARK  status: ('A' for Active; 'I' for Inactive)
REMARK    1  A    between atoms: C_2  and  C_13
REMARK    2  A    between atoms: N_3  and  N_4
REMARK                            x       y       z     vdW  Elec       q    Type
REMARK                         _______ _______ _______ _____ _____    ______ ____
ROOT
ATOM      1  O   UNL     1      22.213  -8.685  25.828  0.00  0.00    +0.000 OA
ATOM      2  C   UNL     1      21.733  -7.560  25.539  0.00  0.00    +0.000 C 
ATOM      3  N   UNL     1      22.546  -6.690  24.777  0.00  0.00    +0.000 NA
ENDROOT
BRANCH   3   4
ATOM      4  N   UNL     1      23.835  -7.012  24.337  0.00  0.00    +0.000 NA
ATOM      5  C   UNL     1      24.102  -7.373  23.139  0.00  0.00    +0.000 C 
ATOM      6  C   UNL     1      22.969  -7.441  22.199  0.00  0.00    +0.000 C 
ATOM      7  C   UNL     1      23.218  -8.580  21.233  0.00  0.00    +0.000 C 
ATOM      8  C   UNL     1      24.326  -9.494  21.710  0.00  0.00    +0.000 C 
ATOM      9  C   UNL     1      23.889 -10.265  22.950  0.00  0.00    +0.000 C 
ATOM     10  C   UNL     1      24.639  -9.626  24.121  0.00  0.00    +0.000 C 
ATOM     11  C   UNL     1      25.908  -8.948  23.643  0.00  0.00    +0.000 C 
ATOM     12  C   UNL     1      25.553  -7.646  22.988  0.00  0.00    +0.000 C 
ENDBRANCH   3   4
BRANCH   2  13
ATOM     13  C   UNL     1      20.382  -7.183  25.982  0.00  0.00    +0.000 A 
ATOM     14  C   UNL     1      19.526  -8.175  26.400  0.00  0.00    +0.000 A 
ATOM     15  C   UNL     1      18.234  -7.880  26.830  0.00  0.00    +0.000 A 
ATOM     16  C   UNL     1      17.814  -6.552  26.834  0.00  0.00    +0.000 A 
ATOM     17  C   UNL     1      18.668  -5.544  26.416  0.00  0.00    +0.000 A 
ATOM     18  O   UNL     1      18.211  -4.244  26.436  0.00  0.00    +0.000 OA
ATOM     19  C   UNL     1      19.936  -5.900  26.001  0.00  0.00    +0.000 A 
ENDBRANCH   2  13
TORSDOF 2
ENDMDL
MODEL 3
REMARK VINA RESULT:      -6.2     21.862     24.605
REMARK  Name = 
REMARK  2 active torsions:
REMARK  status: ('A' for Active; 'I' for Inactive)
REMARK    1  A    between atoms: C_2  and  C_13
REMARK    2  A    between atoms: N_3  and  N_4
REMARK                            x       y       z     vdW  Elec       q    Type
REMARK                         _______ _______ _______ _____ _____    ______ ____
ROOT
ATOM      1  O   UNL     1      34.422  -5.038  34.411  0.00  0.00    +0.000 OA
ATOM      2  C   UNL     1      33.944  -4.260  33.547  0.00  0.00    +0.000 C 
ATOM      3  N   UNL     1      33.944  -4.710  32.206  0.00  0.00    +0.000 NA
ENDROOT
BRANCH   3   4
ATOM      4  N   UNL     1      34.438  -5.955  31.801  0.00  0.00    +0.000 NA
ATOM      5  C   UNL     1      34.558  -6.302  30.576  0.00  0.00    +0.000 C 
ATOM      6  C   UNL     1      34.145  -5.315  29.563  0.00  0.00    +0.000 C 
ATOM      7  C   UNL     1      33.556  -6.058  28.382  0.00  0.00    +0.000 C 
ATOM      8  C   UNL     1      33.253  -7.502  28.718  0.00  0.00    +0.000 C 
ATOM      9  C   UNL     1      32.101  -7.591  29.712  0.00  0.00    +0.000 C 
ATOM     10  C   UNL     1      32.736  -7.972  31.051  0.00  0.00    +0.000 C 
ATOM     11  C   UNL     1      34.057  -8.685  30.838  0.00  0.00    +0.000 C 
ATOM     12  C   UNL     1      35.108  -7.677  30.475  0.00  0.00    +0.000 C 
ENDBRANCH   3   4
BRANCH   2  13
ATOM     13  C   UNL     1      33.415  -2.943  33.931  0.00  0.00    +0.000 A 
ATOM     14  C   UNL     1      32.435  -2.885  34.895  0.00  0.00    +0.000 A 
ATOM     15  C   UNL     1      31.893  -1.666  35.301  0.00  0.00    +0.000 A 
ATOM     16  C   UNL     1      32.362  -0.493  34.713  0.00  0.00    +0.000 A 
ATOM     17  C   UNL     1      33.349  -0.540  33.742  0.00  0.00    +0.000 A 
ATOM     18  O   UNL     1      33.784   0.644  33.187  0.00  0.00    +0.000 OA
ATOM     19  C   UNL     1      33.846  -1.778  33.382  0.00  0.00    +0.000 A 
ENDBRANCH   2  13
TORSDOF 2
ENDMDL
MODEL 4
REMARK VINA RESULT:      -6.2      3.471      5.113
REMARK  Name = 
REMARK  2 active torsions:
REMARK  status: ('A' for Active; 'I' for Inactive)
REMARK    1  A    between atoms: C_2  and  C_13
REMARK    2  A    between atoms: N_3  and  N_4
REMARK                            x       y       z     vdW  Elec       q    Type
REMARK                         _______ _______ _______ _____ _____    ______ ____
ROOT
ATOM      1  O   UNL     1      18.802   8.814  38.584  0.00  0.00    +0.000 OA
ATOM      2  C   UNL     1      18.880   9.756  37.756  0.00  0.00    +0.000 C 
ATOM      3  N   UNL     1      20.177  10.180  37.385  0.00  0.00    +0.000 NA
ENDROOT
BRANCH   3   4
ATOM      4  N   UNL     1      21.355   9.614  37.884  0.00  0.00    +0.000 NA
ATOM      5  C   UNL     1      22.341  10.304  38.317  0.00  0.00    +0.000 C 
ATOM      6  C   UNL     1      22.195  11.770  38.274  0.00  0.00    +0.000 C 
ATOM      7  C   UNL     1      23.553  12.378  37.989  0.00  0.00    +0.000 C 
ATOM      8  C   UNL     1      24.545  11.343  37.503  0.00  0.00    +0.000 C 
ATOM      9  C   UNL     1      24.161  10.842  36.115  0.00  0.00    +0.000 C 
ATOM     10  C   UNL     1      23.604   9.432  36.322  0.00  0.00    +0.000 C 
ATOM     11  C   UNL     1      24.150   8.818  37.597  0.00  0.00    +0.000 C 
ATOM     12  C   UNL     1      23.438   9.415  38.775  0.00  0.00    +0.000 C 
ENDBRANCH   3   4
BRANCH   2  13
ATOM     13  C   UNL     1      17.666  10.378  37.207  0.00  0.00    +0.000 A 
ATOM     14  C   UNL     1      16.617  10.635  38.059  0.00  0.00    +0.000 A 
ATOM     15  C   UNL     1      15.440  11.222  37.598  0.00  0.00    +0.000 A 
ATOM     16  C   UNL     1      15.336  11.550  36.248  0.00  0.00    +0.000 A 
ATOM     17  C   UNL     1      16.386  11.296  35.381  0.00  0.00    +0.000 A 
ATOM     18  O   UNL     1      16.241  11.637  34.053  0.00  0.00    +0.000 OA
ATOM     19  C   UNL     1      17.527  10.712  35.898  0.00  0.00    +0.000 A 
ENDBRANCH   2  13
TORSDOF 2
ENDMDL
MODEL 5
REMARK VINA RESULT:      -6.1     21.348     22.689
REMARK  Name = 
REMARK  2 active torsions:
REMARK  status: ('A' for Active; 'I' for Inactive)
REMARK    1  A    between atoms: C_2  and  C_13
REMARK    2  A    between atoms: N_3  and  N_4
REMARK                            x       y       z     vdW  Elec       q    Type
REMARK                         _______ _______ _______ _____ _____    ______ ____
ROOT
ATOM      1  O   UNL     1      29.756  24.446  20.692  0.00  0.00    +0.000 OA
ATOM      2  C   UNL     1      29.357  25.406  21.399  0.00  0.00    +0.000 C 
ATOM      3  N   UNL     1      29.518  25.283  22.799  0.00  0.00    +0.000 NA
ENDROOT
BRANCH   3   4
ATOM      4  N   UNL     1      30.090  24.169  23.424  0.00  0.00    +0.000 NA
ATOM      5  C   UNL     1      29.407  23.267  24.019  0.00  0.00    +0.000 C 
ATOM      6  C   UNL     1      27.944  23.440  24.029  0.00  0.00    +0.000 C 
ATOM      7  C   UNL     1      27.407  22.899  25.338  0.00  0.00    +0.000 C 
ATOM      8  C   UNL     1      28.508  22.676  26.352  0.00  0.00    +0.000 C 
ATOM      9  C   UNL     1      29.092  24.006  26.812  0.00  0.00    +0.000 C 
ATOM     10  C   UNL     1      30.463  24.113  26.141  0.00  0.00    +0.000 C 
ATOM     11  C   UNL     1      31.004  22.739  25.799  0.00  0.00    +0.000 C 
ATOM     12  C   UNL     1      30.301  22.222  24.579  0.00  0.00    +0.000 C 
ENDBRANCH   3   4
BRANCH   2  13
ATOM     13  C   UNL     1      28.751  26.595  20.781  0.00  0.00    +0.000 A 
ATOM     14  C   UNL     1      27.459  26.925  21.119  0.00  0.00    +0.000 A 
ATOM     15  C   UNL     1      26.831  28.040  20.567  0.00  0.00    +0.000 A 
ATOM     16  C   UNL     1      27.535  28.826  19.657  0.00  0.00    +0.000 A 
ATOM     17  C   UNL     1      28.837  28.503  19.310  0.00  0.00    +0.000 A 
ATOM     18  O   UNL     1      29.497  29.309  18.407  0.00  0.00    +0.000 OA
ATOM     19  C   UNL     1      29.405  27.386  19.892  0.00  0.00    +0.000 A 
ENDBRANCH   2  13
TORSDOF 2
ENDMDL
MODEL 6
REMARK VINA RESULT:      -6.1      4.294      7.926
REMARK  Name = 
REMARK  2 active torsions:
REMARK  status: ('A' for Active; 'I' for Inactive)
REMARK    1  A    between atoms: C_2  and  C_13
REMARK    2  A    between atoms: N_3  and  N_4
REMARK                            x       y       z     vdW  Elec       q    Type
REMARK                         _______ _______ _______ _____ _____    ______ ____
ROOT
ATOM      1  O   UNL     1      20.540   9.763  39.266  0.00  0.00    +0.000 OA
ATOM      2  C   UNL     1      20.895   9.990  38.082  0.00  0.00    +0.000 C 
ATOM      3  N   UNL     1      19.889  10.402  37.178  0.00  0.00    +0.000 NA
ENDROOT
BRANCH   3   4
ATOM      4  N   UNL     1      18.544  10.567  37.529  0.00  0.00    +0.000 NA
ATOM      5  C   UNL     1      17.571  10.174  36.798  0.00  0.00    +0.000 C 
ATOM      6  C   UNL     1      17.919   9.516  35.527  0.00  0.00    +0.000 C 
ATOM      7  C   UNL     1      16.867   9.874  34.498  0.00  0.00    +0.000 C 
ATOM      8  C   UNL     1      16.003  11.031  34.953  0.00  0.00    +0.000 C 
ATOM      9  C   UNL     1      16.812  12.322  34.993  0.00  0.00    +0.000 C 
ATOM     10  C   UNL     1      17.053  12.615  36.476  0.00  0.00    +0.000 C 
ATOM     11  C   UNL     1      15.987  11.963  37.334  0.00  0.00    +0.000 C 
ATOM     12  C   UNL     1      16.272  10.494  37.443  0.00  0.00    +0.000 C 
ENDBRANCH   3   4
BRANCH   2  13
ATOM     13  C   UNL     1      22.298   9.829  37.673  0.00  0.00    +0.000 A 
ATOM     14  C   UNL     1      22.686  10.320  36.448  0.00  0.00    +0.000 A 
ATOM     15  C   UNL     1      24.002  10.197  36.005  0.00  0.00    +0.000 A 
ATOM     16  C   UNL     1      24.931   9.564  36.828  0.00  0.00    +0.000 A 
ATOM     17  C   UNL     1      24.551   9.066  38.063  0.00  0.00    +0.000 A 
ATOM     18  O   UNL     1      25.504   8.447  38.845  0.00  0.00    +0.000 OA
ATOM     19  C   UNL     1      23.233   9.218  38.446  0.00  0.00    +0.000 A 
ENDBRANCH   2  13
TORSDOF 2
ENDMDL
MODEL 7
REMARK VINA RESULT:      -6.0     18.368     19.691
REMARK  Name = 
REMARK  2 active torsions:
REMARK  status: ('A' for Active; 'I' for Inactive)
REMARK    1  A    between atoms: C_2  and  C_13
REMARK    2  A    between atoms: N_3  and  N_4
REMARK                            x       y       z     vdW  Elec       q    Type
REMARK                         _______ _______ _______ _____ _____    ______ ____
ROOT
ATOM      1  O   UNL     1      25.202  23.776  25.929  0.00  0.00    +0.000 OA
ATOM      2  C   UNL     1      25.948  24.501  26.635  0.00  0.00    +0.000 C 
ATOM      3  N   UNL     1      27.217  24.827  26.104  0.00  0.00    +0.000 NA
ENDROOT
BRANCH   3   4
ATOM      4  N   UNL     1      27.676  24.393  24.855  0.00  0.00    +0.000 NA
ATOM      5  C   UNL     1      28.526  23.449  24.705  0.00  0.00    +0.000 C 
ATOM      6  C   UNL     1      29.029  22.808  25.932  0.00  0.00    +0.000 C 
ATOM      7  C   UNL     1      30.474  22.413  25.708  0.00  0.00    +0.000 C 
ATOM      8  C   UNL     1      31.057  23.078  24.480  0.00  0.00    +0.000 C 
ATOM      9  C   UNL     1      31.204  24.579  24.701  0.00  0.00    +0.000 C 
ATOM     10  C   UNL     1      30.095  25.231  23.871  0.00  0.00    +0.000 C 
ATOM     11  C   UNL     1      29.675  24.327  22.729  0.00  0.00    +0.000 C 
ATOM     12  C   UNL     1      28.808  23.226  23.265  0.00  0.00    +0.000 C 
ENDBRANCH   3   4
BRANCH   2  13
ATOM     13  C   UNL     1      25.504  24.979  27.953  0.00  0.00    +0.000 A 
ATOM     14  C   UNL     1      24.564  25.982  28.005  0.00  0.00    +0.000 A 
ATOM     15  C   UNL     1      24.104  26.477  29.224  0.00  0.00    +0.000 A 
ATOM     16  C   UNL     1      24.612  25.937  30.404  0.00  0.00    +0.000 A 
ATOM     17  C   UNL     1      25.559  24.926  30.363  0.00  0.00    +0.000 A 
ATOM     18  O   UNL     1      26.034  24.421  31.554  0.00  0.00    +0.000 OA
ATOM     19  C   UNL     1      25.975  24.478  29.124  0.00  0.00    +0.000 A 
ENDBRANCH   2  13
TORSDOF 2
ENDMDL
MODEL 8
REMARK VINA RESULT:      -6.0     18.290     20.045
REMARK  Name = 
REMARK  2 active torsions:
REMARK  status: ('A' for Active; 'I' for Inactive)
REMARK    1  A    between atoms: C_2  and  C_13
REMARK    2  A    between atoms: N_3  and  N_4
REMARK                            x       y       z     vdW  Elec       q    Type
REMARK                         _______ _______ _______ _____ _____    ______ ____
ROOT
ATOM      1  O   UNL     1      26.401  25.273  26.058  0.00  0.00    +0.000 OA
ATOM      2  C   UNL     1      26.591  24.094  26.452  0.00  0.00    +0.000 C 
ATOM      3  N   UNL     1      26.829  23.116  25.459  0.00  0.00    +0.000 NA
ENDROOT
BRANCH   3   4
ATOM      4  N   UNL     1      26.863  23.389  24.087  0.00  0.00    +0.000 NA
ATOM      5  C   UNL     1      27.940  23.410  23.398  0.00  0.00    +0.000 C 
ATOM      6  C   UNL     1      29.194  23.129  24.119  0.00  0.00    +0.000 C 
ATOM      7  C   UNL     1      30.299  23.960  23.500  0.00  0.00    +0.000 C 
ATOM      8  C   UNL     1      29.752  25.047  22.600  0.00  0.00    +0.000 C 
ATOM      9  C   UNL     1      29.025  26.107  23.420  0.00  0.00    +0.000 C 
ATOM     10  C   UNL     1      27.533  25.882  23.160  0.00  0.00    +0.000 C 
ATOM     11  C   UNL     1      27.317  25.186  21.831  0.00  0.00    +0.000 C 
ATOM     12  C   UNL     1      27.645  23.729  21.978  0.00  0.00    +0.000 C 
ENDBRANCH   3   4
BRANCH   2  13
ATOM     13  C   UNL     1      26.565  23.766  27.885  0.00  0.00    +0.000 A 
ATOM     14  C   UNL     1      27.220  22.635  28.312  0.00  0.00    +0.000 A 
ATOM     15  C   UNL     1      27.229  22.272  29.658  0.00  0.00    +0.000 A 
ATOM     16  C   UNL     1      26.560  23.078  30.577  0.00  0.00    +0.000 A 
ATOM     17  C   UNL     1      25.898  24.220  30.157  0.00  0.00    +0.000 A 
ATOM     18  O   UNL     1      25.249  24.988  31.100  0.00  0.00    +0.000 OA
ATOM     19  C   UNL     1      25.924  24.527  28.811  0.00  0.00    +0.000 A 
ENDBRANCH   2  13
TORSDOF 2
ENDMDL
MODEL 9
REMARK VINA RESULT:      -5.9     19.649     21.131
REMARK  Name = 
REMARK  2 active torsions:
REMARK  status: ('A' for Active; 'I' for Inactive)
REMARK    1  A    between atoms: C_2  and  C_13
REMARK    2  A    between atoms: N_3  and  N_4
REMARK                            x       y       z     vdW  Elec       q    Type
REMARK                         _______ _______ _______ _____ _____    ______ ____
ROOT
ATOM      1  O   UNL     1      33.165   0.468  37.731  0.00  0.00    +0.000 OA
ATOM      2  C   UNL     1      33.521   0.573  36.530  0.00  0.00    +0.000 C 
ATOM      3  N   UNL     1      34.043   1.822  36.121  0.00  0.00    +0.000 NA
ENDROOT
BRANCH   3   4
ATOM      4  N   UNL     1      34.183   2.925  36.971  0.00  0.00    +0.000 NA
ATOM      5  C   UNL     1      34.071   4.137  36.577  0.00  0.00    +0.000 C 
ATOM      6  C   UNL     1      33.780   4.346  35.148  0.00  0.00    +0.000 C 
ATOM      7  C   UNL     1      34.477   5.613  34.699  0.00  0.00    +0.000 C 
ATOM      8  C   UNL     1      35.506   6.079  35.705  0.00  0.00    +0.000 C 
ATOM      9  C   UNL     1      36.683   5.111  35.756  0.00  0.00    +0.000 C 
ATOM     10  C   UNL     1      36.530   4.342  37.070  0.00  0.00    +0.000 C 
ATOM     11  C   UNL     1      35.726   5.144  38.075  0.00  0.00    +0.000 C 
ATOM     12  C   UNL     1      34.272   5.074  37.711  0.00  0.00    +0.000 C 
ENDBRANCH   3   4
BRANCH   2  13
ATOM     13  C   UNL     1      33.392  -0.563  35.606  0.00  0.00    +0.000 A 
ATOM     14  C   UNL     1      33.996  -0.479  34.373  0.00  0.00    +0.000 A 
ATOM     15  C   UNL     1      33.909  -1.523  33.454  0.00  0.00    +0.000 A 
ATOM     16  C   UNL     1      33.194  -2.667  33.802  0.00  0.00    +0.000 A 
ATOM     17  C   UNL     1      32.581  -2.763  35.041  0.00  0.00    +0.000 A 
ATOM     18  O   UNL     1      31.885  -3.913  35.344  0.00  0.00    +0.000 OA
ATOM     19  C   UNL     1      32.704  -1.695  35.908  0.00  0.00    +0.000 A 
ENDBRANCH   2  13
TORSDOF 2
ENDMDL
MODEL 10
REMARK VINA RESULT:      -5.8     23.561     25.806
REMARK  Name = 
REMARK  2 active torsions:
REMARK  status: ('A' for Active; 'I' for Inactive)
REMARK    1  A    between atoms: C_2  and  C_13
REMARK    2  A    between atoms: N_3  and  N_4
REMARK                            x       y       z     vdW  Elec       q    Type
REMARK                         _______ _______ _______ _____ _____    ______ ____
ROOT
ATOM      1  O   UNL     1      29.536  27.683  21.584  0.00  0.00    +0.000 OA
ATOM      2  C   UNL     1      29.421  26.547  21.058  0.00  0.00    +0.000 C 
ATOM      3  N   UNL     1      29.894  26.400  19.734  0.00  0.00    +0.000 NA
ENDROOT
BRANCH   3   4
ATOM      4  N   UNL     1      30.474  27.436  18.994  0.00  0.00    +0.000 NA
ATOM      5  C   UNL     1      29.796  28.324  18.371  0.00  0.00    +0.000 C 
ATOM      6  C   UNL     1      28.329  28.222  18.460  0.00  0.00    +0.000 C 
ATOM      7  C   UNL     1      27.736  28.690  17.147  0.00  0.00    +0.000 C 
ATOM      8  C   UNL     1      28.782  28.785  16.058  0.00  0.00    +0.000 C 
ATOM      9  C   UNL     1      29.277  27.398  15.667  0.00  0.00    +0.000 C 
ATOM     10  C   UNL     1      30.681  27.274  16.263  0.00  0.00    +0.000 C 
ATOM     11  C   UNL     1      31.302  28.642  16.467  0.00  0.00    +0.000 C 
ATOM     12  C   UNL     1      30.698  29.281  17.683  0.00  0.00    +0.000 C 
ENDBRANCH   3   4
BRANCH   2  13
ATOM     13  C   UNL     1      28.817  25.432  21.803  0.00  0.00    +0.000 A 
ATOM     14  C   UNL     1      29.499  24.916  22.881  0.00  0.00    +0.000 A 
ATOM     15  C   UNL     1      28.978  23.859  23.625  0.00  0.00    +0.000 A 
ATOM     16  C   UNL     1      27.744  23.324  23.261  0.00  0.00    +0.000 A 
ATOM     17  C   UNL     1      27.049  23.836  22.178  0.00  0.00    +0.000 A 
ATOM     18  O   UNL     1      25.832  23.276  21.853  0.00  0.00    +0.000 OA
ATOM     19  C   UNL     1      27.617  24.884  21.480  0.00  0.00    +0.000 A 
ENDBRANCH   2  13
TORSDOF 2
ENDMDL
