MODEL 1
REMARK VINA RESULT:      -9.0      0.000      0.000
REMARK  Name = 
REMARK  6 active torsions:
REMARK  status: ('A' for Active; 'I' for Inactive)
REMARK    1  A    between atoms: C_3  and  C_4
REMARK    2  A    between atoms: N_6  and  C_7
REMARK    3  A    between atoms: C_7  and  C_8
REMARK    4  A    between atoms: C_8  and  C_9
REMARK    5  A    between atoms: N_25  and  C_26
REMARK    6  A    between atoms: C_26  and  C_27
REMARK                            x       y       z     vdW  Elec       q    Type
REMARK                         _______ _______ _______ _____ _____    ______ ____
ROOT
ATOM      1  N   UNL     1      34.859   0.347  17.215  0.00  0.00    +0.000 NA
ATOM      2  C   UNL     1      36.113  -0.053  16.650  0.00  0.00    +0.000 A 
ATOM      3  C   UNL     1      36.920   0.811  15.940  0.00  0.00    +0.000 A 
ATOM      4  C   UNL     1      38.027   0.035  15.571  0.00  0.00    +0.000 A 
ATOM      5  N   UNL     1      39.100   0.419  14.863  0.00  0.00    +0.000 NA
ATOM      6  C   UNL     1      40.059  -0.492  14.618  0.00  0.00    +0.000 A 
ATOM      7  C   UNL     1      41.199  -0.138  13.884  0.00  0.00    +0.000 A 
ATOM      8  C   UNL     1      42.180  -1.063  13.630  0.00  0.00    +0.000 A 
ATOM      9  C   UNL     1      42.016  -2.348  14.117  0.00  0.00    +0.000 A 
ATOM     10  C   UNL     1      40.892  -2.693  14.842  0.00  0.00    +0.000 A 
ATOM     11  C   UNL     1      39.895  -1.770  15.103  0.00  0.00    +0.000 A 
ATOM     12  N   UNL     1      38.793  -2.137  15.822  0.00  0.00    +0.000 NA
ATOM     13  C   UNL     1      37.828  -1.226  16.070  0.00  0.00    +0.000 A 
ATOM     14  N   UNL     1      36.647  -1.283  16.737  0.00  0.00    +0.000 N 
ENDROOT
BRANCH   3  15
ATOM     15  C   UNL     1      36.700   2.215  15.627  0.00  0.00    +0.000 C 
ATOM     16  O   UNL     1      35.815   2.510  14.799  0.00  0.00    +0.000 OA
ATOM     17  N   UNL     1      37.495   3.194  16.270  0.00  0.00    +0.000 NA
BRANCH  17  18
ATOM     18  C   UNL     1      37.278   4.582  15.960  0.00  0.00    +0.000 C 
BRANCH  18  19
ATOM     19  C   UNL     1      38.607   5.298  16.154  0.00  0.00    +0.000 C 
BRANCH  19  20
ATOM     20  C   UNL     1      38.602   5.916  17.505  0.00  0.00    +0.000 C 
ATOM     21  C   UNL     1      38.141   7.146  17.715  0.00  0.00    +0.000 C 
ATOM     22  C   UNL     1      38.129   7.772  19.043  0.00  0.00    +0.000 C 
ATOM     23  C   UNL     1      39.246   7.345  19.940  0.00  0.00    +0.000 C 
ATOM     24  C   UNL     1      39.991   6.141  19.465  0.00  0.00    +0.000 C 
ATOM     25  C   UNL     1      39.120   5.175  18.689  0.00  0.00    +0.000 C 
ENDBRANCH  19  20
ENDBRANCH  18  19
ENDBRANCH  17  18
ENDBRANCH   3  15
BRANCH  14  26
ATOM     26  C   UNL     1      36.107  -2.438  17.391  0.00  0.00    +0.000 C 
BRANCH  26  27
ATOM     27  C   UNL     1      35.560  -3.450  16.480  0.00  0.00    +0.000 A 
ATOM     28  C   UNL     1      36.149  -4.654  16.165  0.00  0.00    +0.000 A 
ATOM     29  C   UNL     1      35.526  -5.536  15.280  0.00  0.00    +0.000 A 
ATOM     30  C   UNL     1      34.313  -5.216  14.709  0.00  0.00    +0.000 A 
ATOM     31  C   UNL     1      33.724  -4.028  15.014  0.00  0.00    +0.000 A 
ATOM     32  C   UNL     1      34.348  -3.167  15.887  0.00  0.00    +0.000 A 
ENDBRANCH  26  27
ENDBRANCH  14  26
TORSDOF 6
ENDMDL
MODEL 2
REMARK VINA RESULT:      -8.7      1.739      5.351
REMARK  Name = 
REMARK  6 active torsions:
REMARK  status: ('A' for Active; 'I' for Inactive)
REMARK    1  A    between atoms: C_3  and  C_4
REMARK    2  A    between atoms: N_6  and  C_7
REMARK    3  A    between atoms: C_7  and  C_8
REMARK    4  A    between atoms: C_8  and  C_9
REMARK    5  A    between atoms: N_25  and  C_26
REMARK    6  A    between atoms: C_26  and  C_27
REMARK                            x       y       z     vdW  Elec       q    Type
REMARK                         _______ _______ _______ _____ _____    ______ ____
ROOT
ATOM      1  N   UNL     1      40.030   3.052  13.493  0.00  0.00    +0.000 NA
ATOM      2  C   UNL     1      39.069   2.150  14.054  0.00  0.00    +0.000 A 
ATOM      3  C   UNL     1      38.144   2.541  15.000  0.00  0.00    +0.000 A 
ATOM      4  C   UNL     1      37.411   1.379  15.275  0.00  0.00    +0.000 A 
ATOM      5  N   UNL     1      36.390   1.236  16.135  0.00  0.00    +0.000 NA
ATOM      6  C   UNL     1      35.820   0.023  16.248  0.00  0.00    +0.000 A 
ATOM      7  C   UNL     1      34.750  -0.175  17.130  0.00  0.00    +0.000 A 
ATOM      8  C   UNL     1      34.165  -1.410  17.252  0.00  0.00    +0.000 A 
ATOM      9  C   UNL     1      34.656  -2.450  16.481  0.00  0.00    +0.000 A 
ATOM     10  C   UNL     1      35.709  -2.251  15.611  0.00  0.00    +0.000 A 
ATOM     11  C   UNL     1      36.309  -1.011  15.481  0.00  0.00    +0.000 A 
ATOM     12  N   UNL     1      37.350  -0.840  14.614  0.00  0.00    +0.000 NA
ATOM     13  C   UNL     1      37.925   0.375  14.496  0.00  0.00    +0.000 A 
ATOM     14  N   UNL     1      38.949   0.849  13.742  0.00  0.00    +0.000 N 
ENDROOT
BRANCH   3  15
ATOM     15  C   UNL     1      37.948   3.854  15.596  0.00  0.00    +0.000 C 
ATOM     16  O   UNL     1      37.132   4.633  15.067  0.00  0.00    +0.000 OA
ATOM     17  N   UNL     1      38.689   4.200  16.752  0.00  0.00    +0.000 NA
BRANCH  17  18
ATOM     18  C   UNL     1      38.496   5.498  17.342  0.00  0.00    +0.000 C 
BRANCH  18  19
ATOM     19  C   UNL     1      38.972   5.410  18.785  0.00  0.00    +0.000 C 
BRANCH  19  20
ATOM     20  C   UNL     1      40.274   6.121  18.882  0.00  0.00    +0.000 C 
ATOM     21  C   UNL     1      41.102   6.218  17.846  0.00  0.00    +0.000 C 
ATOM     22  C   UNL     1      42.391   6.917  17.925  0.00  0.00    +0.000 C 
ATOM     23  C   UNL     1      43.047   6.857  19.266  0.00  0.00    +0.000 C 
ATOM     24  C   UNL     1      42.157   6.381  20.367  0.00  0.00    +0.000 C 
ATOM     25  C   UNL     1      40.705   6.758  20.157  0.00  0.00    +0.000 C 
ENDBRANCH  19  20
ENDBRANCH  18  19
ENDBRANCH  17  18
ENDBRANCH   3  15
BRANCH  14  26
ATOM     26  C   UNL     1      39.725   0.088  12.807  0.00  0.00    +0.000 C 
BRANCH  26  27
ATOM     27  C   UNL     1      40.935  -0.517  13.376  0.00  0.00    +0.000 A 
ATOM     28  C   UNL     1      41.001  -1.730  14.024  0.00  0.00    +0.000 A 
ATOM     29  C   UNL     1      42.218  -2.199  14.524  0.00  0.00    +0.000 A 
ATOM     30  C   UNL     1      43.369  -1.458  14.376  0.00  0.00    +0.000 A 
ATOM     31  C   UNL     1      43.313  -0.257  13.737  0.00  0.00    +0.000 A 
ATOM     32  C   UNL     1      42.109   0.195  13.249  0.00  0.00    +0.000 A 
ENDBRANCH  26  27
ENDBRANCH  14  26
TORSDOF 6
ENDMDL
MODEL 3
REMARK VINA RESULT:      -8.7      1.616      5.326
REMARK  Name = 
REMARK  6 active torsions:
REMARK  status: ('A' for Active; 'I' for Inactive)
REMARK    1  A    between atoms: C_3  and  C_4
REMARK    2  A    between atoms: N_6  and  C_7
REMARK    3  A    between atoms: C_7  and  C_8
REMARK    4  A    between atoms: C_8  and  C_9
REMARK    5  A    between atoms: N_25  and  C_26
REMARK    6  A    between atoms: C_26  and  C_27
REMARK                            x       y       z     vdW  Elec       q    Type
REMARK                         _______ _______ _______ _____ _____    ______ ____
ROOT
ATOM      1  N   UNL     1      40.021   3.057  13.481  0.00  0.00    +0.000 NA
ATOM      2  C   UNL     1      39.082   2.127  14.033  0.00  0.00    +0.000 A 
ATOM      3  C   UNL     1      38.122   2.494  14.952  0.00  0.00    +0.000 A 
ATOM      4  C   UNL     1      37.427   1.310  15.227  0.00  0.00    +0.000 A 
ATOM      5  N   UNL     1      36.392   1.139  16.065  0.00  0.00    +0.000 NA
ATOM      6  C   UNL     1      35.865  -0.093  16.183  0.00  0.00    +0.000 A 
ATOM      7  C   UNL     1      34.784  -0.320  17.044  0.00  0.00    +0.000 A 
ATOM      8  C   UNL     1      34.242  -1.574  17.169  0.00  0.00    +0.000 A 
ATOM      9  C   UNL     1      34.790  -2.605  16.424  0.00  0.00    +0.000 A 
ATOM     10  C   UNL     1      35.855  -2.378  15.575  0.00  0.00    +0.000 A 
ATOM     11  C   UNL     1      36.410  -1.118  15.441  0.00  0.00    +0.000 A 
ATOM     12  N   UNL     1      37.464  -0.919  14.595  0.00  0.00    +0.000 NA
ATOM     13  C   UNL     1      37.995   0.316  14.473  0.00  0.00    +0.000 A 
ATOM     14  N   UNL     1      39.018   0.818  13.736  0.00  0.00    +0.000 N 
ENDROOT
BRANCH   3  15
ATOM     15  C   UNL     1      37.863   3.806  15.526  0.00  0.00    +0.000 C 
ATOM     16  O   UNL     1      37.188   4.622  14.868  0.00  0.00    +0.000 OA
ATOM     17  N   UNL     1      38.386   4.111  16.806  0.00  0.00    +0.000 NA
BRANCH  17  18
ATOM     18  C   UNL     1      38.131   5.409  17.373  0.00  0.00    +0.000 C 
BRANCH  18  19
ATOM     19  C   UNL     1      39.076   5.575  18.554  0.00  0.00    +0.000 C 
BRANCH  19  20
ATOM     20  C   UNL     1      38.868   6.933  19.121  0.00  0.00    +0.000 C 
ATOM     21  C   UNL     1      39.427   7.311  20.267  0.00  0.00    +0.000 C 
ATOM     22  C   UNL     1      39.231   8.648  20.840  0.00  0.00    +0.000 C 
ATOM     23  C   UNL     1      37.901   9.261  20.544  0.00  0.00    +0.000 C 
ATOM     24  C   UNL     1      37.127   8.566  19.472  0.00  0.00    +0.000 C 
ATOM     25  C   UNL     1      38.014   7.932  18.420  0.00  0.00    +0.000 C 
ENDBRANCH  19  20
ENDBRANCH  18  19
ENDBRANCH  17  18
ENDBRANCH   3  15
BRANCH  14  26
ATOM     26  C   UNL     1      39.843   0.075  12.830  0.00  0.00    +0.000 C 
BRANCH  26  27
ATOM     27  C   UNL     1      41.123  -0.364  13.397  0.00  0.00    +0.000 A 
ATOM     28  C   UNL     1      42.255   0.408  13.525  0.00  0.00    +0.000 A 
ATOM     29  C   UNL     1      43.417  -0.128  14.084  0.00  0.00    +0.000 A 
ATOM     30  C   UNL     1      43.449  -1.436  14.517  0.00  0.00    +0.000 A 
ATOM     31  C   UNL     1      42.334  -2.207  14.395  0.00  0.00    +0.000 A 
ATOM     32  C   UNL     1      41.195  -1.668  13.842  0.00  0.00    +0.000 A 
ENDBRANCH  26  27
ENDBRANCH  14  26
TORSDOF 6
ENDMDL
MODEL 4
REMARK VINA RESULT:      -8.6      2.361      8.360
REMARK  Name = 
REMARK  6 active torsions:
REMARK  status: ('A' for Active; 'I' for Inactive)
REMARK    1  A    between atoms: C_3  and  C_4
REMARK    2  A    between atoms: N_6  and  C_7
REMARK    3  A    between atoms: C_7  and  C_8
REMARK    4  A    between atoms: C_8  and  C_9
REMARK    5  A    between atoms: N_25  and  C_26
REMARK    6  A    between atoms: C_26  and  C_27
REMARK                            x       y       z     vdW  Elec       q    Type
REMARK                         _______ _______ _______ _____ _____    ______ ____
ROOT
ATOM      1  N   UNL     1      40.828   4.016  13.538  0.00  0.00    +0.000 NA
ATOM      2  C   UNL     1      39.774   3.268  14.156  0.00  0.00    +0.000 A 
ATOM      3  C   UNL     1      39.635   1.905  13.998  0.00  0.00    +0.000 A 
ATOM      4  C   UNL     1      38.501   1.577  14.753  0.00  0.00    +0.000 A 
ATOM      5  N   UNL     1      37.949   0.365  14.922  0.00  0.00    +0.000 NA
ATOM      6  C   UNL     1      36.852   0.269  15.695  0.00  0.00    +0.000 A 
ATOM      7  C   UNL     1      36.240  -0.973  15.902  0.00  0.00    +0.000 A 
ATOM      8  C   UNL     1      35.121  -1.078  16.689  0.00  0.00    +0.000 A 
ATOM      9  C   UNL     1      34.616   0.072  17.271  0.00  0.00    +0.000 A 
ATOM     10  C   UNL     1      35.222   1.295  17.067  0.00  0.00    +0.000 A 
ATOM     11  C   UNL     1      36.350   1.414  16.274  0.00  0.00    +0.000 A 
ATOM     12  N   UNL     1      36.931   2.636  16.087  0.00  0.00    +0.000 NA
ATOM     13  C   UNL     1      38.032   2.737  15.312  0.00  0.00    +0.000 A 
ATOM     14  N   UNL     1      38.816   3.782  14.945  0.00  0.00    +0.000 N 
ENDROOT
BRANCH   3  15
ATOM     15  C   UNL     1      40.461   0.987  13.228  0.00  0.00    +0.000 C 
ATOM     16  O   UNL     1      41.653   0.835  13.560  0.00  0.00    +0.000 OA
ATOM     17  N   UNL     1      39.886   0.301  12.131  0.00  0.00    +0.000 NA
BRANCH  17  18
ATOM     18  C   UNL     1      40.703  -0.606  11.369  0.00  0.00    +0.000 C 
BRANCH  18  19
ATOM     19  C   UNL     1      39.935  -1.915  11.257  0.00  0.00    +0.000 C 
BRANCH  19  20
ATOM     20  C   UNL     1      39.797  -2.483  12.624  0.00  0.00    +0.000 C 
ATOM     21  C   UNL     1      38.608  -2.696  13.181  0.00  0.00    +0.000 C 
ATOM     22  C   UNL     1      38.454  -3.255  14.529  0.00  0.00    +0.000 C 
ATOM     23  C   UNL     1      39.550  -2.897  15.478  0.00  0.00    +0.000 C 
ATOM     24  C   UNL     1      40.759  -2.307  14.829  0.00  0.00    +0.000 C 
ATOM     25  C   UNL     1      40.997  -2.838  13.431  0.00  0.00    +0.000 C 
ENDBRANCH  19  20
ENDBRANCH  18  19
ENDBRANCH  17  18
ENDBRANCH   3  15
BRANCH  14  26
ATOM     26  C   UNL     1      38.631   5.148  15.338  0.00  0.00    +0.000 C 
BRANCH  26  27
ATOM     27  C   UNL     1      39.369   5.536  16.545  0.00  0.00    +0.000 A 
ATOM     28  C   UNL     1      40.645   6.052  16.580  0.00  0.00    +0.000 A 
ATOM     29  C   UNL     1      41.241   6.383  17.798  0.00  0.00    +0.000 A 
ATOM     30  C   UNL     1      40.563   6.201  18.983  0.00  0.00    +0.000 A 
ATOM     31  C   UNL     1      39.301   5.691  18.959  0.00  0.00    +0.000 A 
ATOM     32  C   UNL     1      38.724   5.368  17.752  0.00  0.00    +0.000 A 
ENDBRANCH  26  27
ENDBRANCH  14  26
TORSDOF 6
ENDMDL
MODEL 5
REMARK VINA RESULT:      -8.6      1.976      2.614
REMARK  Name = 
REMARK  6 active torsions:
REMARK  status: ('A' for Active; 'I' for Inactive)
REMARK    1  A    between atoms: C_3  and  C_4
REMARK    2  A    between atoms: N_6  and  C_7
REMARK    3  A    between atoms: C_7  and  C_8
REMARK    4  A    between atoms: C_8  and  C_9
REMARK    5  A    between atoms: N_25  and  C_26
REMARK    6  A    between atoms: C_26  and  C_27
REMARK                            x       y       z     vdW  Elec       q    Type
REMARK                         _______ _______ _______ _____ _____    ______ ____
ROOT
ATOM      1  N   UNL     1      35.431   1.042  17.235  0.00  0.00    +0.000 NA
ATOM      2  C   UNL     1      36.292   0.747  16.129  0.00  0.00    +0.000 A 
ATOM      3  C   UNL     1      37.075   1.703  15.518  0.00  0.00    +0.000 A 
ATOM      4  C   UNL     1      37.750   1.010  14.504  0.00  0.00    +0.000 A 
ATOM      5  N   UNL     1      38.635   1.500  13.622  0.00  0.00    +0.000 NA
ATOM      6  C   UNL     1      39.171   0.655  12.723  0.00  0.00    +0.000 A 
ATOM      7  C   UNL     1      40.100   1.119  11.784  0.00  0.00    +0.000 A 
ATOM      8  C   UNL     1      40.650   0.263  10.863  0.00  0.00    +0.000 A 
ATOM      9  C   UNL     1      40.265  -1.067  10.889  0.00  0.00    +0.000 A 
ATOM     10  C   UNL     1      39.350  -1.522  11.818  0.00  0.00    +0.000 A 
ATOM     11  C   UNL     1      38.788  -0.668  12.750  0.00  0.00    +0.000 A 
ATOM     12  N   UNL     1      37.884  -1.142  13.658  0.00  0.00    +0.000 NA
ATOM     13  C   UNL     1      37.344  -0.298  14.562  0.00  0.00    +0.000 A 
ATOM     14  N   UNL     1      36.444  -0.463  15.564  0.00  0.00    +0.000 N 
ENDROOT
BRANCH   3  15
ATOM     15  C   UNL     1      37.195   3.119  15.830  0.00  0.00    +0.000 C 
ATOM     16  O   UNL     1      36.289   3.891  15.459  0.00  0.00    +0.000 OA
ATOM     17  N   UNL     1      38.333   3.571  16.542  0.00  0.00    +0.000 NA
BRANCH  17  18
ATOM     18  C   UNL     1      38.452   4.972  16.850  0.00  0.00    +0.000 C 
BRANCH  18  19
ATOM     19  C   UNL     1      38.680   5.082  18.351  0.00  0.00    +0.000 C 
BRANCH  19  20
ATOM     20  C   UNL     1      39.911   5.885  18.570  0.00  0.00    +0.000 C 
ATOM     21  C   UNL     1      40.815   6.064  17.611  0.00  0.00    +0.000 C 
ATOM     22  C   UNL     1      42.036   6.854  17.811  0.00  0.00    +0.000 C 
ATOM     23  C   UNL     1      42.578   6.816  19.203  0.00  0.00    +0.000 C 
ATOM     24  C   UNL     1      41.636   6.254  20.216  0.00  0.00    +0.000 C 
ATOM     25  C   UNL     1      40.183   6.526  19.887  0.00  0.00    +0.000 C 
ENDBRANCH  19  20
ENDBRANCH  18  19
ENDBRANCH  17  18
ENDBRANCH   3  15
BRANCH  14  26
ATOM     26  C   UNL     1      35.803  -1.694  15.923  0.00  0.00    +0.000 C 
BRANCH  26  27
ATOM     27  C   UNL     1      36.704  -2.702  16.492  0.00  0.00    +0.000 A 
ATOM     28  C   UNL     1      37.740  -2.457  17.365  0.00  0.00    +0.000 A 
ATOM     29  C   UNL     1      38.530  -3.506  17.839  0.00  0.00    +0.000 A 
ATOM     30  C   UNL     1      38.285  -4.803  17.441  0.00  0.00    +0.000 A 
ATOM     31  C   UNL     1      37.263  -5.055  16.578  0.00  0.00    +0.000 A 
ATOM     32  C   UNL     1      36.492  -4.012  16.118  0.00  0.00    +0.000 A 
ENDBRANCH  26  27
ENDBRANCH  14  26
TORSDOF 6
ENDMDL
MODEL 6
REMARK VINA RESULT:      -8.2      2.402      4.688
REMARK  Name = 
REMARK  6 active torsions:
REMARK  status: ('A' for Active; 'I' for Inactive)
REMARK    1  A    between atoms: C_3  and  C_4
REMARK    2  A    between atoms: N_6  and  C_7
REMARK    3  A    between atoms: C_7  and  C_8
REMARK    4  A    between atoms: C_8  and  C_9
REMARK    5  A    between atoms: N_25  and  C_26
REMARK    6  A    between atoms: C_26  and  C_27
REMARK                            x       y       z     vdW  Elec       q    Type
REMARK                         _______ _______ _______ _____ _____    ______ ____
ROOT
ATOM      1  N   UNL     1      37.824   0.008  12.234  0.00  0.00    +0.000 NA
ATOM      2  C   UNL     1      37.947  -0.637  13.507  0.00  0.00    +0.000 A 
ATOM      3  C   UNL     1      37.669   0.004  14.697  0.00  0.00    +0.000 A 
ATOM      4  C   UNL     1      37.912  -0.963  15.681  0.00  0.00    +0.000 A 
ATOM      5  N   UNL     1      37.786  -0.830  17.011  0.00  0.00    +0.000 NA
ATOM      6  C   UNL     1      38.071  -1.893  17.785  0.00  0.00    +0.000 A 
ATOM      7  C   UNL     1      37.954  -1.804  19.178  0.00  0.00    +0.000 A 
ATOM      8  C   UNL     1      38.244  -2.884  19.974  0.00  0.00    +0.000 A 
ATOM      9  C   UNL     1      38.652  -4.059  19.365  0.00  0.00    +0.000 A 
ATOM     10  C   UNL     1      38.765  -4.144  17.992  0.00  0.00    +0.000 A 
ATOM     11  C   UNL     1      38.477  -3.062  17.179  0.00  0.00    +0.000 A 
ATOM     12  N   UNL     1      38.597  -3.171  15.824  0.00  0.00    +0.000 NA
ATOM     13  C   UNL     1      38.312  -2.107  15.043  0.00  0.00    +0.000 A 
ATOM     14  N   UNL     1      38.334  -1.908  13.700  0.00  0.00    +0.000 N 
ENDROOT
BRANCH   3  15
ATOM     15  C   UNL     1      37.225   1.372  14.913  0.00  0.00    +0.000 C 
ATOM     16  O   UNL     1      36.013   1.635  14.778  0.00  0.00    +0.000 OA
ATOM     17  N   UNL     1      38.178   2.356  15.269  0.00  0.00    +0.000 NA
BRANCH  17  18
ATOM     18  C   UNL     1      37.739   3.710  15.483  0.00  0.00    +0.000 C 
BRANCH  18  19
ATOM     19  C   UNL     1      37.660   3.923  16.988  0.00  0.00    +0.000 C 
BRANCH  19  20
ATOM     20  C   UNL     1      38.760   4.843  17.378  0.00  0.00    +0.000 C 
ATOM     21  C   UNL     1      38.973   5.188  18.645  0.00  0.00    +0.000 C 
ATOM     22  C   UNL     1      40.054   6.096  19.048  0.00  0.00    +0.000 C 
ATOM     23  C   UNL     1      40.398   7.138  18.034  0.00  0.00    +0.000 C 
ATOM     24  C   UNL     1      39.820   6.894  16.678  0.00  0.00    +0.000 C 
ATOM     25  C   UNL     1      39.674   5.421  16.355  0.00  0.00    +0.000 C 
ENDBRANCH  19  20
ENDBRANCH  18  19
ENDBRANCH  17  18
ENDBRANCH   3  15
BRANCH  14  26
ATOM     26  C   UNL     1      38.702  -2.881  12.714  0.00  0.00    +0.000 C 
BRANCH  26  27
ATOM     27  C   UNL     1      40.092  -2.781  12.253  0.00  0.00    +0.000 A 
ATOM     28  C   UNL     1      41.211  -3.078  12.997  0.00  0.00    +0.000 A 
ATOM     29  C   UNL     1      42.486  -2.942  12.444  0.00  0.00    +0.000 A 
ATOM     30  C   UNL     1      42.643  -2.508  11.146  0.00  0.00    +0.000 A 
ATOM     31  C   UNL     1      41.543  -2.211  10.402  0.00  0.00    +0.000 A 
ATOM     32  C   UNL     1      40.292  -2.349  10.959  0.00  0.00    +0.000 A 
ENDBRANCH  26  27
ENDBRANCH  14  26
TORSDOF 6
ENDMDL
MODEL 7
REMARK VINA RESULT:      -8.1      3.084      8.927
REMARK  Name = 
REMARK  6 active torsions:
REMARK  status: ('A' for Active; 'I' for Inactive)
REMARK    1  A    between atoms: C_3  and  C_4
REMARK    2  A    between atoms: N_6  and  C_7
REMARK    3  A    between atoms: C_7  and  C_8
REMARK    4  A    between atoms: C_8  and  C_9
REMARK    5  A    between atoms: N_25  and  C_26
REMARK    6  A    between atoms: C_26  and  C_27
REMARK                            x       y       z     vdW  Elec       q    Type
REMARK                         _______ _______ _______ _____ _____    ______ ____
ROOT
ATOM      1  N   UNL     1      38.231   3.878  18.282  0.00  0.00    +0.000 NA
ATOM      2  C   UNL     1      37.983   4.596  17.068  0.00  0.00    +0.000 A 
ATOM      3  C   UNL     1      37.568   3.976  15.907  0.00  0.00    +0.000 A 
ATOM      4  C   UNL     1      37.445   5.017  14.978  0.00  0.00    +0.000 A 
ATOM      5  N   UNL     1      37.067   4.931  13.693  0.00  0.00    +0.000 NA
ATOM      6  C   UNL     1      37.014   6.064  12.969  0.00  0.00    +0.000 A 
ATOM      7  C   UNL     1      36.624   6.025  11.624  0.00  0.00    +0.000 A 
ATOM      8  C   UNL     1      36.569   7.176  10.879  0.00  0.00    +0.000 A 
ATOM      9  C   UNL     1      36.905   8.372  11.490  0.00  0.00    +0.000 A 
ATOM     10  C   UNL     1      37.287   8.407  12.817  0.00  0.00    +0.000 A 
ATOM     11  C   UNL     1      37.348   7.253  13.577  0.00  0.00    +0.000 A 
ATOM     12  N   UNL     1      37.730   7.315  14.887  0.00  0.00    +0.000 NA
ATOM     13  C   UNL     1      37.784   6.181  15.618  0.00  0.00    +0.000 A 
ATOM     14  N   UNL     1      38.117   5.923  16.908  0.00  0.00    +0.000 N 
ENDROOT
BRANCH   3  15
ATOM     15  C   UNL     1      37.308   2.564  15.670  0.00  0.00    +0.000 C 
ATOM     16  O   UNL     1      38.272   1.816  15.412  0.00  0.00    +0.000 OA
ATOM     17  N   UNL     1      35.976   2.090  15.739  0.00  0.00    +0.000 NA
BRANCH  17  18
ATOM     18  C   UNL     1      35.719   0.694  15.503  0.00  0.00    +0.000 C 
BRANCH  18  19
ATOM     19  C   UNL     1      35.263   0.093  16.825  0.00  0.00    +0.000 C 
BRANCH  19  20
ATOM     20  C   UNL     1      36.432  -0.576  17.453  0.00  0.00    +0.000 C 
ATOM     21  C   UNL     1      37.264  -1.342  16.753  0.00  0.00    +0.000 C 
ATOM     22  C   UNL     1      38.423  -2.010  17.358  0.00  0.00    +0.000 C 
ATOM     23  C   UNL     1      38.234  -2.407  18.786  0.00  0.00    +0.000 C 
ATOM     24  C   UNL     1      37.045  -1.790  19.445  0.00  0.00    +0.000 C 
ATOM     25  C   UNL     1      36.719  -0.413  18.905  0.00  0.00    +0.000 C 
ENDBRANCH  19  20
ENDBRANCH  18  19
ENDBRANCH  17  18
ENDBRANCH   3  15
BRANCH  14  26
ATOM     26  C   UNL     1      38.526   6.894  17.880  0.00  0.00    +0.000 C 
BRANCH  26  27
ATOM     27  C   UNL     1      39.912   6.748  18.338  0.00  0.00    +0.000 A 
ATOM     28  C   UNL     1      41.030   6.747  17.534  0.00  0.00    +0.000 A 
ATOM     29  C   UNL     1      42.302   6.599  18.092  0.00  0.00    +0.000 A 
ATOM     30  C   UNL     1      42.457   6.451  19.453  0.00  0.00    +0.000 A 
ATOM     31  C   UNL     1      41.358   6.450  20.255  0.00  0.00    +0.000 A 
ATOM     32  C   UNL     1      40.110   6.597  19.693  0.00  0.00    +0.000 A 
ENDBRANCH  26  27
ENDBRANCH  14  26
TORSDOF 6
ENDMDL
MODEL 8
REMARK VINA RESULT:      -8.0      2.244      5.801
REMARK  Name = 
REMARK  6 active torsions:
REMARK  status: ('A' for Active; 'I' for Inactive)
REMARK    1  A    between atoms: C_3  and  C_4
REMARK    2  A    between atoms: N_6  and  C_7
REMARK    3  A    between atoms: C_7  and  C_8
REMARK    4  A    between atoms: C_8  and  C_9
REMARK    5  A    between atoms: N_25  and  C_26
REMARK    6  A    between atoms: C_26  and  C_27
REMARK                            x       y       z     vdW  Elec       q    Type
REMARK                         _______ _______ _______ _____ _____    ______ ____
ROOT
ATOM      1  N   UNL     1      41.570   1.643  12.664  0.00  0.00    +0.000 NA
ATOM      2  C   UNL     1      40.919   0.703  13.527  0.00  0.00    +0.000 A 
ATOM      3  C   UNL     1      39.764   1.002  14.219  0.00  0.00    +0.000 A 
ATOM      4  C   UNL     1      39.466  -0.168  14.929  0.00  0.00    +0.000 A 
ATOM      5  N   UNL     1      38.432  -0.387  15.756  0.00  0.00    +0.000 NA
ATOM      6  C   UNL     1      38.330  -1.594  16.341  0.00  0.00    +0.000 A 
ATOM      7  C   UNL     1      37.268  -1.870  17.211  0.00  0.00    +0.000 A 
ATOM      8  C   UNL     1      37.159  -3.098  17.812  0.00  0.00    +0.000 A 
ATOM      9  C   UNL     1      38.122  -4.055  17.536  0.00  0.00    +0.000 A 
ATOM     10  C   UNL     1      39.167  -3.780  16.676  0.00  0.00    +0.000 A 
ATOM     11  C   UNL     1      39.288  -2.544  16.066  0.00  0.00    +0.000 A 
ATOM     12  N   UNL     1      40.332  -2.297  15.220  0.00  0.00    +0.000 NA
ATOM     13  C   UNL     1      40.438  -1.088  14.630  0.00  0.00    +0.000 A 
ATOM     14  N   UNL     1      41.336  -0.552  13.765  0.00  0.00    +0.000 N 
ENDROOT
BRANCH   3  15
ATOM     15  C   UNL     1      39.004   2.243  14.230  0.00  0.00    +0.000 C 
ATOM     16  O   UNL     1      38.226   2.475  13.284  0.00  0.00    +0.000 OA
ATOM     17  N   UNL     1      39.171   3.141  15.312  0.00  0.00    +0.000 NA
BRANCH  17  18
ATOM     18  C   UNL     1      38.420   4.368  15.323  0.00  0.00    +0.000 C 
BRANCH  18  19
ATOM     19  C   UNL     1      39.421   5.508  15.204  0.00  0.00    +0.000 C 
BRANCH  19  20
ATOM     20  C   UNL     1      39.750   5.975  16.577  0.00  0.00    +0.000 C 
ATOM     21  C   UNL     1      41.005   6.146  16.980  0.00  0.00    +0.000 C 
ATOM     22  C   UNL     1      41.347   6.606  18.332  0.00  0.00    +0.000 C 
ATOM     23  C   UNL     1      40.385   6.180  19.393  0.00  0.00    +0.000 C 
ATOM     24  C   UNL     1      39.094   5.639  18.873  0.00  0.00    +0.000 C 
ATOM     25  C   UNL     1      38.673   6.271  17.563  0.00  0.00    +0.000 C 
ENDBRANCH  19  20
ENDBRANCH  18  19
ENDBRANCH  17  18
ENDBRANCH   3  15
BRANCH  14  26
ATOM     26  C   UNL     1      42.487  -1.218  13.231  0.00  0.00    +0.000 C 
BRANCH  26  27
ATOM     27  C   UNL     1      43.658  -1.206  14.114  0.00  0.00    +0.000 A 
ATOM     28  C   UNL     1      43.983  -0.211  15.009  0.00  0.00    +0.000 A 
ATOM     29  C   UNL     1      45.130  -0.315  15.797  0.00  0.00    +0.000 A 
ATOM     30  C   UNL     1      45.955  -1.414  15.693  0.00  0.00    +0.000 A 
ATOM     31  C   UNL     1      45.643  -2.402  14.811  0.00  0.00    +0.000 A 
ATOM     32  C   UNL     1      44.509  -2.288  14.039  0.00  0.00    +0.000 A 
ENDBRANCH  26  27
ENDBRANCH  14  26
TORSDOF 6
ENDMDL
MODEL 9
REMARK VINA RESULT:      -7.9      1.654      8.619
REMARK  Name = 
REMARK  6 active torsions:
REMARK  status: ('A' for Active; 'I' for Inactive)
REMARK    1  A    between atoms: C_3  and  C_4
REMARK    2  A    between atoms: N_6  and  C_7
REMARK    3  A    between atoms: C_7  and  C_8
REMARK    4  A    between atoms: C_8  and  C_9
REMARK    5  A    between atoms: N_25  and  C_26
REMARK    6  A    between atoms: C_26  and  C_27
REMARK                            x       y       z     vdW  Elec       q    Type
REMARK                         _______ _______ _______ _____ _____    ______ ____
ROOT
ATOM      1  N   UNL     1      35.261   1.437  15.968  0.00  0.00    +0.000 NA
ATOM      2  C   UNL     1      36.566   0.980  15.594  0.00  0.00    +0.000 A 
ATOM      3  C   UNL     1      36.963  -0.334  15.728  0.00  0.00    +0.000 A 
ATOM      4  C   UNL     1      38.282  -0.353  15.256  0.00  0.00    +0.000 A 
ATOM      5  N   UNL     1      39.112  -1.405  15.179  0.00  0.00    +0.000 NA
ATOM      6  C   UNL     1      40.349  -1.204  14.689  0.00  0.00    +0.000 A 
ATOM      7  C   UNL     1      41.250  -2.271  14.588  0.00  0.00    +0.000 A 
ATOM      8  C   UNL     1      42.514  -2.073  14.091  0.00  0.00    +0.000 A 
ATOM      9  C   UNL     1      42.872  -0.796  13.692  0.00  0.00    +0.000 A 
ATOM     10  C   UNL     1      41.980   0.254  13.792  0.00  0.00    +0.000 A 
ATOM     11  C   UNL     1      40.704   0.066  14.293  0.00  0.00    +0.000 A 
ATOM     12  N   UNL     1      39.841   1.121  14.382  0.00  0.00    +0.000 NA
ATOM     13  C   UNL     1      38.599   0.924  14.872  0.00  0.00    +0.000 A 
ATOM     14  N   UNL     1      37.541   1.749  15.080  0.00  0.00    +0.000 N 
ENDROOT
BRANCH   3  15
ATOM     15  C   UNL     1      36.207  -1.467  16.240  0.00  0.00    +0.000 C 
ATOM     16  O   UNL     1      36.135  -1.628  17.474  0.00  0.00    +0.000 OA
ATOM     17  N   UNL     1      35.581  -2.345  15.322  0.00  0.00    +0.000 NA
BRANCH  17  18
ATOM     18  C   UNL     1      34.834  -3.466  15.828  0.00  0.00    +0.000 C 
BRANCH  18  19
ATOM     19  C   UNL     1      35.723  -4.695  15.695  0.00  0.00    +0.000 C 
BRANCH  19  20
ATOM     20  C   UNL     1      34.846  -5.873  15.470  0.00  0.00    +0.000 C 
ATOM     21  C   UNL     1      34.899  -6.949  16.250  0.00  0.00    +0.000 C 
ATOM     22  C   UNL     1      34.041  -8.122  16.042  0.00  0.00    +0.000 C 
ATOM     23  C   UNL     1      33.683  -8.382  14.615  0.00  0.00    +0.000 C 
ATOM     24  C   UNL     1      33.986  -7.251  13.687  0.00  0.00    +0.000 C 
ATOM     25  C   UNL     1      33.865  -5.895  14.350  0.00  0.00    +0.000 C 
ENDBRANCH  19  20
ENDBRANCH  18  19
ENDBRANCH  17  18
ENDBRANCH   3  15
BRANCH  14  26
ATOM     26  C   UNL     1      37.504   3.153  14.797  0.00  0.00    +0.000 C 
BRANCH  26  27
ATOM     27  C   UNL     1      38.192   3.990  15.787  0.00  0.00    +0.000 A 
ATOM     28  C   UNL     1      37.869   4.090  17.121  0.00  0.00    +0.000 A 
ATOM     29  C   UNL     1      38.602   4.925  17.966  0.00  0.00    +0.000 A 
ATOM     30  C   UNL     1      39.661   5.660  17.479  0.00  0.00    +0.000 A 
ATOM     31  C   UNL     1      39.987   5.568  16.161  0.00  0.00    +0.000 A 
ATOM     32  C   UNL     1      39.256   4.742  15.338  0.00  0.00    +0.000 A 
ENDBRANCH  26  27
ENDBRANCH  14  26
TORSDOF 6
ENDMDL
MODEL 10
REMARK VINA RESULT:      -7.9      3.311      6.557
REMARK  Name = 
REMARK  6 active torsions:
REMARK  status: ('A' for Active; 'I' for Inactive)
REMARK    1  A    between atoms: C_3  and  C_4
REMARK    2  A    between atoms: N_6  and  C_7
REMARK    3  A    between atoms: C_7  and  C_8
REMARK    4  A    between atoms: C_8  and  C_9
REMARK    5  A    between atoms: N_25  and  C_26
REMARK    6  A    between atoms: C_26  and  C_27
REMARK                            x       y       z     vdW  Elec       q    Type
REMARK                         _______ _______ _______ _____ _____    ______ ____
ROOT
ATOM      1  N   UNL     1      36.505   4.036  13.764  0.00  0.00    +0.000 NA
ATOM      2  C   UNL     1      37.439   2.951  13.747  0.00  0.00    +0.000 A 
ATOM      3  C   UNL     1      37.490   1.995  14.739  0.00  0.00    +0.000 A 
ATOM      4  C   UNL     1      38.523   1.134  14.346  0.00  0.00    +0.000 A 
ATOM      5  N   UNL     1      38.966   0.038  14.981  0.00  0.00    +0.000 NA
ATOM      6  C   UNL     1      39.978  -0.654  14.426  0.00  0.00    +0.000 A 
ATOM      7  C   UNL     1      40.474  -1.804  15.051  0.00  0.00    +0.000 A 
ATOM      8  C   UNL     1      41.506  -2.514  14.490  0.00  0.00    +0.000 A 
ATOM      9  C   UNL     1      42.041  -2.065  13.294  0.00  0.00    +0.000 A 
ATOM     10  C   UNL     1      41.548  -0.931  12.680  0.00  0.00    +0.000 A 
ATOM     11  C   UNL     1      40.509  -0.206  13.236  0.00  0.00    +0.000 A 
ATOM     12  N   UNL     1      40.040   0.912  12.608  0.00  0.00    +0.000 NA
ATOM     13  C   UNL     1      39.025   1.609  13.162  0.00  0.00    +0.000 A 
ATOM     14  N   UNL     1      38.357   2.731  12.790  0.00  0.00    +0.000 N 
ENDROOT
BRANCH   3  15
ATOM     15  C   UNL     1      36.672   1.879  15.937  0.00  0.00    +0.000 C 
ATOM     16  O   UNL     1      36.899   2.648  16.891  0.00  0.00    +0.000 OA
ATOM     17  N   UNL     1      35.649   0.901  15.978  0.00  0.00    +0.000 NA
BRANCH  17  18
ATOM     18  C   UNL     1      34.840   0.785  17.162  0.00  0.00    +0.000 C 
BRANCH  18  19
ATOM     19  C   UNL     1      34.453  -0.680  17.299  0.00  0.00    +0.000 C 
BRANCH  19  20
ATOM     20  C   UNL     1      35.614  -1.409  17.875  0.00  0.00    +0.000 C 
ATOM     21  C   UNL     1      36.239  -0.985  18.970  0.00  0.00    +0.000 C 
ATOM     22  C   UNL     1      37.386  -1.692  19.550  0.00  0.00    +0.000 C 
ATOM     23  C   UNL     1      38.248  -2.399  18.555  0.00  0.00    +0.000 C 
ATOM     24  C   UNL     1      37.637  -2.535  17.199  0.00  0.00    +0.000 C 
ATOM     25  C   UNL     1      36.128  -2.654  17.240  0.00  0.00    +0.000 C 
ENDBRANCH  19  20
ENDBRANCH  18  19
ENDBRANCH  17  18
ENDBRANCH   3  15
BRANCH  14  26
ATOM     26  C   UNL     1      38.606   3.503  11.608  0.00  0.00    +0.000 C 
BRANCH  26  27
ATOM     27  C   UNL     1      37.738   3.170  10.474  0.00  0.00    +0.000 A 
ATOM     28  C   UNL     1      37.585   1.922   9.915  0.00  0.00    +0.000 A 
ATOM     29  C   UNL     1      36.725   1.732   8.831  0.00  0.00    +0.000 A 
ATOM     30  C   UNL     1      36.015   2.790   8.306  0.00  0.00    +0.000 A 
ATOM     31  C   UNL     1      36.160   4.028   8.852  0.00  0.00    +0.000 A 
ATOM     32  C   UNL     1      37.012   4.202   9.919  0.00  0.00    +0.000 A 
ENDBRANCH  26  27
ENDBRANCH  14  26
TORSDOF 6
ENDMDL
