MODEL 1
REMARK VINA RESULT:      -6.0      0.000      0.000
REMARK  Name = 
REMARK  4 active torsions:
REMARK  status: ('A' for Active; 'I' for Inactive)
REMARK    1  A    between atoms: C_5  and  N_6
REMARK    2  A    between atoms: C_7  and  C_9
REMARK    3  A    between atoms: C_9  and  N_10
REMARK    4  A    between atoms: C_18  and  N_19
REMARK                            x       y       z     vdW  Elec       q    Type
REMARK                         _______ _______ _______ _____ _____    ______ ____
ROOT
ATOM      1  N   UNL     1      27.122  23.284  25.694  0.00  0.00    +0.000 NA
ATOM      2  C   UNL     1      26.955  24.594  25.168  0.00  0.00    +0.000 C 
ATOM      3  O   UNL     1      27.324  25.549  25.901  0.00  0.00    +0.000 OA
ENDROOT
BRANCH   1   8
ATOM      4  C   UNL     1      29.203  22.462  30.938  0.00  0.00    +0.000 C 
ATOM      5  C   UNL     1      28.683  22.678  29.544  0.00  0.00    +0.000 A 
ATOM      6  C   UNL     1      29.533  22.728  28.458  0.00  0.00    +0.000 A 
ATOM      7  C   UNL     1      29.037  22.926  27.193  0.00  0.00    +0.000 A 
ATOM      8  C   UNL     1      27.681  23.077  26.986  0.00  0.00    +0.000 A 
ATOM      9  C   UNL     1      26.853  23.023  28.083  0.00  0.00    +0.000 A 
ATOM     10  C   UNL     1      27.326  22.826  29.363  0.00  0.00    +0.000 A 
BRANCH  10  11
ATOM     11  N   UNL     1      26.405  22.780  30.467  0.00  0.00    +0.000 N 
ATOM     12  O   UNL     1      26.055  23.813  31.050  0.00  0.00    +0.000 OA
ATOM     13  O   UNL     1      25.918  21.560  30.860  0.00  0.00    +0.000 OA
ENDBRANCH  10  11
ENDBRANCH   1   8
BRANCH   2  14
ATOM     14  C   UNL     1      26.364  24.816  23.801  0.00  0.00    +0.000 C 
BRANCH  14  15
ATOM     15  N   UNL     1      27.406  25.111  22.862  0.00  0.00    +0.000 N 
ATOM     16  C   UNL     1      28.141  24.092  22.388  0.00  0.00    +0.000 A 
ATOM     17  C   UNL     1      29.146  24.363  21.484  0.00  0.00    +0.000 A 
ATOM     18  C   UNL     1      29.429  25.637  21.046  0.00  0.00    +0.000 A 
ATOM     19  C   UNL     1      28.627  26.652  21.578  0.00  0.00    +0.000 A 
ATOM     20  C   UNL     1      27.632  26.367  22.475  0.00  0.00    +0.000 A 
ATOM     21  C   UNL     1      26.805  27.449  23.018  0.00  0.00    +0.000 C 
ENDBRANCH  14  15
ENDBRANCH   2  14
TORSDOF 4
ENDMDL
MODEL 2
REMARK VINA RESULT:      -5.9      2.750      7.521
REMARK  Name = 
REMARK  4 active torsions:
REMARK  status: ('A' for Active; 'I' for Inactive)
REMARK    1  A    between atoms: C_5  and  N_6
REMARK    2  A    between atoms: C_7  and  C_9
REMARK    3  A    between atoms: C_9  and  N_10
REMARK    4  A    between atoms: C_18  and  N_19
REMARK                            x       y       z     vdW  Elec       q    Type
REMARK                         _______ _______ _______ _____ _____    ______ ____
ROOT
ATOM      1  N   UNL     1      29.240  22.201  27.523  0.00  0.00    +0.000 NA
ATOM      2  C   UNL     1      29.607  23.134  28.532  0.00  0.00    +0.000 C 
ATOM      3  O   UNL     1      29.839  24.312  28.155  0.00  0.00    +0.000 OA
ENDROOT
BRANCH   1   8
ATOM      4  C   UNL     1      28.689  23.805  22.080  0.00  0.00    +0.000 C 
ATOM      5  C   UNL     1      28.865  23.377  23.510  0.00  0.00    +0.000 A 
ATOM      6  C   UNL     1      30.097  23.001  24.003  0.00  0.00    +0.000 A 
ATOM      7  C   UNL     1      30.235  22.614  25.314  0.00  0.00    +0.000 A 
ATOM      8  C   UNL     1      29.145  22.595  26.159  0.00  0.00    +0.000 A 
ATOM      9  C   UNL     1      27.926  22.974  25.645  0.00  0.00    +0.000 A 
ATOM     10  C   UNL     1      27.761  23.366  24.334  0.00  0.00    +0.000 A 
BRANCH  10  11
ATOM     11  N   UNL     1      26.458  23.750  23.861  0.00  0.00    +0.000 N 
ATOM     12  O   UNL     1      25.981  24.858  24.134  0.00  0.00    +0.000 OA
ATOM     13  O   UNL     1      25.754  22.858  23.094  0.00  0.00    +0.000 OA
ENDBRANCH  10  11
ENDBRANCH   1   8
BRANCH   2  14
ATOM     14  C   UNL     1      29.708  22.720  29.976  0.00  0.00    +0.000 C 
BRANCH  14  15
ATOM     15  N   UNL     1      31.021  22.213  30.247  0.00  0.00    +0.000 N 
ATOM     16  C   UNL     1      31.938  22.272  29.268  0.00  0.00    +0.000 A 
ATOM     17  C   UNL     1      33.205  21.788  29.516  0.00  0.00    +0.000 A 
ATOM     18  C   UNL     1      33.570  21.244  30.728  0.00  0.00    +0.000 A 
ATOM     19  C   UNL     1      32.567  21.213  31.703  0.00  0.00    +0.000 A 
ATOM     20  C   UNL     1      31.314  21.698  31.441  0.00  0.00    +0.000 A 
ATOM     21  C   UNL     1      30.281  21.654  32.481  0.00  0.00    +0.000 C 
ENDBRANCH  14  15
ENDBRANCH   2  14
TORSDOF 4
ENDMDL
MODEL 3
REMARK VINA RESULT:      -5.7     18.004     19.221
REMARK  Name = 
REMARK  4 active torsions:
REMARK  status: ('A' for Active; 'I' for Inactive)
REMARK    1  A    between atoms: C_5  and  N_6
REMARK    2  A    between atoms: C_7  and  C_9
REMARK    3  A    between atoms: C_9  and  N_10
REMARK    4  A    between atoms: C_18  and  N_19
REMARK                            x       y       z     vdW  Elec       q    Type
REMARK                         _______ _______ _______ _____ _____    ______ ____
ROOT
ATOM      1  N   UNL     1      19.860  11.697  37.750  0.00  0.00    +0.000 NA
ATOM      2  C   UNL     1      19.103  10.637  38.319  0.00  0.00    +0.000 C 
ATOM      3  O   UNL     1      19.732   9.814  39.035  0.00  0.00    +0.000 OA
ENDROOT
BRANCH   1   8
ATOM      4  C   UNL     1      25.488  12.016  38.599  0.00  0.00    +0.000 C 
ATOM      5  C   UNL     1      24.000  11.957  38.394  0.00  0.00    +0.000 A 
ATOM      6  C   UNL     1      23.154  12.869  38.990  0.00  0.00    +0.000 A 
ATOM      7  C   UNL     1      21.797  12.797  38.788  0.00  0.00    +0.000 A 
ATOM      8  C   UNL     1      21.258  11.811  37.987  0.00  0.00    +0.000 A 
ATOM      9  C   UNL     1      22.121  10.913  37.404  0.00  0.00    +0.000 A 
ATOM     10  C   UNL     1      23.486  10.963  37.590  0.00  0.00    +0.000 A 
BRANCH  10  11
ATOM     11  N   UNL     1      24.332   9.992  36.951  0.00  0.00    +0.000 N 
ATOM     12  O   UNL     1      24.557   8.896  37.478  0.00  0.00    +0.000 OA
ATOM     13  O   UNL     1      24.885  10.308  35.736  0.00  0.00    +0.000 OA
ENDBRANCH  10  11
ENDBRANCH   1   8
BRANCH   2  14
ATOM     14  C   UNL     1      17.624  10.514  38.070  0.00  0.00    +0.000 C 
BRANCH  14  15
ATOM     15  N   UNL     1      17.369  10.468  36.660  0.00  0.00    +0.000 N 
ATOM     16  C   UNL     1      17.816   9.408  35.968  0.00  0.00    +0.000 A 
ATOM     17  C   UNL     1      17.576   9.352  34.611  0.00  0.00    +0.000 A 
ATOM     18  C   UNL     1      16.897  10.340  33.934  0.00  0.00    +0.000 A 
ATOM     19  C   UNL     1      16.458  11.415  34.714  0.00  0.00    +0.000 A 
ATOM     20  C   UNL     1      16.703  11.456  36.060  0.00  0.00    +0.000 A 
ATOM     21  C   UNL     1      16.233  12.595  36.855  0.00  0.00    +0.000 C 
ENDBRANCH  14  15
ENDBRANCH   2  14
TORSDOF 4
ENDMDL
MODEL 4
REMARK VINA RESULT:      -5.7     31.607     33.160
REMARK  Name = 
REMARK  4 active torsions:
REMARK  status: ('A' for Active; 'I' for Inactive)
REMARK    1  A    between atoms: C_5  and  N_6
REMARK    2  A    between atoms: C_7  and  C_9
REMARK    3  A    between atoms: C_9  and  N_10
REMARK    4  A    between atoms: C_18  and  N_19
REMARK                            x       y       z     vdW  Elec       q    Type
REMARK                         _______ _______ _______ _____ _____    ______ ____
ROOT
ATOM      1  N   UNL     1      22.290  -8.234  25.331  0.00  0.00    +0.000 NA
ATOM      2  C   UNL     1      21.101  -8.635  24.665  0.00  0.00    +0.000 C 
ATOM      3  O   UNL     1      21.182  -8.814  23.421  0.00  0.00    +0.000 OA
ENDROOT
BRANCH   1   8
ATOM      4  C   UNL     1      27.186  -7.655  22.468  0.00  0.00    +0.000 C 
ATOM      5  C   UNL     1      25.891  -7.776  23.222  0.00  0.00    +0.000 A 
ATOM      6  C   UNL     1      25.134  -6.667  23.538  0.00  0.00    +0.000 A 
ATOM      7  C   UNL     1      23.954  -6.801  24.227  0.00  0.00    +0.000 A 
ATOM      8  C   UNL     1      23.505  -8.047  24.616  0.00  0.00    +0.000 A 
ATOM      9  C   UNL     1      24.277  -9.138  24.290  0.00  0.00    +0.000 A 
ATOM     10  C   UNL     1      25.465  -9.031  23.599  0.00  0.00    +0.000 A 
BRANCH  10  11
ATOM     11  N   UNL     1      26.224 -10.213  23.292  0.00  0.00    +0.000 N 
ATOM     12  O   UNL     1      26.020 -10.849  22.251  0.00  0.00    +0.000 OA
ATOM     13  O   UNL     1      27.184 -10.622  24.181  0.00  0.00    +0.000 OA
ENDBRANCH  10  11
ENDBRANCH   1   8
BRANCH   2  14
ATOM     14  C   UNL     1      19.813  -8.835  25.419  0.00  0.00    +0.000 C 
BRANCH  14  15
ATOM     15  N   UNL     1      19.359  -7.582  25.948  0.00  0.00    +0.000 N 
ATOM     16  C   UNL     1      20.014  -6.467  25.589  0.00  0.00    +0.000 A 
ATOM     17  C   UNL     1      19.587  -5.255  26.090  0.00  0.00    +0.000 A 
ATOM     18  C   UNL     1      18.514  -5.141  26.946  0.00  0.00    +0.000 A 
ATOM     19  C   UNL     1      17.877  -6.341  27.280  0.00  0.00    +0.000 A 
ATOM     20  C   UNL     1      18.313  -7.536  26.773  0.00  0.00    +0.000 A 
ATOM     21  C   UNL     1      17.627  -8.779  27.139  0.00  0.00    +0.000 C 
ENDBRANCH  14  15
ENDBRANCH   2  14
TORSDOF 4
ENDMDL
MODEL 5
REMARK VINA RESULT:      -5.6      2.847      7.628
REMARK  Name = 
REMARK  4 active torsions:
REMARK  status: ('A' for Active; 'I' for Inactive)
REMARK    1  A    between atoms: C_5  and  N_6
REMARK    2  A    between atoms: C_7  and  C_9
REMARK    3  A    between atoms: C_9  and  N_10
REMARK    4  A    between atoms: C_18  and  N_19
REMARK                            x       y       z     vdW  Elec       q    Type
REMARK                         _______ _______ _______ _____ _____    ______ ____
ROOT
ATOM      1  N   UNL     1      30.801  21.882  27.106  0.00  0.00    +0.000 NA
ATOM      2  C   UNL     1      31.597  22.751  27.901  0.00  0.00    +0.000 C 
ATOM      3  O   UNL     1      31.564  23.975  27.608  0.00  0.00    +0.000 OA
ENDROOT
BRANCH   1   8
ATOM      4  C   UNL     1      27.500  23.902  22.920  0.00  0.00    +0.000 C 
ATOM      5  C   UNL     1      28.395  23.368  24.004  0.00  0.00    +0.000 A 
ATOM      6  C   UNL     1      29.722  23.078  23.765  0.00  0.00    +0.000 A 
ATOM      7  C   UNL     1      30.522  22.591  24.770  0.00  0.00    +0.000 A 
ATOM      8  C   UNL     1      30.012  22.384  26.035  0.00  0.00    +0.000 A 
ATOM      9  C   UNL     1      28.685  22.681  26.250  0.00  0.00    +0.000 A 
ATOM     10  C   UNL     1      27.862  23.170  25.258  0.00  0.00    +0.000 A 
BRANCH  10  11
ATOM     11  N   UNL     1      26.484  23.460  25.551  0.00  0.00    +0.000 N 
ATOM     12  O   UNL     1      25.581  22.697  25.187  0.00  0.00    +0.000 OA
ATOM     13  O   UNL     1      26.191  24.604  26.248  0.00  0.00    +0.000 OA
ENDBRANCH  10  11
ENDBRANCH   1   8
BRANCH   2  14
ATOM     14  C   UNL     1      32.433  22.223  29.036  0.00  0.00    +0.000 C 
BRANCH  14  15
ATOM     15  N   UNL     1      31.625  22.078  30.211  0.00  0.00    +0.000 N 
ATOM     16  C   UNL     1      30.378  22.576  30.189  0.00  0.00    +0.000 A 
ATOM     17  C   UNL     1      29.589  22.442  31.312  0.00  0.00    +0.000 A 
ATOM     18  C   UNL     1      30.028  21.817  32.458  0.00  0.00    +0.000 A 
ATOM     19  C   UNL     1      31.335  21.320  32.414  0.00  0.00    +0.000 A 
ATOM     20  C   UNL     1      32.105  21.461  31.291  0.00  0.00    +0.000 A 
ATOM     21  C   UNL     1      33.472  20.931  31.271  0.00  0.00    +0.000 C 
ENDBRANCH  14  15
ENDBRANCH   2  14
TORSDOF 4
ENDMDL
MODEL 6
REMARK VINA RESULT:      -5.6     19.731     22.778
REMARK  Name = 
REMARK  4 active torsions:
REMARK  status: ('A' for Active; 'I' for Inactive)
REMARK    1  A    between atoms: C_5  and  N_6
REMARK    2  A    between atoms: C_7  and  C_9
REMARK    3  A    between atoms: C_9  and  N_10
REMARK    4  A    between atoms: C_18  and  N_19
REMARK                            x       y       z     vdW  Elec       q    Type
REMARK                         _______ _______ _______ _____ _____    ______ ____
ROOT
ATOM      1  N   UNL     1      17.641   9.050  39.144  0.00  0.00    +0.000 NA
ATOM      2  C   UNL     1      18.844   9.754  38.864  0.00  0.00    +0.000 C 
ATOM      3  O   UNL     1      19.573  10.042  39.849  0.00  0.00    +0.000 OA
ENDROOT
BRANCH   1   8
ATOM      4  C   UNL     1      16.320   7.484  44.464  0.00  0.00    +0.000 C 
ATOM      5  C   UNL     1      16.653   7.924  43.065  0.00  0.00    +0.000 A 
ATOM      6  C   UNL     1      16.217   9.135  42.568  0.00  0.00    +0.000 A 
ATOM      7  C   UNL     1      16.533   9.517  41.287  0.00  0.00    +0.000 A 
ATOM      8  C   UNL     1      17.290   8.697  40.476  0.00  0.00    +0.000 A 
ATOM      9  C   UNL     1      17.713   7.494  40.993  0.00  0.00    +0.000 A 
ATOM     10  C   UNL     1      17.410   7.087  42.275  0.00  0.00    +0.000 A 
BRANCH  10  11
ATOM     11  N   UNL     1      17.883   5.816  42.753  0.00  0.00    +0.000 N 
ATOM     12  O   UNL     1      17.211   4.789  42.607  0.00  0.00    +0.000 OA
ATOM     13  O   UNL     1      19.104   5.767  43.376  0.00  0.00    +0.000 OA
ENDBRANCH  10  11
ENDBRANCH   1   8
BRANCH   2  14
ATOM     14  C   UNL     1      19.219  10.129  37.455  0.00  0.00    +0.000 C 
BRANCH  14  15
ATOM     15  N   UNL     1      18.135  10.832  36.833  0.00  0.00    +0.000 N 
ATOM     16  C   UNL     1      17.820  12.051  37.298  0.00  0.00    +0.000 A 
ATOM     17  C   UNL     1      16.780  12.739  36.708  0.00  0.00    +0.000 A 
ATOM     18  C   UNL     1      16.049  12.225  35.661  0.00  0.00    +0.000 A 
ATOM     19  C   UNL     1      16.429  10.951  35.225  0.00  0.00    +0.000 A 
ATOM     20  C   UNL     1      17.464  10.282  35.820  0.00  0.00    +0.000 A 
ATOM     21  C   UNL     1      17.842   8.948  35.345  0.00  0.00    +0.000 C 
ENDBRANCH  14  15
ENDBRANCH   2  14
TORSDOF 4
ENDMDL
MODEL 7
REMARK VINA RESULT:      -5.6     27.580     30.104
REMARK  Name = 
REMARK  4 active torsions:
REMARK  status: ('A' for Active; 'I' for Inactive)
REMARK    1  A    between atoms: C_5  and  N_6
REMARK    2  A    between atoms: C_7  and  C_9
REMARK    3  A    between atoms: C_9  and  N_10
REMARK    4  A    between atoms: C_18  and  N_19
REMARK                            x       y       z     vdW  Elec       q    Type
REMARK                         _______ _______ _______ _____ _____    ______ ____
ROOT
ATOM      1  N   UNL     1      33.071  -5.008  33.446  0.00  0.00    +0.000 NA
ATOM      2  C   UNL     1      33.984  -5.875  32.787  0.00  0.00    +0.000 C 
ATOM      3  O   UNL     1      35.201  -5.556  32.834  0.00  0.00    +0.000 OA
ENDROOT
BRANCH   1   8
ATOM      4  C   UNL     1      34.837  -0.237  36.018  0.00  0.00    +0.000 C 
ATOM      5  C   UNL     1      34.381  -1.511  35.365  0.00  0.00    +0.000 A 
ATOM      6  C   UNL     1      34.500  -2.730  36.001  0.00  0.00    +0.000 A 
ATOM      7  C   UNL     1      34.075  -3.882  35.386  0.00  0.00    +0.000 A 
ATOM      8  C   UNL     1      33.524  -3.841  34.122  0.00  0.00    +0.000 A 
ATOM      9  C   UNL     1      33.415  -2.615  33.507  0.00  0.00    +0.000 A 
ATOM     10  C   UNL     1      33.833  -1.444  34.103  0.00  0.00    +0.000 A 
BRANCH  10  11
ATOM     11  N   UNL     1      33.691  -0.195  33.404  0.00  0.00    +0.000 N 
ATOM     12  O   UNL     1      32.730   0.552  33.622  0.00  0.00    +0.000 OA
ATOM     13  O   UNL     1      34.649   0.152  32.486  0.00  0.00    +0.000 OA
ENDBRANCH  10  11
ENDBRANCH   1   8
BRANCH   2  14
ATOM     14  C   UNL     1      33.508  -7.111  32.071  0.00  0.00    +0.000 C 
BRANCH  14  15
ATOM     15  N   UNL     1      33.738  -6.978  30.663  0.00  0.00    +0.000 N 
ATOM     16  C   UNL     1      33.095  -6.001  30.004  0.00  0.00    +0.000 A 
ATOM     17  C   UNL     1      33.308  -5.861  28.649  0.00  0.00    +0.000 A 
ATOM     18  C   UNL     1      34.155  -6.685  27.941  0.00  0.00    +0.000 A 
ATOM     19  C   UNL     1      34.793  -7.681  28.687  0.00  0.00    +0.000 A 
ATOM     20  C   UNL     1      34.572  -7.806  30.032  0.00  0.00    +0.000 A 
ATOM     21  C   UNL     1      35.253  -8.859  30.791  0.00  0.00    +0.000 C 
ENDBRANCH  14  15
ENDBRANCH   2  14
TORSDOF 4
ENDMDL
MODEL 8
REMARK VINA RESULT:      -5.6     27.673     30.545
REMARK  Name = 
REMARK  4 active torsions:
REMARK  status: ('A' for Active; 'I' for Inactive)
REMARK    1  A    between atoms: C_5  and  N_6
REMARK    2  A    between atoms: C_7  and  C_9
REMARK    3  A    between atoms: C_9  and  N_10
REMARK    4  A    between atoms: C_18  and  N_19
REMARK                            x       y       z     vdW  Elec       q    Type
REMARK                         _______ _______ _______ _____ _____    ______ ____
ROOT
ATOM      1  N   UNL     1      33.531  -3.929  32.783  0.00  0.00    +0.000 NA
ATOM      2  C   UNL     1      32.692  -4.107  33.916  0.00  0.00    +0.000 C 
ATOM      3  O   UNL     1      32.390  -5.293  34.215  0.00  0.00    +0.000 OA
ENDROOT
BRANCH   1   8
ATOM      4  C   UNL     1      35.279  -8.368  29.663  0.00  0.00    +0.000 C 
ATOM      5  C   UNL     1      34.841  -7.203  30.506  0.00  0.00    +0.000 A 
ATOM      6  C   UNL     1      35.520  -6.849  31.654  0.00  0.00    +0.000 A 
ATOM      7  C   UNL     1      35.104  -5.780  32.408  0.00  0.00    +0.000 A 
ATOM      8  C   UNL     1      34.000  -5.043  32.033  0.00  0.00    +0.000 A 
ATOM      9  C   UNL     1      33.339  -5.414  30.884  0.00  0.00    +0.000 A 
ATOM     10  C   UNL     1      33.737  -6.482  30.109  0.00  0.00    +0.000 A 
BRANCH  10  11
ATOM     11  N   UNL     1      33.000  -6.817  28.920  0.00  0.00    +0.000 N 
ATOM     12  O   UNL     1      33.173  -6.195  27.866  0.00  0.00    +0.000 OA
ATOM     13  O   UNL     1      32.098  -7.848  28.981  0.00  0.00    +0.000 OA
ENDBRANCH  10  11
ENDBRANCH   1   8
BRANCH   2  14
ATOM     14  C   UNL     1      32.196  -2.930  34.713  0.00  0.00    +0.000 C 
BRANCH  14  15
ATOM     15  N   UNL     1      33.296  -2.288  35.370  0.00  0.00    +0.000 N 
ATOM     16  C   UNL     1      34.087  -3.034  36.158  0.00  0.00    +0.000 A 
ATOM     17  C   UNL     1      35.149  -2.428  36.796  0.00  0.00    +0.000 A 
ATOM     18  C   UNL     1      35.433  -1.088  36.659  0.00  0.00    +0.000 A 
ATOM     19  C   UNL     1      34.570  -0.369  35.825  0.00  0.00    +0.000 A 
ATOM     20  C   UNL     1      33.520  -0.985  35.198  0.00  0.00    +0.000 A 
ATOM     21  C   UNL     1      32.630  -0.209  34.329  0.00  0.00    +0.000 C 
ENDBRANCH  14  15
ENDBRANCH   2  14
TORSDOF 4
ENDMDL
MODEL 9
REMARK VINA RESULT:      -5.6      2.427      7.246
REMARK  Name = 
REMARK  4 active torsions:
REMARK  status: ('A' for Active; 'I' for Inactive)
REMARK    1  A    between atoms: C_5  and  N_6
REMARK    2  A    between atoms: C_7  and  C_9
REMARK    3  A    between atoms: C_9  and  N_10
REMARK    4  A    between atoms: C_18  and  N_19
REMARK                            x       y       z     vdW  Elec       q    Type
REMARK                         _______ _______ _______ _____ _____    ______ ____
ROOT
ATOM      1  N   UNL     1      26.606  23.252  27.186  0.00  0.00    +0.000 NA
ATOM      2  C   UNL     1      26.029  24.247  28.021  0.00  0.00    +0.000 C 
ATOM      3  O   UNL     1      25.586  25.278  27.450  0.00  0.00    +0.000 OA
ENDROOT
BRANCH   1   8
ATOM      4  C   UNL     1      27.038  24.009  21.552  0.00  0.00    +0.000 C 
ATOM      5  C   UNL     1      26.895  23.799  23.034  0.00  0.00    +0.000 A 
ATOM      6  C   UNL     1      25.736  23.289  23.581  0.00  0.00    +0.000 A 
ATOM      7  C   UNL     1      25.627  23.104  24.937  0.00  0.00    +0.000 A 
ATOM      8  C   UNL     1      26.674  23.426  25.776  0.00  0.00    +0.000 A 
ATOM      9  C   UNL     1      27.820  23.933  25.208  0.00  0.00    +0.000 A 
ATOM     10  C   UNL     1      27.955  24.128  23.850  0.00  0.00    +0.000 A 
BRANCH  10  11
ATOM     11  N   UNL     1      29.181  24.662  23.322  0.00  0.00    +0.000 N 
ATOM     12  O   UNL     1      30.109  23.917  22.986  0.00  0.00    +0.000 OA
ATOM     13  O   UNL     1      29.299  26.023  23.197  0.00  0.00    +0.000 OA
ENDBRANCH  10  11
ENDBRANCH   1   8
BRANCH   2  14
ATOM     14  C   UNL     1      25.955  24.066  29.514  0.00  0.00    +0.000 C 
BRANCH  14  15
ATOM     15  N   UNL     1      27.268  23.837  30.042  0.00  0.00    +0.000 N 
ATOM     16  C   UNL     1      28.126  24.869  30.081  0.00  0.00    +0.000 A 
ATOM     17  C   UNL     1      29.392  24.662  30.588  0.00  0.00    +0.000 A 
ATOM     18  C   UNL     1      29.814  23.438  31.056  0.00  0.00    +0.000 A 
ATOM     19  C   UNL     1      28.872  22.406  30.987  0.00  0.00    +0.000 A 
ATOM     20  C   UNL     1      27.619  22.628  30.481  0.00  0.00    +0.000 A 
ATOM     21  C   UNL     1      26.651  21.529  30.420  0.00  0.00    +0.000 C 
ENDBRANCH  14  15
ENDBRANCH   2  14
TORSDOF 4
ENDMDL
MODEL 10
REMARK VINA RESULT:      -5.5      2.882      4.149
REMARK  Name = 
REMARK  4 active torsions:
REMARK  status: ('A' for Active; 'I' for Inactive)
REMARK    1  A    between atoms: C_5  and  N_6
REMARK    2  A    between atoms: C_7  and  C_9
REMARK    3  A    between atoms: C_9  and  N_10
REMARK    4  A    between atoms: C_18  and  N_19
REMARK                            x       y       z     vdW  Elec       q    Type
REMARK                         _______ _______ _______ _____ _____    ______ ____
ROOT
ATOM      1  N   UNL     1      25.560  23.999  26.197  0.00  0.00    +0.000 NA
ATOM      2  C   UNL     1      26.537  24.502  25.294  0.00  0.00    +0.000 C 
ATOM      3  O   UNL     1      26.879  25.704  25.444  0.00  0.00    +0.000 OA
ENDROOT
BRANCH   1   8
ATOM      4  C   UNL     1      23.467  27.257  30.380  0.00  0.00    +0.000 C 
ATOM      5  C   UNL     1      23.996  26.408  29.259  0.00  0.00    +0.000 A 
ATOM      6  C   UNL     1      23.377  26.376  28.026  0.00  0.00    +0.000 A 
ATOM      7  C   UNL     1      23.878  25.593  27.015  0.00  0.00    +0.000 A 
ATOM      8  C   UNL     1      25.006  24.825  27.214  0.00  0.00    +0.000 A 
ATOM      9  C   UNL     1      25.607  24.873  28.451  0.00  0.00    +0.000 A 
ATOM     10  C   UNL     1      25.124  25.651  29.482  0.00  0.00    +0.000 A 
BRANCH  10  11
ATOM     11  N   UNL     1      25.800  25.654  30.752  0.00  0.00    +0.000 N 
ATOM     12  O   UNL     1      25.569  24.785  31.600  0.00  0.00    +0.000 OA
ATOM     13  O   UNL     1      26.713  26.646  31.002  0.00  0.00    +0.000 OA
ENDBRANCH  10  11
ENDBRANCH   1   8
BRANCH   2  14
ATOM     14  C   UNL     1      27.125  23.630  24.217  0.00  0.00    +0.000 C 
BRANCH  14  15
ATOM     15  N   UNL     1      28.510  23.382  24.492  0.00  0.00    +0.000 N 
ATOM     16  C   UNL     1      28.819  22.625  25.556  0.00  0.00    +0.000 A 
ATOM     17  C   UNL     1      30.148  22.378  25.832  0.00  0.00    +0.000 A 
ATOM     18  C   UNL     1      31.173  22.879  25.061  0.00  0.00    +0.000 A 
ATOM     19  C   UNL     1      30.781  23.660  23.968  0.00  0.00    +0.000 A 
ATOM     20  C   UNL     1      29.458  23.894  23.707  0.00  0.00    +0.000 A 
ATOM     21  C   UNL     1      29.074  24.716  22.555  0.00  0.00    +0.000 C 
ENDBRANCH  14  15
ENDBRANCH   2  14
TORSDOF 4
ENDMDL
