MODEL 1
REMARK VINA RESULT:      -7.1      0.000      0.000
REMARK  Name = 
REMARK  1 active torsions:
REMARK  status: ('A' for Active; 'I' for Inactive)
REMARK    1  A    between atoms: C_2  and  C_3
REMARK                            x       y       z     vdW  Elec       q    Type
REMARK                         _______ _______ _______ _____ _____    ______ ____
ROOT
ATOM      1  C   UNL     1      28.081  24.153  22.970  0.00  0.00    +0.000 C 
ATOM      2  O   UNL     1      27.828  23.030  22.187  0.00  0.00    +0.000 OA
ATOM      3  C   UNL     1      26.785  24.888  23.358  0.00  0.00    +0.000 C 
ATOM      4  C   UNL     1      27.347  25.903  24.286  0.00  0.00    +0.000 C 
ATOM      5  C   UNL     1      28.481  25.113  25.113  0.00  0.00    +0.000 C 
ATOM      6  C   UNL     1      27.462  24.548  26.301  0.00  0.00    +0.000 C 
ATOM      7  C   UNL     1      27.473  25.937  27.140  0.00  0.00    +0.000 C 
ATOM      8  C   UNL     1      26.862  25.413  28.379  0.00  0.00    +0.000 C 
ATOM      9  C   UNL     1      26.898  24.209  28.822  0.00  0.00    +0.000 C 
ATOM     10  C   UNL     1      26.219  23.897  30.084  0.00  0.00    +0.000 C 
ATOM     11  C   UNL     1      26.545  22.499  30.463  0.00  0.00    +0.000 C 
ATOM     12  O   UNL     1      25.705  21.660  30.720  0.00  0.00    +0.000 OA
ATOM     13  C   UNL     1      28.006  22.217  30.501  0.00  0.00    +0.000 C 
ATOM     14  C   UNL     1      28.732  22.778  29.323  0.00  0.00    +0.000 C 
ATOM     15  C   UNL     1      27.593  22.997  28.155  0.00  0.00    +0.000 C 
ATOM     16  C   UNL     1      28.689  23.857  27.194  0.00  0.00    +0.000 C 
ATOM     17  C   UNL     1      29.024  22.584  26.283  0.00  0.00    +0.000 C 
ATOM     18  C   UNL     1      29.465  23.010  24.895  0.00  0.00    +0.000 C 
ATOM     19  C   UNL     1      28.456  23.773  24.238  0.00  0.00    +0.000 C 
ATOM     20  C   UNL     1      27.249  22.900  24.562  0.00  0.00    +0.000 C 
ENDROOT
BRANCH   1  22
ATOM     21  C   UNL     1      29.384  25.880  21.468  0.00  0.00    +0.000 C 
ATOM     22  C   UNL     1      28.797  25.111  22.156  0.00  0.00    +0.000 C 
ENDBRANCH   1  22
TORSDOF 1
ENDMDL
MODEL 2
REMARK VINA RESULT:      -7.0     31.504     32.838
REMARK  Name = 
REMARK  1 active torsions:
REMARK  status: ('A' for Active; 'I' for Inactive)
REMARK    1  A    between atoms: C_2  and  C_3
REMARK                            x       y       z     vdW  Elec       q    Type
REMARK                         _______ _______ _______ _____ _____    ______ ____
ROOT
ATOM      1  C   UNL     1      23.548  -8.361  23.084  0.00  0.00    +0.000 C 
ATOM      2  O   UNL     1      23.637  -9.469  22.246  0.00  0.00    +0.000 OA
ATOM      3  C   UNL     1      22.654  -7.258  22.488  0.00  0.00    +0.000 C 
ATOM      4  C   UNL     1      22.626  -6.317  23.637  0.00  0.00    +0.000 C 
ATOM      5  C   UNL     1      22.526  -7.265  24.935  0.00  0.00    +0.000 C 
ATOM      6  C   UNL     1      20.865  -7.369  24.942  0.00  0.00    +0.000 C 
ATOM      7  C   UNL     1      20.657  -5.935  25.672  0.00  0.00    +0.000 C 
ATOM      8  C   UNL     1      19.230  -6.103  26.014  0.00  0.00    +0.000 C 
ATOM      9  C   UNL     1      18.595  -7.201  26.210  0.00  0.00    +0.000 C 
ATOM     10  C   UNL     1      17.168  -7.146  26.541  0.00  0.00    +0.000 C 
ATOM     11  C   UNL     1      16.708  -8.515  26.882  0.00  0.00    +0.000 C 
ATOM     12  O   UNL     1      15.755  -9.054  26.357  0.00  0.00    +0.000 OA
ATOM     13  C   UNL     1      17.527  -9.173  27.937  0.00  0.00    +0.000 C 
ATOM     14  C   UNL     1      18.993  -8.992  27.724  0.00  0.00    +0.000 C 
ATOM     15  C   UNL     1      19.176  -8.634  26.128  0.00  0.00    +0.000 C 
ATOM     16  C   UNL     1      20.804  -8.238  26.364  0.00  0.00    +0.000 C 
ATOM     17  C   UNL     1      21.316  -9.665  25.849  0.00  0.00    +0.000 C 
ATOM     18  C   UNL     1      22.715  -9.564  25.272  0.00  0.00    +0.000 C 
ATOM     19  C   UNL     1      22.765  -8.654  24.176  0.00  0.00    +0.000 C 
ATOM     20  C   UNL     1      21.522  -9.117  23.426  0.00  0.00    +0.000 C 
ENDROOT
BRANCH   1  22
ATOM     21  C   UNL     1      25.942  -7.270  23.203  0.00  0.00    +0.000 C 
ATOM     22  C   UNL     1      24.858  -7.750  23.154  0.00  0.00    +0.000 C 
ENDBRANCH   1  22
TORSDOF 1
ENDMDL
MODEL 3
REMARK VINA RESULT:      -7.0      1.549      6.291
REMARK  Name = 
REMARK  1 active torsions:
REMARK  status: ('A' for Active; 'I' for Inactive)
REMARK    1  A    between atoms: C_2  and  C_3
REMARK                            x       y       z     vdW  Elec       q    Type
REMARK                         _______ _______ _______ _____ _____    ______ ____
ROOT
ATOM      1  C   UNL     1      27.888  23.138  29.144  0.00  0.00    +0.000 C 
ATOM      2  O   UNL     1      29.065  23.331  29.863  0.00  0.00    +0.000 OA
ATOM      3  C   UNL     1      27.058  24.432  29.040  0.00  0.00    +0.000 C 
ATOM      4  C   UNL     1      25.990  23.965  28.119  0.00  0.00    +0.000 C 
ATOM      5  C   UNL     1      26.755  23.031  27.053  0.00  0.00    +0.000 C 
ATOM      6  C   UNL     1      27.158  24.261  26.008  0.00  0.00    +0.000 C 
ATOM      7  C   UNL     1      25.700  24.299  25.297  0.00  0.00    +0.000 C 
ATOM      8  C   UNL     1      26.077  25.133  24.138  0.00  0.00    +0.000 C 
ATOM      9  C   UNL     1      27.236  25.244  23.596  0.00  0.00    +0.000 C 
ATOM     10  C   UNL     1      27.397  26.136  22.443  0.00  0.00    +0.000 C 
ATOM     11  C   UNL     1      28.768  25.965  21.900  0.00  0.00    +0.000 C 
ATOM     12  O   UNL     1      29.538  26.886  21.718  0.00  0.00    +0.000 OA
ATOM     13  C   UNL     1      29.115  24.549  21.597  0.00  0.00    +0.000 C 
ATOM     14  C   UNL     1      28.700  23.609  22.680  0.00  0.00    +0.000 C 
ATOM     15  C   UNL     1      28.536  24.528  24.035  0.00  0.00    +0.000 C 
ATOM     16  C   UNL     1      27.822  23.240  24.868  0.00  0.00    +0.000 C 
ATOM     17  C   UNL     1      29.188  22.843  25.602  0.00  0.00    +0.000 C 
ATOM     18  C   UNL     1      28.913  22.158  26.928  0.00  0.00    +0.000 C 
ATOM     19  C   UNL     1      28.167  22.998  27.805  0.00  0.00    +0.000 C 
ATOM     20  C   UNL     1      28.947  24.293  27.615  0.00  0.00    +0.000 C 
ENDROOT
BRANCH   1  22
ATOM     21  C   UNL     1      26.333  21.510  30.512  0.00  0.00    +0.000 C 
ATOM     22  C   UNL     1      27.044  22.242  29.905  0.00  0.00    +0.000 C 
ENDBRANCH   1  22
TORSDOF 1
ENDMDL
MODEL 4
REMARK VINA RESULT:      -6.7     20.340     22.482
REMARK  Name = 
REMARK  1 active torsions:
REMARK  status: ('A' for Active; 'I' for Inactive)
REMARK    1  A    between atoms: C_2  and  C_3
REMARK                            x       y       z     vdW  Elec       q    Type
REMARK                         _______ _______ _______ _____ _____    ______ ____
ROOT
ATOM      1  C   UNL     1      23.932   2.060  17.597  0.00  0.00    +0.000 C 
ATOM      2  O   UNL     1      24.327   0.725  17.635  0.00  0.00    +0.000 OA
ATOM      3  C   UNL     1      24.328   2.815  18.879  0.00  0.00    +0.000 C 
ATOM      4  C   UNL     1      23.932   4.192  18.485  0.00  0.00    +0.000 C 
ATOM      5  C   UNL     1      24.356   4.308  16.936  0.00  0.00    +0.000 C 
ATOM      6  C   UNL     1      25.917   4.808  17.225  0.00  0.00    +0.000 C 
ATOM      7  C   UNL     1      25.503   6.356  17.480  0.00  0.00    +0.000 C 
ATOM      8  C   UNL     1      26.863   6.928  17.415  0.00  0.00    +0.000 C 
ATOM      9  C   UNL     1      27.878   6.464  16.781  0.00  0.00    +0.000 C 
ATOM     10  C   UNL     1      29.150   7.192  16.849  0.00  0.00    +0.000 C 
ATOM     11  C   UNL     1      30.109   6.558  15.910  0.00  0.00    +0.000 C 
ATOM     12  O   UNL     1      31.217   6.182  16.235  0.00  0.00    +0.000 OA
ATOM     13  C   UNL     1      29.585   6.425  14.523  0.00  0.00    +0.000 C 
ATOM     14  C   UNL     1      28.179   5.926  14.484  0.00  0.00    +0.000 C 
ATOM     15  C   UNL     1      27.928   5.174  15.926  0.00  0.00    +0.000 C 
ATOM     16  C   UNL     1      26.270   5.042  15.612  0.00  0.00    +0.000 C 
ATOM     17  C   UNL     1      26.395   3.522  15.123  0.00  0.00    +0.000 C 
ATOM     18  C   UNL     1      25.096   2.771  15.346  0.00  0.00    +0.000 C 
ATOM     19  C   UNL     1      24.725   2.766  16.722  0.00  0.00    +0.000 C 
ATOM     20  C   UNL     1      26.076   2.411  17.332  0.00  0.00    +0.000 C 
ENDROOT
BRANCH   1  22
ATOM     21  C   UNL     1      21.298   2.099  17.602  0.00  0.00    +0.000 C 
ATOM     22  C   UNL     1      22.485   2.095  17.602  0.00  0.00    +0.000 C 
ENDBRANCH   1  22
TORSDOF 1
ENDMDL
MODEL 5
REMARK VINA RESULT:      -6.6     21.016     22.751
REMARK  Name = 
REMARK  1 active torsions:
REMARK  status: ('A' for Active; 'I' for Inactive)
REMARK    1  A    between atoms: C_2  and  C_3
REMARK                            x       y       z     vdW  Elec       q    Type
REMARK                         _______ _______ _______ _____ _____    ______ ____
ROOT
ATOM      1  C   UNL     1      27.629   5.918  15.574  0.00  0.00    +0.000 C 
ATOM      2  O   UNL     1      28.056   5.831  14.252  0.00  0.00    +0.000 OA
ATOM      3  C   UNL     1      26.285   6.660  15.698  0.00  0.00    +0.000 C 
ATOM      4  C   UNL     1      26.024   6.456  17.146  0.00  0.00    +0.000 C 
ATOM      5  C   UNL     1      26.505   4.947  17.436  0.00  0.00    +0.000 C 
ATOM      6  C   UNL     1      25.056   4.229  17.045  0.00  0.00    +0.000 C 
ATOM      7  C   UNL     1      24.372   4.546  18.482  0.00  0.00    +0.000 C 
ATOM      8  C   UNL     1      23.205   3.652  18.336  0.00  0.00    +0.000 C 
ATOM      9  C   UNL     1      23.118   2.587  17.625  0.00  0.00    +0.000 C 
ATOM     10  C   UNL     1      21.856   1.840  17.619  0.00  0.00    +0.000 C 
ATOM     11  C   UNL     1      22.058   0.575  16.868  0.00  0.00    +0.000 C 
ATOM     12  O   UNL     1      21.354   0.224  15.943  0.00  0.00    +0.000 OA
ATOM     13  C   UNL     1      23.212  -0.229  17.356  0.00  0.00    +0.000 C 
ATOM     14  C   UNL     1      24.426   0.601  17.611  0.00  0.00    +0.000 C 
ATOM     15  C   UNL     1      24.224   1.977  16.731  0.00  0.00    +0.000 C 
ATOM     16  C   UNL     1      25.556   2.699  17.484  0.00  0.00    +0.000 C 
ATOM     17  C   UNL     1      26.540   2.360  16.267  0.00  0.00    +0.000 C 
ATOM     18  C   UNL     1      27.677   3.360  16.193  0.00  0.00    +0.000 C 
ATOM     19  C   UNL     1      27.194   4.689  16.015  0.00  0.00    +0.000 C 
ATOM     20  C   UNL     1      26.167   4.424  14.921  0.00  0.00    +0.000 C 
ENDROOT
BRANCH   1  22
ATOM     21  C   UNL     1      29.345   7.437  16.870  0.00  0.00    +0.000 C 
ATOM     22  C   UNL     1      28.562   6.762  16.288  0.00  0.00    +0.000 C 
ENDBRANCH   1  22
TORSDOF 1
ENDMDL
MODEL 6
REMARK VINA RESULT:      -6.6      2.886      5.477
REMARK  Name = 
REMARK  1 active torsions:
REMARK  status: ('A' for Active; 'I' for Inactive)
REMARK    1  A    between atoms: C_2  and  C_3
REMARK                            x       y       z     vdW  Elec       q    Type
REMARK                         _______ _______ _______ _____ _____    ______ ____
ROOT
ATOM      1  C   UNL     1      31.990  23.185  28.421  0.00  0.00    +0.000 C 
ATOM      2  O   UNL     1      32.997  23.929  27.811  0.00  0.00    +0.000 OA
ATOM      3  C   UNL     1      31.215  24.012  29.463  0.00  0.00    +0.000 C 
ATOM      4  C   UNL     1      30.150  23.036  29.808  0.00  0.00    +0.000 C 
ATOM      5  C   UNL     1      29.762  22.346  28.405  0.00  0.00    +0.000 C 
ATOM      6  C   UNL     1      28.623  23.478  27.970  0.00  0.00    +0.000 C 
ATOM      7  C   UNL     1      27.452  22.833  28.890  0.00  0.00    +0.000 C 
ATOM      8  C   UNL     1      26.320  23.579  28.305  0.00  0.00    +0.000 C 
ATOM      9  C   UNL     1      26.231  24.067  27.121  0.00  0.00    +0.000 C 
ATOM     10  C   UNL     1      25.008  24.781  26.738  0.00  0.00    +0.000 C 
ATOM     11  C   UNL     1      25.078  25.097  25.290  0.00  0.00    +0.000 C 
ATOM     12  O   UNL     1      24.925  26.214  24.838  0.00  0.00    +0.000 OA
ATOM     13  C   UNL     1      25.354  23.909  24.434  0.00  0.00    +0.000 C 
ATOM     14  C   UNL     1      26.436  23.042  24.985  0.00  0.00    +0.000 C 
ATOM     15  C   UNL     1      27.303  23.997  26.007  0.00  0.00    +0.000 C 
ATOM     16  C   UNL     1      28.159  22.660  26.592  0.00  0.00    +0.000 C 
ATOM     17  C   UNL     1      29.422  22.946  25.651  0.00  0.00    +0.000 C 
ATOM     18  C   UNL     1      30.695  22.399  26.269  0.00  0.00    +0.000 C 
ATOM     19  C   UNL     1      30.950  22.983  27.544  0.00  0.00    +0.000 C 
ATOM     20  C   UNL     1      30.684  24.443  27.194  0.00  0.00    +0.000 C 
ENDROOT
BRANCH   1  22
ATOM     21  C   UNL     1      33.158  21.297  29.839  0.00  0.00    +0.000 C 
ATOM     22  C   UNL     1      32.619  22.141  29.201  0.00  0.00    +0.000 C 
ENDBRANCH   1  22
TORSDOF 1
ENDMDL
MODEL 7
REMARK VINA RESULT:      -6.5      3.079      4.354
REMARK  Name = 
REMARK  1 active torsions:
REMARK  status: ('A' for Active; 'I' for Inactive)
REMARK    1  A    between atoms: C_2  and  C_3
REMARK                            x       y       z     vdW  Elec       q    Type
REMARK                         _______ _______ _______ _____ _____    ______ ____
ROOT
ATOM      1  C   UNL     1      26.700  24.042  24.814  0.00  0.00    +0.000 C 
ATOM      2  O   UNL     1      25.643  24.501  25.595  0.00  0.00    +0.000 OA
ATOM      3  C   UNL     1      27.617  25.190  24.352  0.00  0.00    +0.000 C 
ATOM      4  C   UNL     1      28.694  24.399  23.704  0.00  0.00    +0.000 C 
ATOM      5  C   UNL     1      28.891  23.120  24.662  0.00  0.00    +0.000 C 
ATOM      6  C   UNL     1      29.993  23.839  25.680  0.00  0.00    +0.000 C 
ATOM      7  C   UNL     1      31.253  23.595  24.687  0.00  0.00    +0.000 C 
ATOM      8  C   UNL     1      32.321  23.905  25.659  0.00  0.00    +0.000 C 
ATOM      9  C   UNL     1      32.275  23.794  26.937  0.00  0.00    +0.000 C 
ATOM     10  C   UNL     1      33.457  24.160  27.724  0.00  0.00    +0.000 C 
ATOM     11  C   UNL     1      33.216  23.787  29.141  0.00  0.00    +0.000 C 
ATOM     12  O   UNL     1      33.337  24.561  30.068  0.00  0.00    +0.000 OA
ATOM     13  C   UNL     1      32.810  22.366  29.322  0.00  0.00    +0.000 C 
ATOM     14  C   UNL     1      31.785  21.929  28.330  0.00  0.00    +0.000 C 
ATOM     15  C   UNL     1      31.072  23.307  27.781  0.00  0.00    +0.000 C 
ATOM     16  C   UNL     1      30.265  22.452  26.565  0.00  0.00    +0.000 C 
ATOM     17  C   UNL     1      28.902  22.375  27.402  0.00  0.00    +0.000 C 
ATOM     18  C   UNL     1      27.703  22.267  26.479  0.00  0.00    +0.000 C 
ATOM     19  C   UNL     1      27.620  23.385  25.598  0.00  0.00    +0.000 C 
ATOM     20  C   UNL     1      27.873  24.500  26.605  0.00  0.00    +0.000 C 
ENDROOT
BRANCH   1  22
ATOM     21  C   UNL     1      25.684  23.070  22.587  0.00  0.00    +0.000 C 
ATOM     22  C   UNL     1      26.149  23.518  23.583  0.00  0.00    +0.000 C 
ENDBRANCH   1  22
TORSDOF 1
ENDMDL
MODEL 8
REMARK VINA RESULT:      -6.3      2.831      5.363
REMARK  Name = 
REMARK  1 active torsions:
REMARK  status: ('A' for Active; 'I' for Inactive)
REMARK    1  A    between atoms: C_2  and  C_3
REMARK                            x       y       z     vdW  Elec       q    Type
REMARK                         _______ _______ _______ _____ _____    ______ ____
ROOT
ATOM      1  C   UNL     1      24.259  26.527  27.372  0.00  0.00    +0.000 C 
ATOM      2  O   UNL     1      24.474  27.548  28.293  0.00  0.00    +0.000 OA
ATOM      3  C   UNL     1      24.680  26.937  25.948  0.00  0.00    +0.000 C 
ATOM      4  C   UNL     1      24.490  25.638  25.252  0.00  0.00    +0.000 C 
ATOM      5  C   UNL     1      25.009  24.535  26.304  0.00  0.00    +0.000 C 
ATOM      6  C   UNL     1      26.604  24.587  25.831  0.00  0.00    +0.000 C 
ATOM      7  C   UNL     1      26.382  23.617  24.549  0.00  0.00    +0.000 C 
ATOM      8  C   UNL     1      27.807  23.346  24.270  0.00  0.00    +0.000 C 
ATOM      9  C   UNL     1      28.786  23.366  25.099  0.00  0.00    +0.000 C 
ATOM     10  C   UNL     1      30.136  23.066  24.611  0.00  0.00    +0.000 C 
ATOM     11  C   UNL     1      31.054  22.987  25.775  0.00  0.00    +0.000 C 
ATOM     12  O   UNL     1      32.084  23.625  25.862  0.00  0.00    +0.000 OA
ATOM     13  C   UNL     1      30.593  22.048  26.835  0.00  0.00    +0.000 C 
ATOM     14  C   UNL     1      29.138  22.189  27.136  0.00  0.00    +0.000 C 
ATOM     15  C   UNL     1      28.713  23.690  26.612  0.00  0.00    +0.000 C 
ATOM     16  C   UNL     1      27.072  23.347  26.843  0.00  0.00    +0.000 C 
ATOM     17  C   UNL     1      27.024  24.097  28.256  0.00  0.00    +0.000 C 
ATOM     18  C   UNL     1      25.628  24.612  28.551  0.00  0.00    +0.000 C 
ATOM     19  C   UNL     1      25.185  25.524  27.549  0.00  0.00    +0.000 C 
ATOM     20  C   UNL     1      26.443  26.376  27.430  0.00  0.00    +0.000 C 
ENDROOT
BRANCH   1  22
ATOM     21  C   UNL     1      21.662  26.124  27.200  0.00  0.00    +0.000 C 
ATOM     22  C   UNL     1      22.832  26.315  27.267  0.00  0.00    +0.000 C 
ENDBRANCH   1  22
TORSDOF 1
ENDMDL
MODEL 9
REMARK VINA RESULT:      -6.3      1.298      6.389
REMARK  Name = 
REMARK  1 active torsions:
REMARK  status: ('A' for Active; 'I' for Inactive)
REMARK    1  A    between atoms: C_2  and  C_3
REMARK                            x       y       z     vdW  Elec       q    Type
REMARK                         _______ _______ _______ _____ _____    ______ ____
ROOT
ATOM      1  C   UNL     1      27.021  23.951  29.853  0.00  0.00    +0.000 C 
ATOM      2  O   UNL     1      25.708  23.992  30.315  0.00  0.00    +0.000 OA
ATOM      3  C   UNL     1      27.423  22.540  29.386  0.00  0.00    +0.000 C 
ATOM      4  C   UNL     1      28.764  22.841  28.823  0.00  0.00    +0.000 C 
ATOM      5  C   UNL     1      28.585  24.261  28.084  0.00  0.00    +0.000 C 
ATOM      6  C   UNL     1      28.083  23.632  26.628  0.00  0.00    +0.000 C 
ATOM      7  C   UNL     1      29.585  23.283  26.123  0.00  0.00    +0.000 C 
ATOM      8  C   UNL     1      29.253  23.029  24.706  0.00  0.00    +0.000 C 
ATOM      9  C   UNL     1      28.273  23.512  24.032  0.00  0.00    +0.000 C 
ATOM     10  C   UNL     1      28.122  23.127  22.625  0.00  0.00    +0.000 C 
ATOM     11  C   UNL     1      27.031  23.937  22.027  0.00  0.00    +0.000 C 
ATOM     12  O   UNL     1      26.083  23.457  21.439  0.00  0.00    +0.000 OA
ATOM     13  C   UNL     1      27.206  25.404  22.217  0.00  0.00    +0.000 C 
ATOM     14  C   UNL     1      27.622  25.760  23.605  0.00  0.00    +0.000 C 
ATOM     15  C   UNL     1      27.184  24.484  24.548  0.00  0.00    +0.000 C 
ATOM     16  C   UNL     1      28.040  25.114  25.865  0.00  0.00    +0.000 C 
ATOM     17  C   UNL     1      26.726  25.740  26.531  0.00  0.00    +0.000 C 
ATOM     18  C   UNL     1      26.879  25.850  28.036  0.00  0.00    +0.000 C 
ATOM     19  C   UNL     1      27.115  24.576  28.631  0.00  0.00    +0.000 C 
ATOM     20  C   UNL     1      26.047  23.771  27.900  0.00  0.00    +0.000 C 
ENDROOT
BRANCH   1  22
ATOM     21  C   UNL     1      28.608  24.448  31.896  0.00  0.00    +0.000 C 
ATOM     22  C   UNL     1      27.895  24.210  30.976  0.00  0.00    +0.000 C 
ENDBRANCH   1  22
TORSDOF 1
ENDMDL
MODEL 10
REMARK VINA RESULT:      -6.1     33.466     35.700
REMARK  Name = 
REMARK  1 active torsions:
REMARK  status: ('A' for Active; 'I' for Inactive)
REMARK    1  A    between atoms: C_2  and  C_3
REMARK                            x       y       z     vdW  Elec       q    Type
REMARK                         _______ _______ _______ _____ _____    ______ ____
ROOT
ATOM      1  C   UNL     1      18.275 -11.689  31.897  0.00  0.00    +0.000 C 
ATOM      2  O   UNL     1      18.875 -11.187  33.049  0.00  0.00    +0.000 OA
ATOM      3  C   UNL     1      16.835 -11.170  31.725  0.00  0.00    +0.000 C 
ATOM      4  C   UNL     1      16.533 -11.728  30.382  0.00  0.00    +0.000 C 
ATOM      5  C   UNL     1      17.899 -11.547  29.550  0.00  0.00    +0.000 C 
ATOM      6  C   UNL     1      17.569 -10.006  29.016  0.00  0.00    +0.000 C 
ATOM      7  C   UNL     1      16.610 -10.501  27.804  0.00  0.00    +0.000 C 
ATOM      8  C   UNL     1      16.544  -9.215  27.080  0.00  0.00    +0.000 C 
ATOM      9  C   UNL     1      17.413  -8.270  27.080  0.00  0.00    +0.000 C 
ATOM     10  C   UNL     1      17.150  -7.065  26.286  0.00  0.00    +0.000 C 
ATOM     11  C   UNL     1      18.361  -6.206  26.314  0.00  0.00    +0.000 C 
ATOM     12  O   UNL     1      18.346  -5.036  26.638  0.00  0.00    +0.000 OA
ATOM     13  C   UNL     1      19.604  -6.916  25.904  0.00  0.00    +0.000 C 
ATOM     14  C   UNL     1      19.726  -8.268  26.524  0.00  0.00    +0.000 C 
ATOM     15  C   UNL     1      18.754  -8.244  27.852  0.00  0.00    +0.000 C 
ATOM     16  C   UNL     1      18.934  -9.914  28.061  0.00  0.00    +0.000 C 
ATOM     17  C   UNL     1      20.059  -9.740  29.187  0.00  0.00    +0.000 C 
ATOM     18  C   UNL     1      20.071 -10.928  30.130  0.00  0.00    +0.000 C 
ATOM     19  C   UNL     1      18.814 -11.091  30.781  0.00  0.00    +0.000 C 
ATOM     20  C   UNL     1      18.561  -9.641  31.177  0.00  0.00    +0.000 C 
ENDROOT
BRANCH   1  22
ATOM     21  C   UNL     1      18.003 -14.289  32.222  0.00  0.00    +0.000 C 
ATOM     22  C   UNL     1      18.115 -13.117  32.066  0.00  0.00    +0.000 C 
ENDBRANCH   1  22
TORSDOF 1
ENDMDL
