MODEL 1
REMARK VINA RESULT:      -7.2      0.000      0.000
REMARK  Name = 
REMARK  2 active torsions:
REMARK  status: ('A' for Active; 'I' for Inactive)
REMARK    1  A    between atoms: C_7  and  N_8
REMARK    2  A    between atoms: C_9  and  C_11
REMARK                            x       y       z     vdW  Elec       q    Type
REMARK                         _______ _______ _______ _____ _____    ______ ____
ROOT
ATOM      1  C   UNL     1      18.821   9.797  37.393  0.00  0.00    +0.000 A 
ATOM      2  C   UNL     1      18.374   9.804  38.690  0.00  0.00    +0.000 A 
ATOM      3  C   UNL     1      16.966   9.838  39.127  0.00  0.00    +0.000 C 
ATOM      4  O   UNL     1      19.391   9.775  39.507  0.00  0.00    +0.000 OA
ATOM      5  C   UNL     1      20.522   9.748  38.813  0.00  0.00    +0.000 A 
ATOM      6  C   UNL     1      21.853   9.713  39.180  0.00  0.00    +0.000 A 
ATOM      7  C   UNL     1      22.798   9.692  38.173  0.00  0.00    +0.000 A 
ATOM      8  C   UNL     1      22.461   9.705  36.838  0.00  0.00    +0.000 A 
ATOM      9  O   UNL     1      23.480   9.683  35.907  0.00  0.00    +0.000 OA
ATOM     10  C   UNL     1      21.132   9.741  36.463  0.00  0.00    +0.000 A 
ATOM     11  C   UNL     1      20.189   9.761  37.465  0.00  0.00    +0.000 A 
ENDROOT
BRANCH   1  13
ATOM     12  N   UNL     1      17.621  11.030  35.546  0.00  0.00    +0.000 NA
ATOM     13  C   UNL     1      17.984   9.822  36.179  0.00  0.00    +0.000 C 
ATOM     14  O   UNL     1      17.567   8.752  35.671  0.00  0.00    +0.000 OA
BRANCH  12  21
ATOM     15  C   UNL     1      15.348  12.590  35.736  0.00  0.00    +0.000 C 
ATOM     16  C   UNL     1      15.691  11.915  34.457  0.00  0.00    +0.000 A 
ATOM     17  C   UNL     1      14.851  12.080  33.364  0.00  0.00    +0.000 A 
ATOM     18  C   UNL     1      15.140  11.468  32.161  0.00  0.00    +0.000 A 
ATOM     19  C   UNL     1      16.282  10.697  32.103  0.00  0.00    +0.000 A 
ATOM     20  C   UNL     1      17.119  10.531  33.189  0.00  0.00    +0.000 A 
ATOM     21  C   UNL     1      16.832  11.143  34.392  0.00  0.00    +0.000 A 
ENDBRANCH  12  21
ENDBRANCH   1  13
TORSDOF 2
ENDMDL
MODEL 2
REMARK VINA RESULT:      -7.0     20.880     22.330
REMARK  Name = 
REMARK  2 active torsions:
REMARK  status: ('A' for Active; 'I' for Inactive)
REMARK    1  A    between atoms: C_7  and  N_8
REMARK    2  A    between atoms: C_9  and  C_11
REMARK                            x       y       z     vdW  Elec       q    Type
REMARK                         _______ _______ _______ _____ _____    ______ ____
ROOT
ATOM      1  C   UNL     1      20.270  -8.988  25.582  0.00  0.00    +0.000 A 
ATOM      2  C   UNL     1      19.734 -10.149  26.077  0.00  0.00    +0.000 A 
ATOM      3  C   UNL     1      20.243 -11.514  25.844  0.00  0.00    +0.000 C 
ATOM      4  O   UNL     1      18.684  -9.876  26.802  0.00  0.00    +0.000 OA
ATOM      5  C   UNL     1      18.482  -8.565  26.821  0.00  0.00    +0.000 A 
ATOM      6  C   UNL     1      17.531  -7.766  27.424  0.00  0.00    +0.000 A 
ATOM      7  C   UNL     1      17.619  -6.401  27.230  0.00  0.00    +0.000 A 
ATOM      8  C   UNL     1      18.609  -5.823  26.467  0.00  0.00    +0.000 A 
ATOM      9  O   UNL     1      18.611  -4.449  26.333  0.00  0.00    +0.000 OA
ATOM     10  C   UNL     1      19.563  -6.615  25.860  0.00  0.00    +0.000 A 
ATOM     11  C   UNL     1      19.477  -7.975  26.053  0.00  0.00    +0.000 A 
ENDROOT
BRANCH   1  13
ATOM     12  N   UNL     1      22.730  -8.535  25.239  0.00  0.00    +0.000 NA
ATOM     13  C   UNL     1      21.461  -8.873  24.720  0.00  0.00    +0.000 C 
ATOM     14  O   UNL     1      21.375  -9.075  23.484  0.00  0.00    +0.000 OA
BRANCH  12  21
ATOM     15  C   UNL     1      23.341  -6.009  24.300  0.00  0.00    +0.000 C 
ATOM     16  C   UNL     1      24.240  -7.156  24.009  0.00  0.00    +0.000 A 
ATOM     17  C   UNL     1      25.388  -6.937  23.260  0.00  0.00    +0.000 A 
ATOM     18  C   UNL     1      26.246  -7.979  22.973  0.00  0.00    +0.000 A 
ATOM     19  C   UNL     1      25.909  -9.226  23.458  0.00  0.00    +0.000 A 
ATOM     20  C   UNL     1      24.768  -9.447  24.203  0.00  0.00    +0.000 A 
ATOM     21  C   UNL     1      23.910  -8.405  24.492  0.00  0.00    +0.000 A 
ENDBRANCH  12  21
ENDBRANCH   1  13
TORSDOF 2
ENDMDL
MODEL 3
REMARK VINA RESULT:      -6.9      2.422      6.344
REMARK  Name = 
REMARK  2 active torsions:
REMARK  status: ('A' for Active; 'I' for Inactive)
REMARK    1  A    between atoms: C_7  and  N_8
REMARK    2  A    between atoms: C_9  and  C_11
REMARK                            x       y       z     vdW  Elec       q    Type
REMARK                         _______ _______ _______ _____ _____    ______ ____
ROOT
ATOM      1  C   UNL     1      17.050  10.475  38.004  0.00  0.00    +0.000 A 
ATOM      2  C   UNL     1      16.598  10.007  39.211  0.00  0.00    +0.000 A 
ATOM      3  C   UNL     1      17.386   9.254  40.205  0.00  0.00    +0.000 C 
ATOM      4  O   UNL     1      15.343  10.328  39.367  0.00  0.00    +0.000 OA
ATOM      5  C   UNL     1      14.919  11.001  38.304  0.00  0.00    +0.000 A 
ATOM      6  C   UNL     1      13.702  11.558  37.966  0.00  0.00    +0.000 A 
ATOM      7  C   UNL     1      13.605  12.205  36.749  0.00  0.00    +0.000 A 
ATOM      8  C   UNL     1      14.666  12.309  35.878  0.00  0.00    +0.000 A 
ATOM      9  O   UNL     1      14.469  12.975  34.685  0.00  0.00    +0.000 OA
ATOM     10  C   UNL     1      15.886  11.753  36.209  0.00  0.00    +0.000 A 
ATOM     11  C   UNL     1      15.984  11.109  37.421  0.00  0.00    +0.000 A 
ENDROOT
BRANCH   1  13
ATOM     12  N   UNL     1      19.539  10.889  38.088  0.00  0.00    +0.000 NA
ATOM     13  C   UNL     1      18.412  10.318  37.459  0.00  0.00    +0.000 C 
ATOM     14  O   UNL     1      18.605   9.663  36.405  0.00  0.00    +0.000 OA
BRANCH  12  21
ATOM     15  C   UNL     1      21.306  12.821  38.971  0.00  0.00    +0.000 C 
ATOM     16  C   UNL     1      21.769  11.739  38.063  0.00  0.00    +0.000 A 
ATOM     17  C   UNL     1      23.099  11.717  37.668  0.00  0.00    +0.000 A 
ATOM     18  C   UNL     1      23.562  10.726  36.826  0.00  0.00    +0.000 A 
ATOM     19  C   UNL     1      22.652   9.779  36.406  0.00  0.00    +0.000 A 
ATOM     20  C   UNL     1      21.328   9.798  36.798  0.00  0.00    +0.000 A 
ATOM     21  C   UNL     1      20.864  10.788  37.639  0.00  0.00    +0.000 A 
ENDBRANCH  12  21
ENDBRANCH   1  13
TORSDOF 2
ENDMDL
MODEL 4
REMARK VINA RESULT:      -6.8     18.441     20.435
REMARK  Name = 
REMARK  2 active torsions:
REMARK  status: ('A' for Active; 'I' for Inactive)
REMARK    1  A    between atoms: C_7  and  N_8
REMARK    2  A    between atoms: C_9  and  C_11
REMARK                            x       y       z     vdW  Elec       q    Type
REMARK                         _______ _______ _______ _____ _____    ______ ____
ROOT
ATOM      1  C   UNL     1      29.754  23.273  24.908  0.00  0.00    +0.000 A 
ATOM      2  C   UNL     1      30.810  23.692  24.140  0.00  0.00    +0.000 A 
ATOM      3  C   UNL     1      32.228  23.720  24.545  0.00  0.00    +0.000 C 
ATOM      4  O   UNL     1      30.379  24.073  22.968  0.00  0.00    +0.000 OA
ATOM      5  C   UNL     1      29.061  23.929  22.908  0.00  0.00    +0.000 A 
ATOM      6  C   UNL     1      28.129  24.179  21.920  0.00  0.00    +0.000 A 
ATOM      7  C   UNL     1      26.804  23.907  22.201  0.00  0.00    +0.000 A 
ATOM      8  C   UNL     1      26.391  23.403  23.414  0.00  0.00    +0.000 A 
ATOM      9  O   UNL     1      25.043  23.165  23.597  0.00  0.00    +0.000 OA
ATOM     10  C   UNL     1      27.317  23.151  24.407  0.00  0.00    +0.000 A 
ATOM     11  C   UNL     1      28.637  23.420  24.129  0.00  0.00    +0.000 A 
ENDROOT
BRANCH   1  13
ATOM     12  N   UNL     1      29.530  23.584  27.404  0.00  0.00    +0.000 NA
ATOM     13  C   UNL     1      29.826  22.766  26.292  0.00  0.00    +0.000 C 
ATOM     14  O   UNL     1      30.158  21.576  26.518  0.00  0.00    +0.000 OA
BRANCH  12  21
ATOM     15  C   UNL     1      27.118  22.951  28.593  0.00  0.00    +0.000 C 
ATOM     16  C   UNL     1      28.383  22.861  29.367  0.00  0.00    +0.000 A 
ATOM     17  C   UNL     1      28.331  22.455  30.693  0.00  0.00    +0.000 A 
ATOM     18  C   UNL     1      29.487  22.360  31.442  0.00  0.00    +0.000 A 
ATOM     19  C   UNL     1      30.673  22.684  30.815  0.00  0.00    +0.000 A 
ATOM     20  C   UNL     1      30.727  23.087  29.496  0.00  0.00    +0.000 A 
ATOM     21  C   UNL     1      29.572  23.182  28.747  0.00  0.00    +0.000 A 
ENDBRANCH  12  21
ENDBRANCH   1  13
TORSDOF 2
ENDMDL
MODEL 5
REMARK VINA RESULT:      -6.7     20.507     22.184
REMARK  Name = 
REMARK  2 active torsions:
REMARK  status: ('A' for Active; 'I' for Inactive)
REMARK    1  A    between atoms: C_7  and  N_8
REMARK    2  A    between atoms: C_9  and  C_11
REMARK                            x       y       z     vdW  Elec       q    Type
REMARK                         _______ _______ _______ _____ _____    ______ ____
ROOT
ATOM      1  C   UNL     1      19.184  -7.257  25.825  0.00  0.00    +0.000 A 
ATOM      2  C   UNL     1      18.626  -6.092  26.282  0.00  0.00    +0.000 A 
ATOM      3  C   UNL     1      19.335  -4.823  26.531  0.00  0.00    +0.000 C 
ATOM      4  O   UNL     1      17.346  -6.261  26.474  0.00  0.00    +0.000 OA
ATOM      5  C   UNL     1      17.009  -7.506  26.161  0.00  0.00    +0.000 A 
ATOM      6  C   UNL     1      15.810  -8.192  26.182  0.00  0.00    +0.000 A 
ATOM      7  C   UNL     1      15.817  -9.514  25.782  0.00  0.00    +0.000 A 
ATOM      8  C   UNL     1      16.961 -10.158  25.370  0.00  0.00    +0.000 A 
ATOM      9  O   UNL     1      16.865 -11.482  24.989  0.00  0.00    +0.000 OA
ATOM     10  C   UNL     1      18.164  -9.480  25.347  0.00  0.00    +0.000 A 
ATOM     11  C   UNL     1      18.159  -8.163  25.745  0.00  0.00    +0.000 A 
ENDROOT
BRANCH   1  13
ATOM     12  N   UNL     1      21.200  -6.898  24.346  0.00  0.00    +0.000 NA
ATOM     13  C   UNL     1      20.604  -7.474  25.489  0.00  0.00    +0.000 C 
ATOM     14  O   UNL     1      21.331  -8.188  26.224  0.00  0.00    +0.000 OA
BRANCH  12  21
ATOM     15  C   UNL     1      21.732  -8.839  22.454  0.00  0.00    +0.000 C 
ATOM     16  C   UNL     1      22.834  -8.014  23.013  0.00  0.00    +0.000 A 
ATOM     17  C   UNL     1      24.130  -8.235  22.570  0.00  0.00    +0.000 A 
ATOM     18  C   UNL     1      25.178  -7.486  23.069  0.00  0.00    +0.000 A 
ATOM     19  C   UNL     1      24.874  -6.526  24.012  0.00  0.00    +0.000 A 
ATOM     20  C   UNL     1      23.586  -6.304  24.454  0.00  0.00    +0.000 A 
ATOM     21  C   UNL     1      22.538  -7.052  23.956  0.00  0.00    +0.000 A 
ENDBRANCH  12  21
ENDBRANCH   1  13
TORSDOF 2
ENDMDL
MODEL 6
REMARK VINA RESULT:      -6.6     18.575     19.868
REMARK  Name = 
REMARK  2 active torsions:
REMARK  status: ('A' for Active; 'I' for Inactive)
REMARK    1  A    between atoms: C_7  and  N_8
REMARK    2  A    between atoms: C_9  and  C_11
REMARK                            x       y       z     vdW  Elec       q    Type
REMARK                         _______ _______ _______ _____ _____    ______ ____
ROOT
ATOM      1  C   UNL     1      27.620  23.784  24.206  0.00  0.00    +0.000 A 
ATOM      2  C   UNL     1      28.123  23.814  22.931  0.00  0.00    +0.000 A 
ATOM      3  C   UNL     1      27.391  24.212  21.713  0.00  0.00    +0.000 C 
ATOM      4  O   UNL     1      29.372  23.434  22.940  0.00  0.00    +0.000 OA
ATOM      5  C   UNL     1      29.742  23.144  24.181  0.00  0.00    +0.000 A 
ATOM      6  C   UNL     1      30.929  22.704  24.732  0.00  0.00    +0.000 A 
ATOM      7  C   UNL     1      30.967  22.495  26.097  0.00  0.00    +0.000 A 
ATOM      8  C   UNL     1      29.878  22.710  26.911  0.00  0.00    +0.000 A 
ATOM      9  O   UNL     1      30.017  22.472  28.264  0.00  0.00    +0.000 OA
ATOM     10  C   UNL     1      28.687  23.149  26.367  0.00  0.00    +0.000 A 
ATOM     11  C   UNL     1      28.647  23.357  25.008  0.00  0.00    +0.000 A 
ENDROOT
BRANCH   1  13
ATOM     12  N   UNL     1      25.962  25.344  25.297  0.00  0.00    +0.000 NA
ATOM     13  C   UNL     1      26.249  24.142  24.615  0.00  0.00    +0.000 C 
ATOM     14  O   UNL     1      25.288  23.374  24.361  0.00  0.00    +0.000 OA
BRANCH  12  21
ATOM     15  C   UNL     1      25.314  24.886  27.943  0.00  0.00    +0.000 C 
ATOM     16  C   UNL     1      24.339  25.544  27.035  0.00  0.00    +0.000 A 
ATOM     17  C   UNL     1      23.103  25.923  27.538  0.00  0.00    +0.000 A 
ATOM     18  C   UNL     1      22.174  26.537  26.722  0.00  0.00    +0.000 A 
ATOM     19  C   UNL     1      22.532  26.749  25.407  0.00  0.00    +0.000 A 
ATOM     20  C   UNL     1      23.761  26.374  24.904  0.00  0.00    +0.000 A 
ATOM     21  C   UNL     1      24.691  25.761  25.719  0.00  0.00    +0.000 A 
ENDBRANCH  12  21
ENDBRANCH   1  13
TORSDOF 2
ENDMDL
MODEL 7
REMARK VINA RESULT:      -6.6     19.705     21.680
REMARK  Name = 
REMARK  2 active torsions:
REMARK  status: ('A' for Active; 'I' for Inactive)
REMARK    1  A    between atoms: C_7  and  N_8
REMARK    2  A    between atoms: C_9  and  C_11
REMARK                            x       y       z     vdW  Elec       q    Type
REMARK                         _______ _______ _______ _____ _____    ______ ____
ROOT
ATOM      1  C   UNL     1      28.920  23.119  25.570  0.00  0.00    +0.000 A 
ATOM      2  C   UNL     1      27.715  22.886  26.182  0.00  0.00    +0.000 A 
ATOM      3  C   UNL     1      27.511  22.507  27.593  0.00  0.00    +0.000 C 
ATOM      4  O   UNL     1      26.745  23.050  25.324  0.00  0.00    +0.000 OA
ATOM      5  C   UNL     1      27.247  23.388  24.142  0.00  0.00    +0.000 A 
ATOM      6  C   UNL     1      26.670  23.671  22.920  0.00  0.00    +0.000 A 
ATOM      7  C   UNL     1      27.509  23.994  21.871  0.00  0.00    +0.000 A 
ATOM      8  C   UNL     1      28.878  24.044  22.005  0.00  0.00    +0.000 A 
ATOM      9  O   UNL     1      29.632  24.378  20.897  0.00  0.00    +0.000 OA
ATOM     10  C   UNL     1      29.462  23.762  23.225  0.00  0.00    +0.000 A 
ATOM     11  C   UNL     1      28.628  23.440  24.270  0.00  0.00    +0.000 A 
ENDROOT
BRANCH   1  13
ATOM     12  N   UNL     1      30.992  24.192  26.535  0.00  0.00    +0.000 NA
ATOM     13  C   UNL     1      30.251  23.038  26.200  0.00  0.00    +0.000 C 
ATOM     14  O   UNL     1      30.766  21.922  26.458  0.00  0.00    +0.000 OA
BRANCH  12  21
ATOM     15  C   UNL     1      33.135  24.820  24.909  0.00  0.00    +0.000 C 
ATOM     16  C   UNL     1      33.349  24.513  26.348  0.00  0.00    +0.000 A 
ATOM     17  C   UNL     1      34.639  24.546  26.857  0.00  0.00    +0.000 A 
ATOM     18  C   UNL     1      34.873  24.267  28.189  0.00  0.00    +0.000 A 
ATOM     19  C   UNL     1      33.779  23.958  28.970  0.00  0.00    +0.000 A 
ATOM     20  C   UNL     1      32.494  23.924  28.466  0.00  0.00    +0.000 A 
ATOM     21  C   UNL     1      32.260  24.203  27.135  0.00  0.00    +0.000 A 
ENDBRANCH  12  21
ENDBRANCH   1  13
TORSDOF 2
ENDMDL
MODEL 8
REMARK VINA RESULT:      -6.5     18.484     21.269
REMARK  Name = 
REMARK  2 active torsions:
REMARK  status: ('A' for Active; 'I' for Inactive)
REMARK    1  A    between atoms: C_7  and  N_8
REMARK    2  A    between atoms: C_9  and  C_11
REMARK                            x       y       z     vdW  Elec       q    Type
REMARK                         _______ _______ _______ _____ _____    ______ ____
ROOT
ATOM      1  C   UNL     1      33.022  -3.865  33.841  0.00  0.00    +0.000 A 
ATOM      2  C   UNL     1      32.328  -4.292  34.944  0.00  0.00    +0.000 A 
ATOM      3  C   UNL     1      31.940  -5.683  35.246  0.00  0.00    +0.000 C 
ATOM      4  O   UNL     1      32.048  -3.274  35.711  0.00  0.00    +0.000 OA
ATOM      5  C   UNL     1      32.530  -2.161  35.170  0.00  0.00    +0.000 A 
ATOM      6  C   UNL     1      32.511  -0.838  35.563  0.00  0.00    +0.000 A 
ATOM      7  C   UNL     1      33.123   0.087  34.740  0.00  0.00    +0.000 A 
ATOM      8  C   UNL     1      33.741  -0.263  33.561  0.00  0.00    +0.000 A 
ATOM      9  O   UNL     1      34.325   0.735  32.808  0.00  0.00    +0.000 OA
ATOM     10  C   UNL     1      33.764  -1.585  33.161  0.00  0.00    +0.000 A 
ATOM     11  C   UNL     1      33.155  -2.507  33.980  0.00  0.00    +0.000 A 
ENDROOT
BRANCH   1  13
ATOM     12  N   UNL     1      32.719  -5.031  31.623  0.00  0.00    +0.000 NA
ATOM     13  C   UNL     1      33.520  -4.709  32.739  0.00  0.00    +0.000 C 
ATOM     14  O   UNL     1      34.688  -5.170  32.767  0.00  0.00    +0.000 OA
BRANCH  12  21
ATOM     15  C   UNL     1      31.934  -7.680  31.660  0.00  0.00    +0.000 C 
ATOM     16  C   UNL     1      32.737  -7.151  30.527  0.00  0.00    +0.000 A 
ATOM     17  C   UNL     1      33.084  -8.008  29.492  0.00  0.00    +0.000 A 
ATOM     18  C   UNL     1      33.828  -7.549  28.424  0.00  0.00    +0.000 A 
ATOM     19  C   UNL     1      34.202  -6.221  28.439  0.00  0.00    +0.000 A 
ATOM     20  C   UNL     1      33.857  -5.367  29.467  0.00  0.00    +0.000 A 
ATOM     21  C   UNL     1      33.113  -5.824  30.535  0.00  0.00    +0.000 A 
ENDBRANCH  12  21
ENDBRANCH   1  13
TORSDOF 2
ENDMDL
MODEL 9
REMARK VINA RESULT:      -6.3     17.039     19.145
REMARK  Name = 
REMARK  2 active torsions:
REMARK  status: ('A' for Active; 'I' for Inactive)
REMARK    1  A    between atoms: C_7  and  N_8
REMARK    2  A    between atoms: C_9  and  C_11
REMARK                            x       y       z     vdW  Elec       q    Type
REMARK                         _______ _______ _______ _____ _____    ______ ____
ROOT
ATOM      1  C   UNL     1      33.882   1.475  36.715  0.00  0.00    +0.000 A 
ATOM      2  C   UNL     1      34.068   2.199  37.865  0.00  0.00    +0.000 A 
ATOM      3  C   UNL     1      34.145   1.657  39.234  0.00  0.00    +0.000 C 
ATOM      4  O   UNL     1      34.171   3.468  37.576  0.00  0.00    +0.000 OA
ATOM      5  C   UNL     1      34.061   3.638  36.264  0.00  0.00    +0.000 A 
ATOM      6  C   UNL     1      34.097   4.754  35.452  0.00  0.00    +0.000 A 
ATOM      7  C   UNL     1      33.945   4.566  34.092  0.00  0.00    +0.000 A 
ATOM      8  C   UNL     1      33.763   3.322  33.531  0.00  0.00    +0.000 A 
ATOM      9  O   UNL     1      33.621   3.238  32.160  0.00  0.00    +0.000 OA
ATOM     10  C   UNL     1      33.725   2.201  34.336  0.00  0.00    +0.000 A 
ATOM     11  C   UNL     1      33.877   2.387  35.691  0.00  0.00    +0.000 A 
ENDROOT
BRANCH   1  13
ATOM     12  N   UNL     1      34.685  -0.805  35.987  0.00  0.00    +0.000 NA
ATOM     13  C   UNL     1      33.722   0.012  36.618  0.00  0.00    +0.000 C 
ATOM     14  O   UNL     1      32.710  -0.552  37.104  0.00  0.00    +0.000 OA
BRANCH  12  21
ATOM     15  C   UNL     1      33.680  -1.778  33.605  0.00  0.00    +0.000 C 
ATOM     16  C   UNL     1      34.113  -2.714  34.675  0.00  0.00    +0.000 A 
ATOM     17  C   UNL     1      34.004  -4.080  34.457  0.00  0.00    +0.000 A 
ATOM     18  C   UNL     1      34.397  -4.977  35.429  0.00  0.00    +0.000 A 
ATOM     19  C   UNL     1      34.894  -4.456  36.606  0.00  0.00    +0.000 A 
ATOM     20  C   UNL     1      35.004  -3.097  36.825  0.00  0.00    +0.000 A 
ATOM     21  C   UNL     1      34.611  -2.200  35.853  0.00  0.00    +0.000 A 
ENDBRANCH  12  21
ENDBRANCH   1  13
TORSDOF 2
ENDMDL
MODEL 10
REMARK VINA RESULT:      -6.3     18.038     19.339
REMARK  Name = 
REMARK  2 active torsions:
REMARK  status: ('A' for Active; 'I' for Inactive)
REMARK    1  A    between atoms: C_7  and  N_8
REMARK    2  A    between atoms: C_9  and  C_11
REMARK                            x       y       z     vdW  Elec       q    Type
REMARK                         _______ _______ _______ _____ _____    ______ ____
ROOT
ATOM      1  C   UNL     1      25.104  25.281  27.254  0.00  0.00    +0.000 A 
ATOM      2  C   UNL     1      24.116  26.053  26.699  0.00  0.00    +0.000 A 
ATOM      3  C   UNL     1      23.812  26.180  25.261  0.00  0.00    +0.000 C 
ATOM      4  O   UNL     1      23.462  26.677  27.640  0.00  0.00    +0.000 OA
ATOM      5  C   UNL     1      23.969  26.358  28.824  0.00  0.00    +0.000 A 
ATOM      6  C   UNL     1      23.655  26.730  30.116  0.00  0.00    +0.000 A 
ATOM      7  C   UNL     1      24.409  26.194  31.142  0.00  0.00    +0.000 A 
ATOM      8  C   UNL     1      25.444  25.315  30.921  0.00  0.00    +0.000 A 
ATOM      9  O   UNL     1      26.138  24.835  32.014  0.00  0.00    +0.000 OA
ATOM     10  C   UNL     1      25.765  24.938  29.632  0.00  0.00    +0.000 A 
ATOM     11  C   UNL     1      25.015  25.471  28.609  0.00  0.00    +0.000 A 
ENDROOT
BRANCH   1  13
ATOM     12  N   UNL     1      27.435  24.732  26.454  0.00  0.00    +0.000 NA
ATOM     13  C   UNL     1      26.059  24.425  26.526  0.00  0.00    +0.000 C 
ATOM     14  O   UNL     1      25.665  23.385  25.942  0.00  0.00    +0.000 OA
BRANCH  12  21
ATOM     15  C   UNL     1      28.937  22.998  27.993  0.00  0.00    +0.000 C 
ATOM     16  C   UNL     1      29.174  23.100  26.529  0.00  0.00    +0.000 A 
ATOM     17  C   UNL     1      30.159  22.311  25.951  0.00  0.00    +0.000 A 
ATOM     18  C   UNL     1      30.404  22.381  24.594  0.00  0.00    +0.000 A 
ATOM     19  C   UNL     1      29.634  23.258  23.858  0.00  0.00    +0.000 A 
ATOM     20  C   UNL     1      28.654  24.042  24.430  0.00  0.00    +0.000 A 
ATOM     21  C   UNL     1      28.408  23.974  25.786  0.00  0.00    +0.000 A 
ENDBRANCH  12  21
ENDBRANCH   1  13
TORSDOF 2
ENDMDL
